# generated using pymatgen
data_V85Zn86O256
_symmetry_space_group_name_H-M   'P 1'
_cell_length_a   16.94607083
_cell_length_b   16.96892955
_cell_length_c   16.96068125
_cell_angle_alpha   89.91006505
_cell_angle_beta   89.89796525
_cell_angle_gamma   90.02510027
_symmetry_Int_Tables_number   1
_chemical_formula_structural   V85Zn86O256
_chemical_formula_sum   'V85 Zn86 O256'
_cell_volume   4877.14300943
_cell_formula_units_Z   1
loop_
 _symmetry_equiv_pos_site_id
 _symmetry_equiv_pos_as_xyz
  1  'x, y, z'
loop_
 _atom_site_type_symbol
 _atom_site_label
 _atom_site_symmetry_multiplicity
 _atom_site_fract_x
 _atom_site_fract_y
 _atom_site_fract_z
 _atom_site_occupancy
  V  V0  1  0.49501305  0.48648038  -0.00417376  1
  V  V1  1  0.24728291  0.50136969  0.25013153  1
  V  V2  1  0.12402395  0.87292666  0.25296678  1
  V  V3  1  0.13914336  0.73684480  0.38520054  1
  V  V4  1  0.37529375  0.49626184  0.37394174  1
  V  V5  1  0.87225149  0.49764894  0.87854801  1
  V  V6  1  0.86504921  0.87741469  0.00493580  1
  V  V7  1  0.87097127  0.12511157  0.75093886  1
  V  V8  1  0.24722748  0.49909185  0.75118091  1
  V  V9  1  0.86729690  0.75459704  0.12586943  1
  V  V10  1  -0.00185132  0.12875454  0.13974933  1
  V  V11  1  0.74256120  0.48554141  0.74394186  1
  V  V12  1  0.50194046  0.12642306  0.62277276  1
  V  V13  1  0.38023706  0.12281014  0.74971491  1
  V  V14  1  0.37616521  0.12361564  0.24939798  1
  V  V15  1  -0.00059151  0.25052236  0.75101685  1
  V  V16  1  0.50264416  0.11740347  0.12097802  1
  V  V17  1  0.50030331  0.37528401  0.37685017  1
  V  V18  1  0.86959844  0.62489822  0.74784654  1
  V  V19  1  0.37117388  0.62366525  0.25192866  1
  V  V20  1  0.50143600  0.24834526  0.24950941  1
  V  V21  1  0.24394012  0.62330435  0.87857955  1
  V  V22  1  0.12569413  -0.00046701  0.62608719  1
  V  V23  1  0.37457709  0.48699181  0.88013362  1
  V  V24  1  0.37300500  0.74976004  0.12521046  1
  V  V25  1  0.37201738  0.86727703  0.50576225  1
  V  V26  1  0.62206718  0.48757734  0.62052270  1
  V  V27  1  0.62065067  0.62973668  -0.01021801  1
  V  V28  1  0.37731022  0.37479318  0.49924371  1
  V  V29  1  0.37856312  -0.00014436  0.37908000  1
  V  V30  1  0.62730713  0.37418347  0.24918783  1
  V  V31  1  -0.00562849  0.87008533  0.38389773  1
  V  V32  1  0.25358319  -0.00129398  0.75672502  1
  V  V33  1  -0.00158665  0.74829158  0.74911571  1
  V  V34  1  0.37533636  0.25435624  0.11596465  1
  V  V35  1  0.87082546  0.25675029  0.62537926  1
  V  V36  1  0.74935759  0.50011326  0.24862570  1
  V  V37  1  0.25263429  0.86296541  0.62400703  1
  V  V38  1  0.12253373  0.50359782  0.60901951  1
  V  V39  1  0.75084682  0.25616283  0.50139552  1
  V  V40  1  0.25080132  0.12448192  0.37712296  1
  V  V41  1  0.49908835  0.62445084  0.12264147  1
  V  V42  1  0.12180894  0.74676564  0.87758351  1
  V  V43  1  0.00208552  0.62005803  0.61236703  1
  V  V44  1  0.88102293  0.38108304  0.50251693  1
  V  V45  1  0.50149550  0.62903376  0.62021888  1
  V  V46  1  0.62160663  0.26615551  0.87390270  1
  V  V47  1  0.12182728  0.50480984  0.11650155  1
  V  V48  1  0.62675254  0.24582699  0.37602543  1
  V  V49  1  0.88176191  0.24959815  0.13224618  1
  V  V50  1  0.62673610  -0.00761886  0.12726707  1
  V  V51  1  0.75658196  0.37323106  0.11648384  1
  V  V52  1  0.87472438  0.75330980  0.61650775  1
  V  V53  1  0.38235929  0.87984030  -0.00638239  1
  V  V54  1  0.62434325  0.49818663  0.12170262  1
  V  V55  1  0.25126646  -0.00241171  0.25103060  1
  V  V56  1  0.50581842  0.74798571  0.25727924  1
  V  V57  1  0.00105371  0.12523583  0.62487220  1
  V  V58  1  0.37543572  0.63145190  0.74768820  1
  V  V59  1  0.87598172  0.00671107  0.38288643  1
  V  V60  1  0.49893062  0.26237159  0.75167055  1
  V  V61  1  0.24765332  0.87435362  0.12586364  1
  V  V62  1  0.73801747  0.74778110  0.49428977  1
  V  V63  1  0.24247245  0.74621530  0.00120310  1
  V  V64  1  0.50650737  0.86874926  0.37586889  1
  V  V65  1  0.25124998  0.24927890  0.50186900  1
  V  V66  1  0.12622766  0.12382747  0.50218591  1
  V  V67  1  0.74424969  0.75128948  -0.00748005  1
  V  V68  1  0.12481582  0.87390128  0.75045482  1
  V  V69  1  0.87070976  0.00281440  0.87564598  1
  V  V70  1  -0.00488267  0.37493935  0.88065656  1
  V  V71  1  0.12562629  0.24820830  0.87450103  1
  V  V72  1  0.87302208  0.62622322  0.24920124  1
  V  V73  1  0.50883654  0.75292752  0.76333934  1
  V  V74  1  0.87770228  0.50190302  0.37789895  1
  V  V75  1  0.75967019  -0.00026749  0.24287230  1
  V  V76  1  0.25237378  0.37194433  0.62423121  1
  V  V77  1  0.00046117  0.37010378  0.37182582  1
  V  V78  1  -0.00171717  0.00199587  0.00276996  1
  V  V79  1  0.62684848  0.12269561  -0.00148579  1
  V  V80  1  0.74640469  0.87564471  0.62227943  1
  V  V81  1  0.00004213  0.62677484  0.11607383  1
  V  V82  1  0.12594193  0.12558000  -0.00058831  1
  V  V83  1  -0.00241965  0.87424158  0.87576781  1
  V  V84  1  0.12002099  0.36952648  0.24668634  1
  Zn  Zn85  1  0.76357611  0.13195648  0.36939190  1
  Zn  Zn86  1  0.74788193  0.12885915  0.87567728  1
  Zn  Zn87  1  0.26380477  0.12153418  0.88022982  1
  Zn  Zn88  1  0.50736871  -0.00169747  0.50019300  1
  Zn  Zn89  1  0.40995177  -0.00966406  0.87584589  1
  Zn  Zn90  1  -0.00207956  0.50198905  -0.00327492  1
  Zn  Zn91  1  0.12311510  0.37433652  0.74688605  1
  Zn  Zn92  1  -0.00013994  0.74994398  0.25016390  1
  Zn  Zn93  1  0.62656903  -0.00066633  0.62324370  1
  Zn  Zn94  1  0.74916598  -0.00448455  0.74894954  1
  Zn  Zn95  1  0.25920088  0.25576876  -0.00810263  1
  Zn  Zn96  1  -0.00220628  -0.00422058  0.50517099  1
  Zn  Zn97  1  0.61792921  0.87953109  0.75990034  1
  Zn  Zn98  1  0.74000739  0.63182375  0.37112567  1
  Zn  Zn99  1  0.25271297  0.37890047  0.11818227  1
  Zn  Zn100  1  0.12343532  0.00196766  0.12703443  1
  Zn  Zn101  1  0.12080029  0.24548620  0.36822041  1
  Zn  Zn102  1  0.63354910  0.12313887  0.50153523  1
  Zn  Zn103  1  0.75880103  0.25568242  -0.00617137  1
  Zn  Zn104  1  0.61030473  0.62004910  0.48904104  1
  Zn  Zn105  1  0.74157681  0.62845153  0.86699653  1
  Zn  Zn106  1  0.63152949  0.86865876  0.25221074  1
  Zn  Zn107  1  0.18957676  0.18467176  0.18576496  1
  Zn  Zn108  1  0.19113974  0.18530536  0.68976604  1
  Zn  Zn109  1  0.18450276  0.68690275  0.19259779  1
  Zn  Zn110  1  0.18419287  0.68326531  0.68722516  1
  Zn  Zn111  1  0.69428877  0.18461076  0.18869803  1
  Zn  Zn112  1  0.68425495  0.19388768  0.68933847  1
  Zn  Zn113  1  0.68550967  0.68628428  0.18122927  1
  Zn  Zn114  1  0.68160516  0.68827937  0.68420179  1
  Zn  Zn115  1  0.30856040  0.31152076  0.30706140  1
  Zn  Zn116  1  0.31233774  0.30865642  0.80920360  1
  Zn  Zn117  1  0.31581614  0.81101605  0.31605927  1
  Zn  Zn118  1  0.31396178  0.81109487  0.81318363  1
  Zn  Zn119  1  0.81445756  0.31504675  0.31032744  1
  Zn  Zn120  1  0.81068402  0.31341264  0.81358098  1
  Zn  Zn121  1  0.81201507  0.81837075  0.31354252  1
  Zn  Zn122  1  0.81098551  0.81341115  0.80915428  1
  Zn  Zn123  1  0.18885399  0.43764471  0.43245089  1
  Zn  Zn124  1  0.18694147  0.43190179  0.93911275  1
  Zn  Zn125  1  0.18661526  0.93348105  0.43879978  1
  Zn  Zn126  1  0.18692576  0.93453317  0.94046351  1
  Zn  Zn127  1  0.69034135  0.43892131  0.43803784  1
  Zn  Zn128  1  0.68680394  0.44482340  0.93600476  1
  Zn  Zn129  1  0.69106282  0.93789286  0.44048301  1
  Zn  Zn130  1  0.67984326  0.94095246  0.93881196  1
  Zn  Zn131  1  0.31299867  0.06099495  0.06233108  1
  Zn  Zn132  1  0.31493783  0.05875165  0.56748466  1
  Zn  Zn133  1  0.31176304  0.56060551  0.06255116  1
  Zn  Zn134  1  0.30914007  0.55910484  0.56596392  1
  Zn  Zn135  1  0.81224275  0.07137683  0.06456003  1
  Zn  Zn136  1  0.81335498  0.06673160  0.55975745  1
  Zn  Zn137  1  0.80824990  0.56696507  0.06118712  1
  Zn  Zn138  1  0.80750125  0.56457498  0.56344467  1
  Zn  Zn139  1  0.44096565  0.43653883  0.18682512  1
  Zn  Zn140  1  0.43427580  0.44552642  0.68503094  1
  Zn  Zn141  1  0.43811541  0.93326479  0.18724248  1
  Zn  Zn142  1  0.43970394  0.93830639  0.68718139  1
  Zn  Zn143  1  0.93752809  0.43795991  0.18637318  1
  Zn  Zn144  1  0.93921028  0.43951161  0.69092230  1
  Zn  Zn145  1  0.93979605  0.93917134  0.18989010  1
  Zn  Zn146  1  0.93512561  0.93618951  0.68687640  1
  Zn  Zn147  1  0.06404129  0.05772321  0.31819026  1
  Zn  Zn148  1  0.06054548  0.06156858  0.81291048  1
  Zn  Zn149  1  0.05920449  0.56012452  0.31016387  1
  Zn  Zn150  1  0.05901062  0.56196280  0.80641260  1
  Zn  Zn151  1  0.56551066  0.05943953  0.30868805  1
  Zn  Zn152  1  0.57353105  0.06655387  0.80562274  1
  Zn  Zn153  1  0.55999410  0.56155418  0.31193357  1
  Zn  Zn154  1  0.55710669  0.55732508  0.80970245  1
  Zn  Zn155  1  0.43580327  0.19129205  0.43819102  1
  Zn  Zn156  1  0.44527138  0.18347313  0.93379178  1
  Zn  Zn157  1  0.39142518  0.66500557  0.46027063  1
  Zn  Zn158  1  0.43055151  0.68436662  0.93691812  1
  Zn  Zn159  1  0.94068113  0.18899291  0.43870008  1
  Zn  Zn160  1  0.93748770  0.19124591  0.94634528  1
  Zn  Zn161  1  0.93454679  0.68836381  0.43558135  1
  Zn  Zn162  1  0.93036069  0.68748648  0.93570072  1
  Zn  Zn163  1  0.06260979  0.31345227  0.06197627  1
  Zn  Zn164  1  0.06341216  0.31430493  0.56095204  1
  Zn  Zn165  1  0.05742868  0.81375449  0.06414486  1
  Zn  Zn166  1  0.06705906  0.80675997  0.56239905  1
  Zn  Zn167  1  0.56551119  0.30805785  0.06260604  1
  Zn  Zn168  1  0.55969729  0.30843128  0.56473618  1
  Zn  Zn169  1  0.56104032  0.81037085  0.06457381  1
  Zn  Zn170  1  0.55777763  0.81003364  0.56539948  1
  O  O171  1  0.11853292  0.12616289  0.11500813  1
  O  O172  1  0.12115272  0.11965934  0.62286611  1
  O  O173  1  0.11033452  0.61742268  0.13622617  1
  O  O174  1  0.11417216  0.61590080  0.63028564  1
  O  O175  1  0.61943505  0.12102236  0.12047113  1
  O  O176  1  0.61386709  0.12760752  0.62397541  1
  O  O177  1  0.61877732  0.61713436  0.11431039  1
  O  O178  1  0.61219626  0.61797053  0.62139932  1
  O  O179  1  0.37902135  0.37686025  0.37774515  1
  O  O180  1  0.36547508  0.38812407  0.87214351  1
  O  O181  1  0.38018156  0.88277225  0.38566432  1
  O  O182  1  0.37163451  0.87537541  0.88863024  1
  O  O183  1  0.88195287  0.38132552  0.38042717  1
  O  O184  1  0.88290671  0.38519571  0.86731591  1
  O  O185  1  0.89029570  0.88376041  0.37181252  1
  O  O186  1  0.87811786  0.88333452  0.88229622  1
  O  O187  1  0.25999027  0.00350927  0.37212410  1
  O  O188  1  0.24345080  0.00053217  0.86152524  1
  O  O189  1  0.26147659  0.49142018  0.35948816  1
  O  O190  1  0.25164729  0.50576277  0.87020196  1
  O  O191  1  0.76621310  0.00012391  0.37271253  1
  O  O192  1  0.76214957  0.00211162  0.87445089  1
  O  O193  1  0.76289414  0.49732985  0.36577293  1
  O  O194  1  0.75454608  0.50286329  0.86033455  1
  O  O195  1  0.24016587  0.50172176  0.13249891  1
  O  O196  1  0.24200779  0.49389946  0.63333365  1
  O  O197  1  0.24724852  0.99341669  0.13313143  1
  O  O198  1  0.24570297  0.99329141  0.63856377  1
  O  O199  1  0.74583819  0.49382751  0.12830986  1
  O  O200  1  0.73862422  0.50464873  0.63705000  1
  O  O201  1  0.74699068  1.00429400  0.13742729  1
  O  O202  1  0.75877613  0.98314761  0.62096073  1
  O  O203  1  0.00900342  0.38208018  0.25880320  1
  O  O204  1  0.00224228  0.36816943  0.75965568  1
  O  O205  1  0.00893139  0.87494425  0.25987629  1
  O  O206  1  0.00381787  0.86887738  0.75535138  1
  O  O207  1  0.50762661  0.36748128  0.25512927  1
  O  O208  1  0.48822397  0.35996694  0.74356278  1
  O  O209  1  0.49899530  0.86495300  0.25855876  1
  O  O210  1  0.49729585  0.85575434  0.74074189  1
  O  O211  1  0.49658344  0.12977589  0.24257685  1
  O  O212  1  0.49625986  0.12835165  0.74195526  1
  O  O213  1  0.49220555  0.62921225  0.24151115  1
  O  O214  1  0.49404154  0.63345590  0.74680011  1
  O  O215  1  1.01253638  0.12145161  0.23830011  1
  O  O216  1  0.98933270  0.12972338  0.74569309  1
  O  O217  1  0.98448224  0.62684338  0.24057947  1
  O  O218  1  0.98821666  0.62966628  0.74198587  1
  O  O219  1  0.38051225  0.24067480  0.01267667  1
  O  O220  1  0.36050138  0.25924297  0.49568842  1
  O  O221  1  0.36147948  0.75670237  0.00458105  1
  O  O222  1  0.37890211  0.77042353  0.50052012  1
  O  O223  1  0.87164884  0.24957559  0.01673692  1
  O  O224  1  0.87118408  0.25809741  0.50708004  1
  O  O225  1  0.86626442  0.75880132  0.00555692  1
  O  O226  1  0.86648660  0.74571361  0.51270059  1
  O  O227  1  0.13578998  0.24393240  0.49796730  1
  O  O228  1  0.12179022  0.24008198  0.98995359  1
  O  O229  1  0.12401544  0.74957187  0.48426107  1
  O  O230  1  0.13421263  0.75674479  0.99523962  1
  O  O231  1  0.63451494  0.25268915  0.49324336  1
  O  O232  1  0.62385991  0.24312673  0.98675986  1
  O  O233  1  0.63543845  0.74651282  0.50403854  1
  O  O234  1  0.63312239  0.74222136  1.00733010  1
  O  O235  1  0.49393008  0.23943427  0.12963063  1
  O  O236  1  0.50513974  0.23910084  0.64187292  1
  O  O237  1  0.49124303  0.74386603  0.13434933  1
  O  O238  1  0.50302431  0.73323564  0.63748832  1
  O  O239  1  0.98986520  0.24546865  0.12318187  1
  O  O240  1  0.99238944  0.24556826  0.63017848  1
  O  O241  1  0.98699589  0.74408284  0.12666681  1
  O  O242  1  0.99389818  0.74319084  0.62942540  1
  O  O243  1  0.00180379  0.26415877  0.37620161  1
  O  O244  1  0.00409936  0.25582970  0.87102637  1
  O  O245  1  0.00055604  0.76197841  0.37264946  1
  O  O246  1  0.00130992  0.75389720  0.87023276  1
  O  O247  1  0.50736144  0.25546958  0.36998307  1
  O  O248  1  0.51156230  0.24903931  0.86498265  1
  O  O249  1  0.48944247  0.75889770  0.36310874  1
  O  O250  1  0.49435011  0.74426505  0.86246352  1
  O  O251  1  0.24829918  0.13112980  0.49937656  1
  O  O252  1  0.23932282  0.12676629  0.99766823  1
  O  O253  1  0.28830989  0.63060560  0.48820076  1
  O  O254  1  0.25416496  0.63513682  0.99085770  1
  O  O255  1  0.75393029  0.14163376  0.49293762  1
  O  O256  1  0.73926773  0.13289155  0.99953784  1
  O  O257  1  0.74816508  0.64007913  0.50021165  1
  O  O258  1  0.73869992  0.63295428  0.99564386  1
  O  O259  1  0.24417327  0.36616335  0.00755679  1
  O  O260  1  0.25460579  0.36742858  0.50438035  1
  O  O261  1  0.25497815  0.86522518  0.00604531  1
  O  O262  1  0.26281153  0.88208972  0.50880442  1
  O  O263  1  0.74260517  0.37748303  0.01305897  1
  O  O264  1  0.76400011  0.36333158  0.49409695  1
  O  O265  1  0.75738454  0.86952701  -0.00697092  1
  O  O266  1  0.74762727  0.86173725  0.51244939  1
  O  O267  1  0.13161127  0.49368479  0.24348481  1
  O  O268  1  0.13843822  0.49791899  0.74693374  1
  O  O269  1  0.13268236  0.98781200  0.25287791  1
  O  O270  1  0.13095880  0.99415065  0.74610366  1
  O  O271  1  0.62903688  0.49363650  0.24099828  1
  O  O272  1  0.63743578  0.50352230  0.74482186  1
  O  O273  1  0.63498981  0.99622823  0.24273186  1
  O  O274  1  0.63446565  0.99725685  0.73917379  1
  O  O275  1  0.37136697  0.00229362  0.25956690  1
  O  O276  1  0.37047503  0.00249128  0.75659375  1
  O  O277  1  0.36733166  0.50338563  0.25041743  1
  O  O278  1  0.36357253  0.50596604  0.75934305  1
  O  O279  1  0.86480125  -0.00376509  0.25773350  1
  O  O280  1  0.87449842  0.00831118  0.75859457  1
  O  O281  1  0.86962299  0.50874324  0.25480062  1
  O  O282  1  0.86250020  0.50657918  0.75238840  1
  O  O283  1  0.11628039  0.37690813  0.36590161  1
  O  O284  1  0.11748118  0.36293140  0.87047517  1
  O  O285  1  0.11644256  0.86866405  0.36941525  1
  O  O286  1  0.11725073  0.86836400  0.87049158  1
  O  O287  1  0.62098963  0.36690738  0.37121238  1
  O  O288  1  0.62530392  0.36462568  0.87900505  1
  O  O289  1  0.60933945  0.88062193  0.37687089  1
  O  O290  1  0.58441865  0.91226495  0.87655975  1
  O  O291  1  0.38477916  0.12780609  0.12954934  1
  O  O292  1  0.38697564  0.11983766  0.63843716  1
  O  O293  1  0.37884975  0.62892672  0.13287982  1
  O  O294  1  0.39069139  0.60689911  0.64037998  1
  O  O295  1  0.88474995  0.13683838  0.12545443  1
  O  O296  1  0.88036058  0.13397510  0.63194751  1
  O  O297  1  0.87883417  0.63306336  0.13056576  1
  O  O298  1  0.88013444  0.62992924  0.63235716  1
  O  O299  1  0.26960019  0.24433805  0.12488921  1
  O  O300  1  0.24438730  0.26124032  0.61751185  1
  O  O301  1  0.25150325  0.75216361  0.11902354  1
  O  O302  1  0.24625257  0.76397462  0.63308219  1
  O  O303  1  0.75793442  0.25791771  0.12372980  1
  O  O304  1  0.76174876  0.24654947  0.61754629  1
  O  O305  1  0.76084429  0.74588891  0.11302435  1
  O  O306  1  0.75507046  0.75631543  0.61730875  1
  O  O307  1  0.24760125  0.24298871  0.38291074  1
  O  O308  1  0.23979927  0.24220649  0.87235622  1
  O  O309  1  0.23846551  0.75044672  0.37136058  1
  O  O310  1  0.24323242  0.74242586  0.88144127  1
  O  O311  1  0.74323189  0.25115168  0.37997548  1
  O  O312  1  0.73595060  0.24995033  0.87344968  1
  O  O313  1  0.75676076  0.75373524  0.39130671  1
  O  O314  1  0.75536353  0.74757807  0.88738290  1
  O  O315  1  0.00844866  0.11993189  0.00869146  1
  O  O316  1  0.00800441  0.12389752  0.50797203  1
  O  O317  1  -0.00782314  0.62573722  0.01185225  1
  O  O318  1  -0.00918307  0.62595631  0.51370691  1
  O  O319  1  0.51210940  0.12686735  0.01183393  1
  O  O320  1  0.49695165  0.13199688  0.51625611  1
  O  O321  1  0.50442234  0.62339709  0.00538075  1
  O  O322  1  0.49038812  0.62933065  0.51736899  1
  O  O323  1  0.48603476  0.36271115  0.49314344  1
  O  O324  1  0.50529190  0.38799210  1.00492995  1
  O  O325  1  0.48952401  0.87789366  0.49602004  1
  O  O326  1  0.48007764  0.86577696  1.00634003  1
  O  O327  1  0.98922219  0.37350426  0.49081182  1
  O  O328  1  1.00448613  0.37890160  0.98410161  1
  O  O329  1  1.00623404  0.87636631  0.48712650  1
  O  O330  1  0.98822384  0.88091491  0.99522493  1
  O  O331  1  0.48595901  0.48673125  0.36420983  1
  O  O332  1  0.48651624  0.50461732  0.88304844  1
  O  O333  1  0.49095666  0.99236768  0.37333447  1
  O  O334  1  0.53158020  0.98149388  0.87636489  1
  O  O335  1  0.98440524  0.49253888  0.37081082  1
  O  O336  1  0.99139810  0.49347683  0.87199163  1
  O  O337  1  0.99167298  0.98920124  0.37647585  1
  O  O338  1  0.98887369  0.99544366  0.88067516  1
  O  O339  1  0.00039407  0.00985226  0.12032210  1
  O  O340  1  0.00551897  0.00529977  0.62565518  1
  O  O341  1  0.00310491  0.50903255  0.12121177  1
  O  O342  1  0.01090518  0.50734011  0.63217925  1
  O  O343  1  0.50980305  0.01034688  0.13550456  1
  O  O344  1  0.50261141  0.01446072  0.62389420  1
  O  O345  1  0.50354639  0.50503648  0.11652668  1
  O  O346  1  0.51583966  0.51048787  0.63738364  1
  O  O347  1  0.24213943  0.38444806  0.24131954  1
  O  O348  1  0.25077479  0.38126973  0.74011577  1
  O  O349  1  0.24415019  0.87765973  0.24648344  1
  O  O350  1  0.24668848  0.88064634  0.74509197  1
  O  O351  1  0.74548057  0.38154955  0.24028022  1
  O  O352  1  0.75156015  0.38701309  0.74658024  1
  O  O353  1  0.74539279  0.89218001  0.25840990  1
  O  O354  1  0.74324791  0.87188051  0.73855186  1
  O  O355  1  0.25566446  0.11775121  0.25664817  1
  O  O356  1  0.26276050  0.11649776  0.75093133  1
  O  O357  1  0.26051292  0.61458222  0.24386321  1
  O  O358  1  0.25572467  0.61735647  0.75513286  1
  O  O359  1  0.74420612  0.10663253  0.25785341  1
  O  O360  1  0.76325274  0.12575973  0.74928803  1
  O  O361  1  0.75907023  0.62066143  0.24665692  1
  O  O362  1  0.75879146  0.62433471  0.74767160  1
  O  O363  1  0.37255048  0.11774488  0.37072815  1
  O  O364  1  0.38481386  0.10909671  0.86783535  1
  O  O365  1  0.38594506  0.61035933  0.35711263  1
  O  O366  1  0.36002542  0.61693144  0.86722852  1
  O  O367  1  0.88419190  0.11068935  0.37369752  1
  O  O368  1  0.87619633  0.11918343  0.86834960  1
  O  O369  1  0.87135796  0.61928202  0.36528697  1
  O  O370  1  0.87403819  0.61701271  0.86128771  1
  O  O371  1  0.11838303  0.38700381  0.13339728  1
  O  O372  1  0.13379849  0.38387082  0.62546594  1
  O  O373  1  0.12730012  0.87546566  0.13602941  1
  O  O374  1  0.13232236  0.87904981  0.63062705  1
  O  O375  1  0.63261218  0.37796313  0.13053388  1
  O  O376  1  0.61739015  0.38809560  0.62390121  1
  O  O377  1  0.61906716  0.88905913  0.12533708  1
  O  O378  1  0.63799022  0.87309215  0.62619600  1
  O  O379  1  0.13446722  0.26511518  0.24881415  1
  O  O380  1  0.11866863  0.24653726  0.75899912  1
  O  O381  1  0.12230475  0.76074171  0.25856971  1
  O  O382  1  0.11804662  0.75469431  0.75692717  1
  O  O383  1  0.62305330  0.25376374  0.25791623  1
  O  O384  1  0.61373808  0.24883369  0.76297840  1
  O  O385  1  0.61162341  0.75092314  0.24138898  1
  O  O386  1  0.61365151  0.75107238  0.75526484  1
  O  O387  1  0.38122442  0.24196219  0.24233265  1
  O  O388  1  0.38962857  0.23599474  0.76246571  1
  O  O389  1  0.37933942  0.74070688  0.24541993  1
  O  O390  1  0.37990150  0.73648933  0.75348595  1
  O  O391  1  0.86955646  0.25119529  0.23362494  1
  O  O392  1  0.87814141  0.24440384  0.74366625  1
  O  O393  1  0.87111354  0.74447752  0.24202683  1
  O  O394  1  0.87845720  0.74178612  0.74200833  1
  O  O395  1  0.36818424  0.48392725  0.48505837  1
  O  O396  1  0.38304265  0.50604080  0.99224823  1
  O  O397  1  0.37925454  0.99777554  0.48951318  1
  O  O398  1  0.37164544  0.98463405  0.99789924  1
  O  O399  1  0.86403116  0.49060295  0.49206498  1
  O  O400  1  0.87150969  0.50928096  0.98180827  1
  O  O401  1  0.87747738  1.00076239  0.48698547  1
  O  O402  1  0.87604899  0.99594964  0.99503429  1
  O  O403  1  0.11822698  0.00823360  0.00031807  1
  O  O404  1  0.12588521  0.00635546  0.50831217  1
  O  O405  1  0.12360616  0.50030203  0.01333415  1
  O  O406  1  0.13299955  0.49980131  0.51013903  1
  O  O407  1  0.63534010  0.01310351  0.01623699  1
  O  O408  1  0.62470775  0.00723334  0.50419270  1
  O  O409  1  0.61513252  0.50962470  0.00259172  1
  O  O410  1  0.63403314  0.50191031  0.51641835  1
  O  O411  1  0.37941078  0.35653599  0.12951446  1
  O  O412  1  0.36138957  0.38715262  0.61352276  1
  O  O413  1  0.36668588  0.86940636  0.11856655  1
  O  O414  1  0.36794490  0.88476139  0.61217781  1
  O  O415  1  0.86790288  0.36627629  0.12817011  1
  O  O416  1  0.88372457  0.36548595  0.61782235  1
  O  O417  1  0.87997036  0.86795585  0.11496216  1
  O  O418  1  0.86378441  0.86238076  0.63335885  1
  O  O419  1  0.13249774  0.12454679  0.38294721  1
  O  O420  1  0.11965735  0.13329378  0.88340363  1
  O  O421  1  0.11697736  0.64022767  0.36397043  1
  O  O422  1  0.13618237  0.62928500  0.86648499  1
  O  O423  1  0.62009767  0.13979391  0.37768674  1
  O  O424  1  0.62689639  0.13105689  0.88533671  1
  O  O425  1  0.62839278  0.61566745  0.37845078  1
  O  O426  1  0.62234681  0.61953605  0.88668461  1
