# generated using pymatgen
data_V85Zn86O256
_symmetry_space_group_name_H-M   'P 1'
_cell_length_a   16.97461297
_cell_length_b   16.97205415
_cell_length_c   16.97932681
_cell_angle_alpha   89.93546284
_cell_angle_beta   90.00849014
_cell_angle_gamma   90.00616042
_symmetry_Int_Tables_number   1
_chemical_formula_structural   V85Zn86O256
_chemical_formula_sum   'V85 Zn86 O256'
_cell_volume   4891.63984855
_cell_formula_units_Z   1
loop_
 _symmetry_equiv_pos_site_id
 _symmetry_equiv_pos_as_xyz
  1  'x, y, z'
loop_
 _atom_site_type_symbol
 _atom_site_label
 _atom_site_symmetry_multiplicity
 _atom_site_fract_x
 _atom_site_fract_y
 _atom_site_fract_z
 _atom_site_occupancy
  V  V0  1  0.87385151  0.64245728  0.24125829  1
  V  V1  1  0.87245389  0.25848163  0.62496427  1
  V  V2  1  0.36659931  0.50701473  0.36725495  1
  V  V3  1  0.87698892  0.87497883  0.50287307  1
  V  V4  1  0.49364132  0.24994074  0.24699008  1
  V  V5  1  0.37494681  0.75383036  0.62322804  1
  V  V6  1  -0.00337846  0.25692581  0.25652092  1
  V  V7  1  0.00162960  0.37672588  0.87800018  1
  V  V8  1  0.62666208  0.74929998  0.37691422  1
  V  V9  1  0.86901196  0.24958293  0.11953794  1
  V  V10  1  0.24921355  0.02107520  0.25672943  1
  V  V11  1  0.12731913  0.37459111  0.74803252  1
  V  V12  1  0.48955381  0.62753514  0.13012243  1
  V  V13  1  0.87547532  0.00291236  0.37704593  1
  V  V14  1  0.00787083  0.86767316  0.36725794  1
  V  V15  1  0.37584529  0.62013472  0.74929609  1
  V  V16  1  0.25436028  0.74745710  0.00145377  1
  V  V17  1  0.50017872  0.38313160  0.37564228  1
  V  V18  1  0.75284385  -0.00019219  0.75394103  1
  V  V19  1  0.25249445  0.24201268  0.49408832  1
  V  V20  1  -0.01135197  0.62865952  0.11906464  1
  V  V21  1  0.74812035  0.25060666  0.50158926  1
  V  V22  1  0.00254572  0.24576569  0.74211198  1
  V  V23  1  0.50397233  0.12611943  0.63480242  1
  V  V24  1  0.11585410  0.61581987  -0.00386453  1
  V  V25  1  0.75197560  0.48572630  0.73467848  1
  V  V26  1  0.37396257  0.37875987  -0.00649363  1
  V  V27  1  0.00062161  0.00868295  0.50590879  1
  V  V28  1  0.75299669  0.62403476  0.37205285  1
  V  V29  1  0.87727704  -0.00145429  0.87863392  1
  V  V30  1  0.87530468  0.37377137  -0.00321280  1
  V  V31  1  0.12038076  0.37910438  0.25451396  1
  V  V32  1  0.61915888  -0.00103532  0.12567106  1
  V  V33  1  0.12688614  0.50026687  0.62038522  1
  V  V34  1  0.87824170  0.62324118  0.75009051  1
  V  V35  1  0.62853482  0.00493585  0.62570600  1
  V  V36  1  0.74670001  0.37273252  0.11644478  1
  V  V37  1  -0.00130360  0.12550245  0.12588023  1
  V  V38  1  0.49316917  0.50430345  -0.00569574  1
  V  V39  1  0.00329140  0.62604595  0.62271137  1
  V  V40  1  0.50316504  0.62062778  0.61917391  1
  V  V41  1  0.12618992  0.74927119  0.87365205  1
  V  V42  1  0.25248891  0.50158509  0.74766213  1
  V  V43  1  0.37471217  0.86990067  0.00510418  1
  V  V44  1  0.37892715  0.38157907  0.49659321  1
  V  V45  1  0.87189983  0.12648388  0.25220360  1
  V  V46  1  0.00279658  0.49706889  0.48815474  1
  V  V47  1  0.50217623  0.87028551  0.87972399  1
  V  V48  1  0.62992141  0.87129946  0.75711162  1
  V  V49  1  0.50001216  0.87820019  0.38136922  1
  V  V50  1  0.87830072  0.49865564  0.87337689  1
  V  V51  1  0.12627011  0.12560250  0.00326180  1
  V  V52  1  0.12755122  0.24584752  0.37429831  1
  V  V53  1  -0.00234410  -0.00590270  0.00195226  1
  V  V54  1  0.87773151  0.37643192  0.49079003  1
  V  V55  1  0.50414537  0.00459885  0.50426192  1
  V  V56  1  0.75323661  0.50223008  0.24570643  1
  V  V57  1  0.36901845  0.24697455  0.12469626  1
  V  V58  1  0.49588109  0.74981701  0.24766891  1
  V  V59  1  0.75302954  0.74959062  0.50387699  1
  V  V60  1  0.12949607  0.63005198  0.48790442  1
  V  V61  1  0.12996251  0.24961564  0.87905538  1
  V  V62  1  0.88058320  0.12490168  0.74325653  1
  V  V63  1  0.12245918  0.00920392  0.62747755  1
  V  V64  1  0.25631762  0.62001145  0.87400807  1
  V  V65  1  0.62471368  0.24703507  0.37686318  1
  V  V66  1  0.25513187  0.00062946  0.75243459  1
  V  V67  1  0.62482363  0.87810805  0.25061710  1
  V  V68  1  0.38060383  0.24807218  0.63031352  1
  V  V69  1  0.72402142  0.62099558  0.87065092  1
  V  V70  1  0.25286879  0.12587401  0.88092635  1
  V  V71  1  0.74785701  0.00151749  0.25354673  1
  V  V72  1  0.62199113  0.50932728  0.11826251  1
  V  V73  1  0.62429151  0.61752242  0.50120977  1
  V  V74  1  0.62478065  0.37731942  0.24763215  1
  V  V75  1  0.76049624  0.86908869  0.11761723  1
  V  V76  1  0.24867990  0.74995591  0.49291265  1
  V  V77  1  0.62890548  0.13361370  0.00237345  1
  V  V78  1  0.00254320  0.74927597  0.75038148  1
  V  V79  1  0.00011908  0.87449468  0.87851480  1
  V  V80  1  0.12727720  0.87595693  0.75099935  1
  V  V81  1  0.25318636  0.37470301  0.62339625  1
  V  V82  1  0.24727809  0.37839526  0.12421960  1
  V  V83  1  0.50701817  0.74607368  0.75374028  1
  V  V84  1  0.24520984  0.86835307  0.13551707  1
  Zn  Zn85  1  0.24952795  0.87711316  0.62402407  1
  Zn  Zn86  1  0.88331981  0.49727091  0.36501221  1
  Zn  Zn87  1  0.11959104  -0.00893107  0.13663973  1
  Zn  Zn88  1  0.74369922  0.74254502  -0.00347212  1
  Zn  Zn89  1  0.37665286  0.00022363  0.87929731  1
  Zn  Zn90  1  0.62381169  0.25620524  0.86959207  1
  Zn  Zn91  1  0.23894713  0.51099960  0.25071088  1
  Zn  Zn92  1  0.63301595  0.48420077  0.61469531  1
  Zn  Zn93  1  0.37284221  0.87984738  0.50135701  1
  Zn  Zn94  1  0.87628504  0.75133263  0.62997536  1
  Zn  Zn95  1  0.75507071  0.13296582  0.88481134  1
  Zn  Zn96  1  0.13904713  0.75551556  0.34285784  1
  Zn  Zn97  1  0.74161843  0.12290476  0.38054953  1
  Zn  Zn98  1  0.59433180  0.36207985  0.75264399  1
  Zn  Zn99  1  0.48948043  0.11910673  0.12547631  1
  Zn  Zn100  1  0.35312501  0.64383391  0.25226097  1
  Zn  Zn101  1  0.36232597  0.01863940  0.37908595  1
  Zn  Zn102  1  0.49696261  0.00051273  0.00126961  1
  Zn  Zn103  1  0.38320694  0.13300181  0.76160656  1
  Zn  Zn104  1  0.12772482  0.12525091  0.49980958  1
  Zn  Zn105  1  0.11392837  0.49506990  0.11734746  1
  Zn  Zn106  1  0.75141138  0.87358273  0.63021963  1
  Zn  Zn107  1  0.18598010  0.19173072  0.18739170  1
  Zn  Zn108  1  0.19436941  0.18785682  0.68925858  1
  Zn  Zn109  1  0.17647784  0.68612067  0.18227961  1
  Zn  Zn110  1  0.18820458  0.68834036  0.68192707  1
  Zn  Zn111  1  0.68242876  0.18628989  0.18997868  1
  Zn  Zn112  1  0.69215156  0.19178697  0.69253112  1
  Zn  Zn113  1  0.68381767  0.69096177  0.18442391  1
  Zn  Zn114  1  0.69054758  0.68074313  0.68948643  1
  Zn  Zn115  1  0.30931283  0.31545108  0.30971983  1
  Zn  Zn116  1  0.31532688  0.31410558  0.81255831  1
  Zn  Zn117  1  0.31717779  0.82214259  0.31823942  1
  Zn  Zn118  1  0.31625328  0.81010553  0.81438586  1
  Zn  Zn119  1  0.80956326  0.31391619  0.31130531  1
  Zn  Zn120  1  0.80436633  0.30715594  0.81566742  1
  Zn  Zn121  1  0.81294391  0.81777291  0.31627002  1
  Zn  Zn122  1  0.82080253  0.79491350  0.84415707  1
  Zn  Zn123  1  0.18834306  0.43337481  0.43567840  1
  Zn  Zn124  1  0.19368210  0.43651277  0.93567202  1
  Zn  Zn125  1  0.18669400  0.93711381  0.43817561  1
  Zn  Zn126  1  0.18609260  0.93820567  0.94095940  1
  Zn  Zn127  1  0.69410100  0.43311732  0.43460013  1
  Zn  Zn128  1  0.68434824  0.44180814  0.93204323  1
  Zn  Zn129  1  0.68673959  0.93769361  0.43957394  1
  Zn  Zn130  1  0.68640006  0.94090382  0.94006554  1
  Zn  Zn131  1  0.30891567  0.05424430  0.06679615  1
  Zn  Zn132  1  0.31784496  0.06217723  0.56717466  1
  Zn  Zn133  1  0.30926318  0.56172301  0.06844984  1
  Zn  Zn134  1  0.31427410  0.56533189  0.55898980  1
  Zn  Zn135  1  0.80909631  0.05720290  0.06674892  1
  Zn  Zn136  1  0.81252536  0.06711544  0.56453698  1
  Zn  Zn137  1  0.81040780  0.56123990  0.05302935  1
  Zn  Zn138  1  0.81830493  0.56251959  0.55942514  1
  Zn  Zn139  1  0.43512984  0.43699813  0.18591582  1
  Zn  Zn140  1  0.45666485  0.42621107  0.67344190  1
  Zn  Zn141  1  0.42902917  0.93553301  0.19089818  1
  Zn  Zn142  1  0.44121657  0.93748572  0.69265937  1
  Zn  Zn143  1  0.93982095  0.44294843  0.17840594  1
  Zn  Zn144  1  0.94195259  0.43624625  0.68339651  1
  Zn  Zn145  1  0.93661538  0.93829949  0.18938416  1
  Zn  Zn146  1  0.94027859  0.93602445  0.68874710  1
  Zn  Zn147  1  0.06233094  0.06033319  0.31448963  1
  Zn  Zn148  1  0.06465490  0.06266183  0.81431501  1
  Zn  Zn149  1  0.06109407  0.57482739  0.30384164  1
  Zn  Zn150  1  0.06580868  0.56148978  0.81103477  1
  Zn  Zn151  1  0.52641521  0.08237489  0.32903996  1
  Zn  Zn152  1  0.56429881  0.06053124  0.81851715  1
  Zn  Zn153  1  0.56329462  0.56342065  0.31151005  1
  Zn  Zn154  1  0.55091856  0.53013089  0.79777533  1
  Zn  Zn155  1  0.43945362  0.18992498  0.44424706  1
  Zn  Zn156  1  0.44508333  0.19148050  0.94420287  1
  Zn  Zn157  1  0.43770778  0.68858118  0.43651505  1
  Zn  Zn158  1  0.44214921  0.68436198  0.93886341  1
  Zn  Zn159  1  0.93637608  0.18865260  0.43710100  1
  Zn  Zn160  1  0.94038625  0.18641933  0.93518417  1
  Zn  Zn161  1  0.93771913  0.68428002  0.43281591  1
  Zn  Zn162  1  0.93169684  0.69156145  0.94320317  1
  Zn  Zn163  1  0.05965295  0.31061542  0.06422144  1
  Zn  Zn164  1  0.06297024  0.31359639  0.55894514  1
  Zn  Zn165  1  0.06511524  0.80562984  0.06663380  1
  Zn  Zn166  1  0.06471090  0.81652234  0.56283932  1
  Zn  Zn167  1  0.55556210  0.31674966  0.05753833  1
  Zn  Zn168  1  0.56409126  0.30979457  0.56097772  1
  Zn  Zn169  1  0.56975535  0.80423782  0.06124838  1
  Zn  Zn170  1  0.56578319  0.81264376  0.56770388  1
  O  O171  1  0.11808508  0.13041557  0.11495202  1
  O  O172  1  0.13075729  0.11328681  0.62620932  1
  O  O173  1  0.11003666  0.62081165  0.10969016  1
  O  O174  1  0.12154963  0.61868343  0.61524910  1
  O  O175  1  0.62628083  0.11261324  0.11974340  1
  O  O176  1  0.62083013  0.11145852  0.63568014  1
  O  O177  1  0.61597503  0.61442924  0.12917731  1
  O  O178  1  0.61961624  0.62250116  0.61650795  1
  O  O179  1  0.38085958  0.38254407  0.37870433  1
  O  O180  1  0.36525658  0.37208991  0.89474437  1
  O  O181  1  0.39264303  0.88513440  0.37850240  1
  O  O182  1  0.38459498  0.87369846  0.88429489  1
  O  O183  1  0.87408717  0.37758471  0.38466339  1
  O  O184  1  0.88245822  0.37707790  0.87891349  1
  O  O185  1  0.88053969  0.88276948  0.38673542  1
  O  O186  1  0.88400300  0.89350434  0.86484711  1
  O  O187  1  0.24804986  -0.00073306  0.36341164  1
  O  O188  1  0.24876393  0.00895523  0.86880230  1
  O  O189  1  0.26312424  0.49527875  0.37225758  1
  O  O190  1  0.24675224  0.51248914  0.86431486  1
  O  O191  1  0.75473945  0.00209645  0.37208513  1
  O  O192  1  0.75990550  0.00230029  0.86850342  1
  O  O193  1  0.75027555  0.50532220  0.35943557  1
  O  O194  1  0.76306793  0.50461676  0.85944247  1
  O  O195  1  0.24053466  0.48950657  0.12880074  1
  O  O196  1  0.24648948  0.49456616  0.62670467  1
  O  O197  1  0.24621561  0.98714835  0.13851537  1
  O  O198  1  0.24468843  0.99970234  0.63658315  1
  O  O199  1  0.74188223  0.49500756  0.12705519  1
  O  O200  1  0.75658018  0.49909640  0.63051389  1
  O  O201  1  0.73996086  0.99012214  0.13570836  1
  O  O202  1  0.74623258  0.99910287  0.63587902  1
  O  O203  1  0.00581291  0.36556242  0.23945825  1
  O  O204  1  0.00747503  0.36544930  0.75638525  1
  O  O205  1  -0.00533614  0.88433711  0.26922549  1
  O  O206  1  0.00757677  0.86968909  0.75752241  1
  O  O207  1  0.50532701  0.36970336  0.25566889  1
  O  O208  1  0.50264224  0.42850116  0.77300022  1
  O  O209  1  0.50777116  0.87110038  0.25869102  1
  O  O210  1  0.50802934  0.86617602  0.75904153  1
  O  O211  1  0.51238204  0.14695469  0.23565570  1
  O  O212  1  0.49744811  0.11306036  0.74022276  1
  O  O213  1  0.50295699  0.63689159  0.24685694  1
  O  O214  1  0.49430636  0.62981186  0.74143041  1
  O  O215  1  0.99255731  0.13375927  0.24474817  1
  O  O216  1  0.99363317  0.13562296  0.75797671  1
  O  O217  1  0.98576319  0.62219603  0.23103839  1
  O  O218  1  0.99756599  0.62840305  0.74320189  1
  O  O219  1  0.38184657  0.26788448  0.01644835  1
  O  O220  1  0.36933720  0.25814094  0.50566985  1
  O  O221  1  0.36374368  0.75529310  -0.00637670  1
  O  O222  1  0.36772956  0.75005107  0.50714136  1
  O  O223  1  0.87971491  0.25756556  0.00961703  1
  O  O224  1  0.87405047  0.25815765  0.50574985  1
  O  O225  1  0.84742465  0.76109647  -0.04598131  1
  O  O226  1  0.86776133  0.75654296  0.50033759  1
  O  O227  1  0.13339994  0.25027856  0.49290212  1
  O  O228  1  0.11587526  0.23971001  0.98832331  1
  O  O229  1  0.13550221  0.74309116  0.50706541  1
  O  O230  1  0.13460994  0.73806898  0.99145390  1
  O  O231  1  0.63630223  0.26050892  0.48984510  1
  O  O232  1  0.62273800  0.23439364  1.01341163  1
  O  O233  1  0.63714249  0.74431579  0.49802701  1
  O  O234  1  0.63353261  0.75384452  0.98962075  1
  O  O235  1  0.48463000  0.25948704  0.13282064  1
  O  O236  1  0.49051782  0.23622936  0.61481846  1
  O  O237  1  0.50666504  0.74118698  0.13713191  1
  O  O238  1  0.49397366  0.74376690  0.63311044  1
  O  O239  1  0.98790540  0.24538224  0.13307534  1
  O  O240  1  0.99511654  0.25410460  0.63609563  1
  O  O241  1  0.99477153  0.72989600  0.11001998  1
  O  O242  1  1.00004767  0.74494197  0.63228593  1
  O  O243  1  0.00507955  0.24910317  0.36236659  1
  O  O244  1  0.00898516  0.25775158  0.86505075  1
  O  O245  1  -0.00491643  0.76711856  0.38038270  1
  O  O246  1  0.00768478  0.75501874  0.86962517  1
  O  O247  1  0.50622659  0.26319184  0.36707098  1
  O  O248  1  0.51078246  0.25421877  0.88282808  1
  O  O249  1  0.50771550  0.75978843  0.37142847  1
  O  O250  1  0.49575552  0.75588323  0.86302159  1
  O  O251  1  0.25318950  0.13818462  0.50443951  1
  O  O252  1  0.23786546  0.11536057  0.99211274  1
  O  O253  1  0.24074363  0.63549609  0.50315327  1
  O  O254  1  0.24713205  0.62933044  0.99231748  1
  O  O255  1  0.75868554  0.14318945  0.49647313  1
  O  O256  1  0.73453954  0.11588631  1.00376952  1
  O  O257  1  0.74769371  0.63278747  0.49427809  1
  O  O258  1  0.74857389  0.61639355  0.97348340  1
  O  O259  1  0.26093208  0.38173204  0.01118460  1
  O  O260  1  0.25956218  0.36587613  0.50470994  1
  O  O261  1  0.25718203  0.86563246  -0.00050634  1
  O  O262  1  0.25366674  0.86721506  0.50500059  1
  O  O263  1  0.75755540  0.38209161  0.01021879  1
  O  O264  1  0.76309124  0.36405075  0.49728070  1
  O  O265  1  0.74906189  0.88513114  0.01778738  1
  O  O266  1  0.75952362  0.86645150  0.50104075  1
  O  O267  1  0.11823985  0.48856728  0.24984610  1
  O  O268  1  0.13202734  0.49408651  0.74120421  1
  O  O269  1  0.13972446  1.00618608  0.24976311  1
  O  O270  1  0.13295597  0.99721667  0.74642071  1
  O  O271  1  0.63456766  0.49699481  0.24083762  1
  O  O272  1  0.64929753  0.49801868  0.73780145  1
  O  O273  1  0.62769632  0.99027592  0.24561440  1
  O  O274  1  0.63560540  0.99257633  0.74763072  1
  O  O275  1  0.35353920  -0.00716169  0.25285616  1
  O  O276  1  0.36438965  0.00080123  0.75444087  1
  O  O277  1  0.37112254  0.49666274  0.26307775  1
  O  O278  1  0.36751502  0.51768548  0.73607797  1
  O  O279  1  0.86765335  0.00738558  0.25694934  1
  O  O280  1  0.87293660  0.00721136  0.75476340  1
  O  O281  1  0.86246839  0.50355348  0.24461558  1
  O  O282  1  0.87439807  0.50456769  0.75216574  1
  O  O283  1  0.12726320  0.36348237  0.36383873  1
  O  O284  1  0.12191015  0.36803617  0.87070819  1
  O  O285  1  0.11104387  0.87021881  0.38175653  1
  O  O286  1  0.12059652  0.86967321  0.87076260  1
  O  O287  1  0.61832814  0.37203685  0.36841360  1
  O  O288  1  0.63326996  0.37363012  0.86341835  1
  O  O289  1  0.62170993  0.86857105  0.36896296  1
  O  O290  1  0.61792949  0.88056876  0.86504268  1
  O  O291  1  0.37010249  0.14336783  0.11483985  1
  O  O292  1  0.38389563  0.13303704  0.63112908  1
  O  O293  1  0.38548455  0.61889222  0.13758994  1
  O  O294  1  0.38102064  0.63704012  0.62781599  1
  O  O295  1  0.87668438  0.13245566  0.13024472  1
  O  O296  1  0.87676015  0.13518331  0.63712095  1
  O  O297  1  0.87921197  0.62082928  0.12413826  1
  O  O298  1  0.88368487  0.62591443  0.63505199  1
  O  O299  1  0.26115512  0.26161962  0.13129315  1
  O  O300  1  0.25948623  0.25539188  0.61692790  1
  O  O301  1  0.24434222  0.75822270  0.11011936  1
  O  O302  1  0.26072716  0.75279678  0.61842979  1
  O  O303  1  0.75916865  0.26092311  0.13320951  1
  O  O304  1  0.76343287  0.24691460  0.61702729  1
  O  O305  1  0.74426268  0.76544904  0.12284685  1
  O  O306  1  0.75343375  0.75005503  0.61562322  1
  O  O307  1  0.24291701  0.25558580  0.38388926  1
  O  O308  1  0.23813617  0.24089917  0.86825024  1
  O  O309  1  0.24904548  0.75982430  0.38756326  1
  O  O310  1  0.24558355  0.73985453  0.88003895  1
  O  O311  1  0.74046608  0.25097658  0.37979954  1
  O  O312  1  0.73967544  0.24378524  0.87690887  1
  O  O313  1  0.74679312  0.74504235  0.38429601  1
  O  O314  1  0.73082242  0.72057255  0.84892003  1
  O  O315  1  0.00708249  0.11724276  0.00461588  1
  O  O316  1  0.00033054  0.11196007  0.49719427  1
  O  O317  1  0.00546472  0.62497096  -0.00048390  1
  O  O318  1  0.00722742  0.61881861  0.50398811  1
  O  O319  1  0.51096677  0.11882956  0.00987834  1
  O  O320  1  0.50314878  0.11160142  0.51786848  1
  O  O321  1  0.48876781  0.61438286  0.01643336  1
  O  O322  1  0.51628278  0.63825822  0.50531511  1
  O  O323  1  0.48792565  0.36743412  0.48619599  1
  O  O324  1  0.48482977  0.39148083  1.00739141  1
  O  O325  1  0.50153786  0.88000932  0.49663788  1
  O  O326  1  0.49082096  0.86752407  0.99476262  1
  O  O327  1  0.99425297  0.38706582  0.50185099  1
  O  O328  1  0.99124263  0.36879095  0.98747613  1
  O  O329  1  0.99123148  0.88391624  0.49589926  1
  O  O330  1  1.00892838  0.88721085  0.99602306  1
  O  O331  1  0.49190316  0.48869851  0.36762749  1
  O  O332  1  0.49139671  0.51705485  0.89834635  1
  O  O333  1  0.52071154  0.98625264  0.39162952  1
  O  O334  1  0.49744121  0.98314231  0.87770027  1
  O  O335  1  1.00187068  0.50906083  0.38497288  1
  O  O336  1  0.99351599  0.48462290  0.86282773  1
  O  O337  1  0.99566144  0.99200326  0.38670044  1
  O  O338  1  0.99638063  0.99627350  0.88282055  1
  O  O339  1  0.00053042  0.00558817  0.11869251  1
  O  O340  1  0.01013103  -0.00447024  0.61820552  1
  O  O341  1  -0.00058522  0.51450074  0.11627369  1
  O  O342  1  0.00843388  0.50567921  0.61441719  1
  O  O343  1  0.50723310  -0.00227709  0.13034575  1
  O  O344  1  0.50878395  0.00315345  0.62305563  1
  O  O345  1  0.50660645  0.50889526  0.12715046  1
  O  O346  1  0.49188689  0.52204038  0.61570161  1
  O  O347  1  0.23587154  0.37764787  0.24199809  1
  O  O348  1  0.24689345  0.38085697  0.74382555  1
  O  O349  1  0.24868940  0.86151787  0.23514166  1
  O  O350  1  0.24580650  0.88429745  0.75365325  1
  O  O351  1  0.74664685  0.38457272  0.23782532  1
  O  O352  1  0.76706985  0.38735394  0.74440227  1
  O  O353  1  0.74006472  0.88001478  0.24760803  1
  O  O354  1  0.74494143  0.88422703  0.75484005  1
  O  O355  1  0.25325302  0.12010582  0.24680825  1
  O  O356  1  0.25281073  0.11707020  0.76302259  1
  O  O357  1  0.24420195  0.62365379  0.24480349  1
  O  O358  1  0.25611086  0.62359603  0.75457658  1
  O  O359  1  0.75396559  0.11919901  0.25353107  1
  O  O360  1  0.76213878  0.11266652  0.75217460  1
  O  O361  1  0.75436494  0.61947681  0.24934215  1
  O  O362  1  0.76263311  0.61050542  0.75259444  1
  O  O363  1  0.42092975  0.11277785  0.36809710  1
  O  O364  1  0.36496159  0.12700169  0.88137711  1
  O  O365  1  0.38237208  0.60974200  0.37269460  1
  O  O366  1  0.36513307  0.63245581  0.86299391  1
  O  O367  1  0.87336044  0.11969940  0.36838311  1
  O  O368  1  0.87707326  0.11578387  0.86532674  1
  O  O369  1  0.87034523  0.62131530  0.36017404  1
  O  O370  1  0.88488092  0.61054311  0.86106509  1
  O  O371  1  0.13003057  0.37220292  0.13098258  1
  O  O372  1  0.13270279  0.37934241  0.62836635  1
  O  O373  1  0.14165309  0.87672746  0.11315535  1
  O  O374  1  0.12760325  0.88738745  0.63389030  1
  O  O375  1  0.63122008  0.38258127  0.12753589  1
  O  O376  1  0.57931599  0.38748638  0.63763878  1
  O  O377  1  0.62867336  0.88132716  0.13651925  1
  O  O378  1  0.62745989  0.88432237  0.64035839  1
  O  O379  1  0.11590557  0.25727453  0.25503977  1
  O  O380  1  0.12065236  0.25358839  0.75639696  1
  O  O381  1  0.10583866  0.74722906  0.23920545  1
  O  O382  1  0.12259869  0.75471467  0.75381055  1
  O  O383  1  0.61971203  0.26092262  0.25586700  1
  O  O384  1  0.62089788  0.25147422  0.75008981  1
  O  O385  1  0.61818268  0.75973005  0.25667120  1
  O  O386  1  0.61479617  0.75750038  0.73939063  1
  O  O387  1  0.38205303  0.25913748  0.23827373  1
  O  O388  1  0.37158467  0.25223934  0.73490613  1
  O  O389  1  0.39196173  0.75422092  0.26069394  1
  O  O390  1  0.38344197  0.74148203  0.74194236  1
  O  O391  1  0.87952669  0.24866920  0.24203377  1
  O  O392  1  0.88285086  0.24507794  0.74375042  1
  O  O393  1  0.86524575  0.74091435  0.24927017  1
  O  O394  1  0.88313848  0.73786199  0.75450630  1
  O  O395  1  0.36927561  0.48878632  0.48803774  1
  O  O396  1  0.38173755  0.49059133  1.01021955  1
  O  O397  1  0.38870712  0.99792470  0.50120304  1
  O  O398  1  0.37629912  0.98581616  0.99995885  1
  O  O399  1  0.88500280  0.49367397  0.49520036  1
  O  O400  1  0.87174134  0.48651150  0.98402243  1
  O  O401  1  0.88033295  0.99418926  0.49965886  1
  O  O402  1  0.88713030  1.00973633  0.99137742  1
  O  O403  1  0.11443254  0.01097208  0.00113579  1
  O  O404  1  0.11888835  0.00283994  0.50956406  1
  O  O405  1  0.12983756  0.51238411  -0.00613645  1
  O  O406  1  0.12209054  0.50728078  0.50008677  1
  O  O407  1  0.61925438  0.00152606  0.01417227  1
  O  O408  1  0.62062635  -0.00898597  0.51740625  1
  O  O409  1  0.60769617  0.49199483  0.01053334  1
  O  O410  1  0.63743822  0.51307642  0.49891061  1
  O  O411  1  0.36319615  0.37098245  0.12223331  1
  O  O412  1  0.37536932  0.36851642  0.61501871  1
  O  O413  1  0.35971604  0.87473201  0.11464345  1
  O  O414  1  0.37817367  0.86272188  0.62753406  1
  O  O415  1  0.86814661  0.36958908  0.11519786  1
  O  O416  1  0.88223679  0.36458177  0.61335567  1
  O  O417  1  0.85875955  0.87971979  0.13299686  1
  O  O418  1  0.87377083  0.87295645  0.61548735  1
  O  O419  1  0.12031534  0.14168453  0.37692731  1
  O  O420  1  0.13113199  0.13165912  0.88261493  1
  O  O421  1  0.11753131  0.63685883  0.38563478  1
  O  O422  1  0.13386776  0.62924040  0.87721136  1
  O  O423  1  0.61986134  0.14391261  0.37151211  1
  O  O424  1  0.62480618  0.11901099  0.89576459  1
  O  O425  1  0.63196189  0.62961462  0.38166704  1
  O  O426  1  0.62823056  0.59906901  0.86037158  1
