# generated using pymatgen
data_V85Zn86O256
_symmetry_space_group_name_H-M   'P 1'
_cell_length_a   16.99034217
_cell_length_b   16.99732388
_cell_length_c   16.99148422
_cell_angle_alpha   90.17627921
_cell_angle_beta   90.14851693
_cell_angle_gamma   90.09127366
_symmetry_Int_Tables_number   1
_chemical_formula_structural   V85Zn86O256
_chemical_formula_sum   'V85 Zn86 O256'
_cell_volume   4906.93065614
_cell_formula_units_Z   1
loop_
 _symmetry_equiv_pos_site_id
 _symmetry_equiv_pos_as_xyz
  1  'x, y, z'
loop_
 _atom_site_type_symbol
 _atom_site_label
 _atom_site_symmetry_multiplicity
 _atom_site_fract_x
 _atom_site_fract_y
 _atom_site_fract_z
 _atom_site_occupancy
  V  V0  1  0.12608014  0.37329711  0.24676592  1
  V  V1  1  0.63312107  0.50848371  0.12631935  1
  V  V2  1  0.87170020  0.24866089  0.62364195  1
  V  V3  1  0.49545645  0.13020953  0.62726587  1
  V  V4  1  0.11483608  0.00415422  0.61913529  1
  V  V5  1  0.74601642  0.37462474  0.62662932  1
  V  V6  1  0.87370789  0.00553009  0.87565508  1
  V  V7  1  0.12499538  0.50175877  0.11667627  1
  V  V8  1  0.74980641  0.75170231  0.49965512  1
  V  V9  1  0.61771654  0.62744583  0.00153256  1
  V  V10  1  0.25706664  0.86899142  0.12713138  1
  V  V11  1  0.64860774  0.13036974  -0.00532189  1
  V  V12  1  0.49946855  0.75021668  0.74768630  1
  V  V13  1  0.62537612  0.87636654  0.74943923  1
  V  V14  1  0.62594725  0.75135945  0.87329727  1
  V  V15  1  0.25780554  0.37094726  0.12505000  1
  V  V16  1  0.62307694  0.62443321  0.49881755  1
  V  V17  1  0.24077636  0.74877322  0.49591652  1
  V  V18  1  0.11612979  -0.00083687  0.12046101  1
  V  V19  1  0.75248940  0.75172528  -0.00086019  1
  V  V20  1  0.37482484  0.13281314  0.74708276  1
  V  V21  1  0.24983416  0.62175184  0.87484963  1
  V  V22  1  -0.00319584  0.38020194  0.37805076  1
  V  V23  1  0.49990017  0.88230296  0.87816538  1
  V  V24  1  0.37393944  0.74836783  0.62390549  1
  V  V25  1  0.37849977  0.13211213  0.24874330  1
  V  V26  1  0.87282696  0.12088946  0.25255018  1
  V  V27  1  0.87449258  0.50210552  0.87297131  1
  V  V28  1  0.37427420  0.00112208  0.37665279  1
  V  V29  1  0.38057288  0.37434007  -0.00404926  1
  V  V30  1  0.75542719  0.87835384  0.12314795  1
  V  V31  1  0.87429431  0.74664852  0.62755180  1
  V  V32  1  -0.00092529  0.24958637  0.24158070  1
  V  V33  1  -0.00297240  0.24699049  0.75029847  1
  V  V34  1  0.25305177  0.24713763  0.00450865  1
  V  V35  1  0.74907286  0.61665318  0.37012920  1
  V  V36  1  0.86099243  0.37137911  0.00524035  1
  V  V37  1  0.61695368  0.26022699  0.37190244  1
  V  V38  1  0.75138591  0.00534897  0.75356874  1
  V  V39  1  0.24784147  0.12856900  0.38506296  1
  V  V40  1  0.12640049  0.24442127  0.38358194  1
  V  V41  1  0.12432707  0.24890434  0.87543109  1
  V  V42  1  0.49055282  0.12946606  0.11234707  1
  V  V43  1  0.12365146  0.74370946  0.88296627  1
  V  V44  1  0.88144632  0.88151603  0.00320973  1
  V  V45  1  0.49865560  0.49289935  0.49499264  1
  V  V46  1  0.62704470  0.00093633  0.62395488  1
  V  V47  1  0.88454822  0.87816547  0.48687248  1
  V  V48  1  0.25044318  0.00027701  0.24899841  1
  V  V49  1  0.12045181  0.61614828  0.49730077  1
  V  V50  1  0.25046420  -0.00158094  0.75151314  1
  V  V51  1  0.12312150  0.86981389  0.26160992  1
  V  V52  1  0.74539827  0.12504277  0.37371177  1
  V  V53  1  0.00087754  0.88006168  0.87951803  1
  V  V54  1  0.60853438  0.86115549  0.23085122  1
  V  V55  1  0.63246437  0.37921650  0.23578418  1
  V  V56  1  0.37956546  0.49659824  0.37163062  1
  V  V57  1  0.61991701  0.74949877  0.37066459  1
  V  V58  1  0.37338002  0.87364670  0.49990706  1
  V  V59  1  0.62039771  0.49503021  0.62961398  1
  V  V60  1  0.24560843  0.62764967  0.37236136  1
  V  V61  1  0.24971523  0.12261477  0.87592686  1
  V  V62  1  0.00483238  0.75058927  0.26297685  1
  V  V63  1  0.49794497  0.62573119  0.62409342  1
  V  V64  1  0.62071725  0.00439120  0.11679158  1
  V  V65  1  0.87807390  0.75115123  0.12582539  1
  V  V66  1  0.12429426  0.87200798  0.75127064  1
  V  V67  1  0.36515982  0.36690216  0.50188958  1
  V  V68  1  0.24829505  0.87319688  0.62514267  1
  V  V69  1  0.49943986  0.00016764  0.50207266  1
  V  V70  1  -0.00525768  0.74279157  0.75160859  1
  V  V71  1  0.38694098  0.63651880  0.23708633  1
  V  V72  1  0.00527735  0.62506739  0.11971298  1
  V  V73  1  0.63593114  0.25464225  0.87321718  1
  V  V74  1  0.74820884  -0.00404607  0.25337397  1
  V  V75  1  0.74590127  0.49976130  0.75046457  1
  V  V76  1  0.37720584  0.87731501  0.00081023  1
  V  V77  1  0.87268699  0.61751792  0.24926750  1
  V  V78  1  -0.00005642  0.37414472  0.87873904  1
  V  V79  1  0.49891908  0.87356760  0.37119191  1
  V  V80  1  0.25342692  0.50076936  0.24681009  1
  V  V81  1  0.85783734  0.25362933  0.12408569  1
  V  V82  1  -0.00138363  0.61815652  0.62112743  1
  V  V83  1  0.75417159  0.62680674  0.87123170  1
  V  V84  1  0.25021792  0.74541682  0.00314273  1
  Zn  Zn85  1  0.11670016  0.11480910  -0.00255029  1
  Zn  Zn86  1  0.75363857  0.87730164  0.62260919  1
  Zn  Zn87  1  0.00149334  0.50360433  -0.00238349  1
  Zn  Zn88  1  0.37235626  0.62362648  0.74919459  1
  Zn  Zn89  1  0.74980770  0.25151604  0.49640494  1
  Zn  Zn90  1  -0.00842392  0.11613819  0.11818851  1
  Zn  Zn91  1  0.25088842  0.49621026  0.74308382  1
  Zn  Zn92  1  0.49034393  0.26527144  0.24668908  1
  Zn  Zn93  1  0.24588684  0.36396311  0.62482614  1
  Zn  Zn94  1  0.49661796  0.50902983  0.00275834  1
  Zn  Zn95  1  0.62353564  0.12672667  0.49725684  1
  Zn  Zn96  1  0.38279803  0.00400055  0.88019807  1
  Zn  Zn97  1  0.12615994  0.49572312  0.62454873  1
  Zn  Zn98  1  0.12827116  0.37776679  0.74687831  1
  Zn  Zn99  1  0.99873672  0.01392348  0.47178227  1
  Zn  Zn100  1  0.51014803  0.38124912  0.85890650  1
  Zn  Zn101  1  0.87990887  0.38413923  0.50755145  1
  Zn  Zn102  1  0.87755569  0.50075087  0.37900887  1
  Zn  Zn103  1  0.50356138  0.26053917  0.74774942  1
  Zn  Zn104  1  -0.00077667  0.12785575  0.61567914  1
  Zn  Zn105  1  0.87129184  0.12628713  0.75375785  1
  Zn  Zn106  1  0.38120962  0.50204955  0.87087824  1
  Zn  Zn107  1  0.18783439  0.18542276  0.19003749  1
  Zn  Zn108  1  0.18725856  0.18947318  0.68448488  1
  Zn  Zn109  1  0.18803179  0.68681867  0.18922621  1
  Zn  Zn110  1  0.18301787  0.68460951  0.68770545  1
  Zn  Zn111  1  0.68050361  0.18618910  0.18955338  1
  Zn  Zn112  1  0.68584795  0.18749074  0.69111742  1
  Zn  Zn113  1  0.69090510  0.68662033  0.18478604  1
  Zn  Zn114  1  0.68664529  0.68507181  0.68706512  1
  Zn  Zn115  1  0.31088157  0.31342619  0.31707116  1
  Zn  Zn116  1  0.31257212  0.31395292  0.81071127  1
  Zn  Zn117  1  0.31337449  0.81053310  0.31202350  1
  Zn  Zn118  1  0.31392970  0.80996644  0.81452367  1
  Zn  Zn119  1  0.80910218  0.31124142  0.30869410  1
  Zn  Zn120  1  0.81074211  0.31532793  0.81176034  1
  Zn  Zn121  1  0.80572622  0.80371116  0.30778337  1
  Zn  Zn122  1  0.81251518  0.81836288  0.81187017  1
  Zn  Zn123  1  0.18766455  0.43802954  0.43314750  1
  Zn  Zn124  1  0.18978858  0.43459081  0.93723702  1
  Zn  Zn125  1  0.18660246  0.94139656  0.43958345  1
  Zn  Zn126  1  0.18905452  0.93221743  0.93948511  1
  Zn  Zn127  1  0.68679554  0.43534891  0.44125078  1
  Zn  Zn128  1  0.68492128  0.44031668  0.93983839  1
  Zn  Zn129  1  0.68494124  0.93434413  0.43478853  1
  Zn  Zn130  1  0.68949139  0.94017251  0.93782269  1
  Zn  Zn131  1  0.31004695  0.05915423  0.06215172  1
  Zn  Zn132  1  0.31029468  0.06304214  0.56640479  1
  Zn  Zn133  1  0.31268496  0.56111565  0.06057970  1
  Zn  Zn134  1  0.31014133  0.55721815  0.56222143  1
  Zn  Zn135  1  0.81574114  0.06117702  0.06633329  1
  Zn  Zn136  1  0.81510541  0.06287514  0.55899886  1
  Zn  Zn137  1  0.81264322  0.56187203  0.06025389  1
  Zn  Zn138  1  0.81287885  0.56082813  0.55785530  1
  Zn  Zn139  1  0.45020440  0.44687345  0.18661709  1
  Zn  Zn140  1  0.42734859  0.43654477  0.68723424  1
  Zn  Zn141  1  0.43590033  0.94476594  0.18326454  1
  Zn  Zn142  1  0.43708676  0.93880980  0.68911668  1
  Zn  Zn143  1  0.93798892  0.43715374  0.18714947  1
  Zn  Zn144  1  0.93486468  0.43555028  0.69274264  1
  Zn  Zn145  1  0.93623919  0.93222852  0.30470417  1
  Zn  Zn146  1  0.93410373  0.92911050  0.68903337  1
  Zn  Zn147  1  0.06564170  0.06649615  0.30292511  1
  Zn  Zn148  1  0.06139405  0.06268318  0.80779259  1
  Zn  Zn149  1  0.06469250  0.56310801  0.30497998  1
  Zn  Zn150  1  0.06485390  0.56079151  0.80977415  1
  Zn  Zn151  1  0.56201215  0.05896224  0.30733193  1
  Zn  Zn152  1  0.56607543  0.06865743  0.81289570  1
  Zn  Zn153  1  0.56209160  0.56113354  0.30824126  1
  Zn  Zn154  1  0.55893034  0.56192640  0.81501040  1
  Zn  Zn155  1  0.43947859  0.18491326  0.43619644  1
  Zn  Zn156  1  0.44030785  0.19530860  0.93025401  1
  Zn  Zn157  1  0.43398410  0.68445642  0.43455865  1
  Zn  Zn158  1  0.43294627  0.69564540  0.93561383  1
  Zn  Zn159  1  0.93598590  0.19223362  0.43707094  1
  Zn  Zn160  1  0.93536321  0.18785599  0.94430505  1
  Zn  Zn161  1  0.93425426  0.68505694  0.43964859  1
  Zn  Zn162  1  0.93743745  0.68977207  0.93953148  1
  Zn  Zn163  1  0.06276199  0.31127941  0.06007565  1
  Zn  Zn164  1  0.06345782  0.31111816  0.56310081  1
  Zn  Zn165  1  0.06473120  0.81445582  0.07014809  1
  Zn  Zn166  1  0.06041289  0.81114886  0.56227177  1
  Zn  Zn167  1  0.56745375  0.30718939  0.06395938  1
  Zn  Zn168  1  0.56029821  0.31230269  0.55830254  1
  Zn  Zn169  1  0.56506240  0.81485325  0.05797117  1
  Zn  Zn170  1  0.56176504  0.81395613  0.56082636  1
  O  O171  1  0.13008524  0.10665805  0.12795560  1
  O  O172  1  0.12193116  0.10634341  0.63214297  1
  O  O173  1  0.11680259  0.61363414  0.13221751  1
  O  O174  1  0.11493969  0.62363004  0.61521299  1
  O  O175  1  0.61769048  0.12222329  0.11196733  1
  O  O176  1  0.61802917  0.11265394  0.62469236  1
  O  O177  1  0.62929249  0.61865879  0.11680043  1
  O  O178  1  0.61978026  0.61621671  0.61815919  1
  O  O179  1  0.37088469  0.39137903  0.37819312  1
  O  O180  1  0.37287343  0.37555124  0.89072474  1
  O  O181  1  0.38025096  0.88042811  0.37996796  1
  O  O182  1  0.38358558  0.87656312  0.88049243  1
  O  O183  1  0.88996394  0.37290574  0.36768470  1
  O  O184  1  0.87961539  0.38052305  0.88534730  1
  O  O185  1  0.86945098  0.86950958  0.38169541  1
  O  O186  1  0.88328464  0.88079482  0.88362859  1
  O  O187  1  0.25290529  0.00744879  0.36646462  1
  O  O188  1  0.24454335  0.00706319  0.86662451  1
  O  O189  1  0.25771673  0.50833654  0.36680491  1
  O  O190  1  0.24758990  0.51577248  0.88156262  1
  O  O191  1  0.73592779  0.00803704  0.36124445  1
  O  O192  1  0.76190852  -0.00845680  0.86495892  1
  O  O193  1  0.74293199  0.51535155  0.37856739  1
  O  O194  1  0.75324254  0.50690770  0.86926587  1
  O  O195  1  0.24251761  0.49135372  0.12723000  1
  O  O196  1  0.24566069  0.49053988  0.62374430  1
  O  O197  1  0.24882660  0.98993130  0.13601100  1
  O  O198  1  0.23914376  0.99381355  0.63295975  1
  O  O199  1  0.73439744  0.50275996  0.11869198  1
  O  O200  1  0.74207161  0.49717679  0.63218074  1
  O  O201  1  0.74342041  0.99964696  0.13566772  1
  O  O202  1  0.74188200  0.99848630  0.63062949  1
  O  O203  1  0.00529246  0.36628059  0.25481914  1
  O  O204  1  -0.00358408  0.36429704  0.76450726  1
  O  O205  1  0.00962011  0.86184282  0.24935187  1
  O  O206  1  0.00361502  0.86271669  0.76057606  1
  O  O207  1  0.51887008  0.37589920  0.24526655  1
  O  O208  1  0.49536451  0.37311651  0.74635503  1
  O  O209  1  0.49912267  0.89366594  0.26822225  1
  O  O210  1  0.50535304  0.87003874  0.75636683  1
  O  O211  1  0.48843180  0.12044426  0.24190494  1
  O  O212  1  0.48927253  0.11975086  0.74272251  1
  O  O213  1  0.48581528  0.62414759  0.25299551  1
  O  O214  1  0.50071107  0.63344185  0.74230297  1
  O  O215  1  0.98924096  0.13362286  0.24320943  1
  O  O216  1  0.99599021  0.13738395  0.74645706  1
  O  O217  1  0.99394593  0.63097619  0.24004423  1
  O  O218  1  1.00309501  0.63830860  0.74284326  1
  O  O219  1  0.36010203  0.25841308  -0.00530656  1
  O  O220  1  0.38334560  0.27026333  0.48255818  1
  O  O221  1  0.36188709  0.76410883  -0.00372015  1
  O  O222  1  0.36540608  0.75471120  0.50454908  1
  O  O223  1  0.87501101  0.26392404  0.00779564  1
  O  O224  1  0.87056189  0.25885554  0.51204606  1
  O  O225  1  0.87090295  0.75962779  0.00474402  1
  O  O226  1  0.86623874  0.75779778  0.50423149  1
  O  O227  1  0.11707833  0.24776687  0.48112369  1
  O  O228  1  0.13557408  0.25019376  0.98922463  1
  O  O229  1  0.13645299  0.74292822  0.50390229  1
  O  O230  1  0.13464631  0.75981568  0.99106417  1
  O  O231  1  0.62655260  0.24766286  0.48507307  1
  O  O232  1  0.62474659  0.23497246  0.99408907  1
  O  O233  1  0.63133209  0.74730172  0.49190913  1
  O  O234  1  0.63300205  0.74630784  0.99406380  1
  O  O235  1  0.50573147  0.23097263  0.13085941  1
  O  O236  1  0.51179005  0.23249079  0.62661592  1
  O  O237  1  0.54868317  0.80264837  0.17013999  1
  O  O238  1  0.49523346  0.74620202  0.62723856  1
  O  O239  1  0.99287464  0.25385637  0.13485428  1
  O  O240  1  0.98928794  0.25255624  0.63462402  1
  O  O241  1  0.99678436  0.74146618  0.13080872  1
  O  O242  1  0.99356671  0.74389504  0.63362409  1
  O  O243  1  0.00886475  0.25491240  0.36122096  1
  O  O244  1  0.00439367  0.25507812  0.87029425  1
  O  O245  1  -0.00098872  0.73872963  0.36128872  1
  O  O246  1  0.00418659  0.75527151  0.87052115  1
  O  O247  1  0.51571674  0.24150510  0.36805645  1
  O  O248  1  0.51166494  0.25670128  0.87090410  1
  O  O249  1  0.50905254  0.76016439  0.38226336  1
  O  O250  1  0.50687061  0.75997406  0.86709277  1
  O  O251  1  0.25447427  0.11893265  0.48386517  1
  O  O252  1  0.24865750  0.13015757  0.99195968  1
  O  O253  1  0.24203161  0.63102472  0.49225543  1
  O  O254  1  0.25502136  0.63811268  0.99354226  1
  O  O255  1  0.74814781  0.12479338  0.48546543  1
  O  O256  1  0.74693514  0.12942074  1.00178359  1
  O  O257  1  0.74337279  0.63433921  0.49208705  1
  O  O258  1  0.74307766  0.63259804  0.99030428  1
  O  O259  1  0.25720528  0.36669381  0.00643472  1
  O  O260  1  0.26258060  0.37697225  0.49306464  1
  O  O261  1  0.25642859  0.86651853  0.00816425  1
  O  O262  1  0.25321808  0.86738592  0.50384721  1
  O  O263  1  0.76348333  0.37793323  -0.00225609  1
  O  O264  1  0.75073503  0.37376833  0.51589118  1
  O  O265  1  0.76056812  0.87059992  0.00234498  1
  O  O266  1  0.75501390  0.86388688  0.49822415  1
  O  O267  1  0.13339901  0.49239749  0.23982988  1
  O  O268  1  0.12994371  0.49676993  0.74667046  1
  O  O269  1  0.13683846  0.99202481  0.24114990  1
  O  O270  1  0.13395201  0.99249096  0.74455494  1
  O  O271  1  0.62306858  0.49387829  0.23584485  1
  O  O272  1  0.63228447  0.50680070  0.73919291  1
  O  O273  1  0.62800448  0.98699484  0.23623001  1
  O  O274  1  0.63198007  0.99659263  0.74369404  1
  O  O275  1  0.36547351  0.00701166  0.25626019  1
  O  O276  1  0.36140878  0.00475092  0.75235438  1
  O  O277  1  0.37227548  0.50670072  0.25477369  1
  O  O278  1  0.36813567  0.50745737  0.75484277  1
  O  O279  1  0.85999535  0.00808460  0.25100211  1
  O  O280  1  0.86777541  -0.00328841  0.75717538  1
  O  O281  1  0.88162821  0.51403307  0.25397837  1
  O  O282  1  0.86353233  0.49572507  0.76581822  1
  O  O283  1  0.11870492  0.36331242  0.36750870  1
  O  O284  1  0.11616174  0.36473520  0.87665276  1
  O  O285  1  0.13630657  0.87722808  0.35998033  1
  O  O286  1  0.11783301  0.86666615  0.87176171  1
  O  O287  1  0.62611638  0.36327173  0.37213476  1
  O  O288  1  0.62388102  0.35951144  0.88912546  1
  O  O289  1  0.61580032  0.86752596  0.36319173  1
  O  O290  1  0.61955723  0.87065091  0.87184735  1
  O  O291  1  0.38418735  0.11636183  0.13246494  1
  O  O292  1  0.38420264  0.11649172  0.63462953  1
  O  O293  1  0.37110075  0.62006166  0.13839584  1
  O  O294  1  0.38084683  0.63199555  0.62209289  1
  O  O295  1  0.87284765  0.13414089  0.13600889  1
  O  O296  1  0.87053404  0.13874455  0.62950745  1
  O  O297  1  0.88059813  0.62965025  0.13132442  1
  O  O298  1  0.88154551  0.64028814  0.61421514  1
  O  O299  1  0.24106897  0.25848326  0.11570870  1
  O  O300  1  0.24728698  0.25071954  0.61926852  1
  O  O301  1  0.24155158  0.76063115  0.11687402  1
  O  O302  1  0.25308040  0.75371597  0.61696420  1
  O  O303  1  0.75949793  0.24946020  0.13283764  1
  O  O304  1  0.75329518  0.25882360  0.62860453  1
  O  O305  1  0.75669910  0.75725209  0.11881073  1
  O  O306  1  0.75489148  0.74848436  0.61540513  1
  O  O307  1  0.23437298  0.24372686  0.36832703  1
  O  O308  1  0.24203711  0.23988482  0.88077797  1
  O  O309  1  0.25674770  0.73926367  0.38569407  1
  O  O310  1  0.24125960  0.74567537  0.88275251  1
  O  O311  1  0.73774212  0.24135437  0.37265912  1
  O  O312  1  0.73712278  0.25254540  0.87082443  1
  O  O313  1  0.74156736  0.74127400  0.38503671  1
  O  O314  1  0.74767926  0.74469853  0.87708432  1
  O  O315  1  0.00663689  0.13351597  0.00918957  1
  O  O316  1  -0.01466102  0.11962456  0.50471267  1
  O  O317  1  -0.00573350  0.62380336  0.01513295  1
  O  O318  1  0.01039269  0.63474604  0.50861234  1
  O  O319  1  0.48984869  0.12661468  0.01184348  1
  O  O320  1  0.49967125  0.11710698  0.50954495  1
  O  O321  1  0.51489435  0.63529669  -0.00676381  1
  O  O322  1  0.50434803  0.61841727  0.50443802  1
  O  O323  1  0.49284535  0.38892161  0.50217618  1
  O  O324  1  0.48051186  0.36311827  1.00977752  1
  O  O325  1  0.49436618  0.88027895  0.49078409  1
  O  O326  1  0.49051294  0.86613852  0.98996568  1
  O  O327  1  1.00030907  0.36697904  0.47999701  1
  O  O328  1  0.99368222  0.37531466  0.98799426  1
  O  O329  1  0.98539357  0.86882545  0.49656141  1
  O  O330  1  0.99233476  0.86754253  0.99096001  1
  O  O331  1  0.49218968  0.50880758  0.38507349  1
  O  O332  1  0.50016243  0.49554770  0.88599026  1
  O  O333  1  0.49515130  0.99538769  0.38377645  1
  O  O334  1  0.50260946  0.98570761  0.86874375  1
  O  O335  1  1.00611772  0.48181493  0.36534697  1
  O  O336  1  0.99180070  0.49350918  0.87491127  1
  O  O337  1  1.00431830  0.99808373  0.36310362  1
  O  O338  1  0.99410208  0.98555271  0.86639543  1
  O  O339  1  0.01784636  -0.00363404  0.12955261  1
  O  O340  1  0.01241859  -0.00424878  0.63518391  1
  O  O341  1  0.00839241  0.50686583  0.12490216  1
  O  O342  1  -0.00766838  0.51696505  0.63509162  1
  O  O343  1  0.51267758  0.01191180  0.12635035  1
  O  O344  1  0.50781003  0.00551058  0.62190681  1
  O  O345  1  0.52189432  0.49648807  0.11359583  1
  O  O346  1  0.50593529  0.50645575  0.61604532  1
  O  O347  1  0.24708417  0.37902691  0.24193583  1
  O  O348  1  0.24642682  0.37591515  0.74808539  1
  O  O349  1  0.24794053  0.88037823  0.24446005  1
  O  O350  1  0.24571384  0.88021073  0.74692557  1
  O  O351  1  0.73155376  0.37666509  0.25727973  1
  O  O352  1  0.75043468  0.38885698  0.74004139  1
  O  O353  1  0.73868520  0.87820147  0.24119569  1
  O  O354  1  0.74317359  0.88413361  0.74537872  1
  O  O355  1  0.25854776  0.11667397  0.25513471  1
  O  O356  1  0.25451510  0.11725867  0.75749848  1
  O  O357  1  0.25569688  0.62026739  0.25659746  1
  O  O358  1  0.24931829  0.62961887  0.76411450  1
  O  O359  1  0.75176125  0.11600108  0.25396661  1
  O  O360  1  0.75123048  0.10890081  0.74773072  1
  O  O361  1  0.76208572  0.63385061  0.25882151  1
  O  O362  1  0.74631368  0.61636465  0.76172391  1
  O  O363  1  0.36813749  0.11956606  0.36779901  1
  O  O364  1  0.36490206  0.12135571  0.86866662  1
  O  O365  1  0.36480740  0.61571547  0.36890553  1
  O  O366  1  0.36309416  0.62714119  0.87434984  1
  O  O367  1  0.86100740  0.13802509  0.35887417  1
  O  O368  1  0.88387395  0.10876976  0.87523272  1
  O  O369  1  0.86561538  0.62491184  0.36730391  1
  O  O370  1  0.86443503  0.61528294  0.88560259  1
  O  O371  1  0.13295344  0.38098351  0.12827453  1
  O  O372  1  0.12251549  0.37834131  0.62786773  1
  O  O373  1  0.13646316  0.88414414  0.13378623  1
  O  O374  1  0.12890094  0.87962236  0.63222843  1
  O  O375  1  0.63144030  0.38016311  0.13056071  1
  O  O376  1  0.63083040  0.38727937  0.61912816  1
  O  O377  1  0.64070925  0.89216347  0.11342498  1
  O  O378  1  0.62417839  0.88610989  0.62962788  1
  O  O379  1  0.11592973  0.25439976  0.25102650  1
  O  O380  1  0.11422242  0.24846992  0.76242383  1
  O  O381  1  0.11676290  0.75856259  0.24333881  1
  O  O382  1  0.11575267  0.75449378  0.75997066  1
  O  O383  1  0.62357932  0.26109893  0.25679854  1
  O  O384  1  0.62112759  0.23811977  0.76853534  1
  O  O385  1  0.64221964  0.75353979  0.26737269  1
  O  O386  1  0.62114468  0.75632789  0.75338975  1
  O  O387  1  0.37456007  0.23733423  0.25707143  1
  O  O388  1  0.37623126  0.23385162  0.75655619  1
  O  O389  1  0.37154025  0.73555099  0.25207022  1
  O  O390  1  0.38134790  0.74962927  0.74125995  1
  O  O391  1  0.88027093  0.24497500  0.24129829  1
  O  O392  1  0.88048001  0.24958275  0.74501758  1
  O  O393  1  0.88389266  0.74271607  0.24375623  1
  O  O394  1  0.88272441  0.75850603  0.74025459  1
  O  O395  1  0.38201588  0.49536768  0.48975415  1
  O  O396  1  0.37555831  0.48530278  0.99891601  1
  O  O397  1  0.37790766  0.99273108  0.49623976  1
  O  O398  1  0.36579167  0.98322755  0.99535989  1
  O  O399  1  0.87326379  0.49548909  0.49209555  1
  O  O400  1  0.87671845  0.48866837  0.99143236  1
  O  O401  1  0.87415609  0.97959355  0.50349726  1
  O  O402  1  0.86957453  0.98886725  0.99291420  1
  O  O403  1  0.13398191  -0.00383478  0.01621871  1
  O  O404  1  0.11708404  -0.00941916  0.51595832  1
  O  O405  1  0.12280479  0.49271218  0.01301555  1
  O  O406  1  0.12681819  0.51336793  0.49846946  1
  O  O407  1  0.63447111  0.01606950  0.00652071  1
  O  O408  1  0.61995520  -0.00086631  0.50879418  1
  O  O409  1  0.62679717  0.51344743  0.00650319  1
  O  O410  1  0.61713699  0.50468774  0.50727028  1
  O  O411  1  0.36192384  0.38101948  0.11803212  1
  O  O412  1  0.37271265  0.37750788  0.60381343  1
  O  O413  1  0.36548456  0.88013068  0.11893960  1
  O  O414  1  0.36880109  0.87024773  0.61934194  1
  O  O415  1  0.87852582  0.37107199  0.11204901  1
  O  O416  1  0.86524284  0.36670635  0.62912190  1
  O  O417  1  0.87052370  0.86970685  0.11441878  1
  O  O418  1  0.87386858  0.86150555  0.61253002  1
  O  O419  1  0.13302602  0.13750674  0.36505950  1
  O  O420  1  0.13281483  0.13071601  0.87468007  1
  O  O421  1  0.13770550  0.61853426  0.37883545  1
  O  O422  1  0.12951187  0.63798353  0.87478944  1
  O  O423  1  0.63194383  0.13294938  0.36932306  1
  O  O424  1  0.62449815  0.13001469  0.89093670  1
  O  O425  1  0.62892850  0.63209228  0.37759358  1
  O  O426  1  0.63503486  0.63158103  0.88148509  1
