# generated using pymatgen
data_V85Zn86O256
_symmetry_space_group_name_H-M   'P 1'
_cell_length_a   16.97951627
_cell_length_b   16.97009850
_cell_length_c   16.98873233
_cell_angle_alpha   90.16523881
_cell_angle_beta   89.87485738
_cell_angle_gamma   89.89705795
_symmetry_Int_Tables_number   1
_chemical_formula_structural   V85Zn86O256
_chemical_formula_sum   'V85 Zn86 O256'
_cell_volume   4895.16237903
_cell_formula_units_Z   1
loop_
 _symmetry_equiv_pos_site_id
 _symmetry_equiv_pos_as_xyz
  1  'x, y, z'
loop_
 _atom_site_type_symbol
 _atom_site_label
 _atom_site_symmetry_multiplicity
 _atom_site_fract_x
 _atom_site_fract_y
 _atom_site_fract_z
 _atom_site_occupancy
  V  V0  1  0.12809604  0.24729015  0.87133608  1
  V  V1  1  0.63103802  0.38160413  0.24132742  1
  V  V2  1  0.24464833  0.01148577  0.75449150  1
  V  V3  1  -0.00249914  0.74577886  0.74221638  1
  V  V4  1  0.50817770  0.76968934  0.75177292  1
  V  V5  1  0.12748439  -0.00097221  0.12183786  1
  V  V6  1  0.11995019  0.50798942  0.62602571  1
  V  V7  1  0.49761108  0.37682443  0.37445987  1
  V  V8  1  0.86629364  0.36195816  0.01261675  1
  V  V9  1  -0.00046594  0.87252818  0.87372058  1
  V  V10  1  0.37272863  0.50489622  0.87750068  1
  V  V11  1  0.50515537  0.62364787  0.12395249  1
  V  V12  1  0.24846791  0.62798029  0.37347366  1
  V  V13  1  0.38706527  0.62466945  0.74517052  1
  V  V14  1  0.25887824  0.75757492  0.50739695  1
  V  V15  1  0.87247714  0.00582112  0.37155539  1
  V  V16  1  0.12051825  0.75260917  0.37311368  1
  V  V17  1  0.37365407  0.50274525  0.37500201  1
  V  V18  1  0.87453472  0.38127585  0.49403984  1
  V  V19  1  0.62390215  0.35931535  0.74876827  1
  V  V20  1  0.74778426  0.12430444  0.38076344  1
  V  V21  1  0.13080833  0.12274274  -0.00779203  1
  V  V22  1  0.00289564  0.37075920  0.37653655  1
  V  V23  1  0.74039934  0.62112429  0.88059543  1
  V  V24  1  0.37575087  0.25180531  0.62428079  1
  V  V25  1  -0.00002592  0.12902135  0.12338971  1
  V  V26  1  0.37704999  0.75275801  0.12750015  1
  V  V27  1  0.14198289  0.74599989  0.86472488  1
  V  V28  1  0.24195987  0.12905431  0.37287204  1
  V  V29  1  0.75012249  0.74246288  0.00513494  1
  V  V30  1  0.62335014  0.25080260  0.37452008  1
  V  V31  1  0.86842758  -0.00187911  0.87212118  1
  V  V32  1  -0.00206770  0.50377942  0.49647616  1
  V  V33  1  0.63340747  0.13536172  0.00716956  1
  V  V34  1  0.74932800  0.37733341  0.62649311  1
  V  V35  1  0.24898673  0.50130032  0.24920445  1
  V  V36  1  -0.00066900  0.12984427  0.62975040  1
  V  V37  1  -0.00336328  0.87438775  0.36973451  1
  V  V38  1  0.74571396  0.74493866  0.50001794  1
  V  V39  1  0.37091077  0.00349410  0.37693240  1
  V  V40  1  0.12440420  0.49846476  0.12349528  1
  V  V41  1  0.37555219  0.37122342  -0.00066289  1
  V  V42  1  0.24972856  0.50982047  0.75522519  1
  V  V43  1  0.12214137  0.87601141  0.24866174  1
  V  V44  1  0.12140933  0.00252683  0.62070299  1
  V  V45  1  0.49994915  0.36351325  0.87096984  1
  V  V46  1  0.75228268  0.87061368  0.12791004  1
  V  V47  1  0.37932936  0.87323006  -0.01819518  1
  V  V48  1  -0.00067609  0.37035973  0.87260483  1
  V  V49  1  0.49228044  -0.00168655  0.50389337  1
  V  V50  1  0.87818660  0.86837851  0.00591810  1
  V  V51  1  0.86735924  0.74984876  0.62431656  1
  V  V52  1  0.49984897  0.50287492  0.50548226  1
  V  V53  1  0.85642126  0.13904200  0.23177880  1
  V  V54  1  0.88576171  0.64517177  0.25721198  1
  V  V55  1  0.86649428  0.87689725  0.50074861  1
  V  V56  1  0.00144968  0.50193369  0.00387390  1
  V  V57  1  0.87553294  0.62296883  0.74595840  1
  V  V58  1  0.24115553  0.25284779  0.49408694  1
  V  V59  1  0.50648205  0.50131158  0.00152898  1
  V  V60  1  0.12650951  0.36887733  0.25580633  1
  V  V61  1  0.37449344  0.24471640  0.12457715  1
  V  V62  1  0.25123280  0.37150729  0.12514002  1
  V  V63  1  0.12168113  0.87992150  0.74189535  1
  V  V64  1  0.75481909  0.13542369  0.88624957  1
  V  V65  1  0.62443066  0.77157808  0.87818720  1
  V  V66  1  -0.00299185  0.00331033  0.49934015  1
  V  V67  1  0.11950653  0.62952578  0.50308052  1
  V  V68  1  0.49095212  0.86842644  0.37299721  1
  V  V69  1  0.37733326  0.63098248  0.24847091  1
  V  V70  1  0.24820385  0.37885288  0.62264659  1
  V  V71  1  0.76575235  0.50922477  0.25664780  1
  V  V72  1  0.12139093  0.37285228  0.74936220  1
  V  V73  1  0.25367897  0.00568372  0.25010077  1
  V  V74  1  0.74946347  0.25417658  0.49836702  1
  V  V75  1  0.25153805  0.24628398  -0.00333382  1
  V  V76  1  0.37342634  0.13523599  0.75798179  1
  V  V77  1  0.87325555  0.12909370  0.75241834  1
  V  V78  1  0.87446167  0.49986964  0.87815435  1
  V  V79  1  0.49346614  0.24684167  0.25046343  1
  V  V80  1  0.62469762  -0.00281656  0.12830105  1
  V  V81  1  0.62673516  0.74702603  0.36999539  1
  V  V82  1  0.87980162  0.25454755  0.63014120  1
  V  V83  1  0.49619073  0.12222045  0.12886791  1
  V  V84  1  -0.00105034  0.24924558  0.25001470  1
  Zn  Zn85  1  0.62270734  0.50313048  0.62980923  1
  Zn  Zn86  1  0.37106670  0.00763416  0.87516116  1
  Zn  Zn87  1  0.25366947  0.87380802  0.11980233  1
  Zn  Zn88  1  0.50418648  -0.00684111  -0.00494303  1
  Zn  Zn89  1  0.74624148  0.49924313  0.75199743  1
  Zn  Zn90  1  0.13337645  0.61903597  -0.01412446  1
  Zn  Zn91  1  0.62815072  0.24874003  0.87929621  1
  Zn  Zn92  1  0.62150456  0.00886143  0.61995395  1
  Zn  Zn93  1  0.11580887  0.13386242  0.49264251  1
  Zn  Zn94  1  0.71013016  -0.07095935  0.70430533  1
  Zn  Zn95  1  0.61428488  0.12995482  0.50008299  1
  Zn  Zn96  1  0.49470759  0.13235938  0.62756022  1
  Zn  Zn97  1  0.50476023  0.64037163  0.62424046  1
  Zn  Zn98  1  0.63586802  0.50226213  0.11750047  1
  Zn  Zn99  1  0.00161060  -0.00074137  -0.00143203  1
  Zn  Zn100  1  0.37213583  0.37739900  0.50059527  1
  Zn  Zn101  1  0.62839690  0.62293361  0.50147650  1
  Zn  Zn102  1  0.74627958  -0.00722976  0.25721838  1
  Zn  Zn103  1  0.25696472  0.74090535  -0.00280881  1
  Zn  Zn104  1  0.61777998  0.86787941  0.24661040  1
  Zn  Zn105  1  0.99135513  0.65159677  0.12626892  1
  Zn  Zn106  1  0.27585318  0.88573008  0.61213230  1
  Zn  Zn107  1  0.18534707  0.18645621  0.18549938  1
  Zn  Zn108  1  0.18796925  0.19083837  0.68120307  1
  Zn  Zn109  1  0.17008508  0.70134478  0.17018658  1
  Zn  Zn110  1  0.19155963  0.68834247  0.68746058  1
  Zn  Zn111  1  0.68266464  0.18566425  0.19508033  1
  Zn  Zn112  1  0.66881268  0.13998113  0.70996005  1
  Zn  Zn113  1  0.69404386  0.68157911  0.19120269  1
  Zn  Zn114  1  0.68497568  0.68770462  0.69058705  1
  Zn  Zn115  1  0.31291648  0.31195846  0.31293362  1
  Zn  Zn116  1  0.30874191  0.31767431  0.81097756  1
  Zn  Zn117  1  0.30728847  0.81383617  0.31350235  1
  Zn  Zn118  1  0.32517275  0.82165156  0.78038325  1
  Zn  Zn119  1  0.81197755  0.31640008  0.31201838  1
  Zn  Zn120  1  0.81233638  0.31249651  0.81299843  1
  Zn  Zn121  1  0.80945289  0.80987920  0.31457081  1
  Zn  Zn122  1  0.81072384  0.80488614  0.82018453  1
  Zn  Zn123  1  0.18600821  0.44089662  0.43696643  1
  Zn  Zn124  1  0.18956382  0.43367212  0.93709222  1
  Zn  Zn125  1  0.18632172  0.93878394  0.43785334  1
  Zn  Zn126  1  0.19334613  0.93018724  0.93434273  1
  Zn  Zn127  1  0.68439924  0.44074621  0.43357029  1
  Zn  Zn128  1  0.68815559  0.43057614  0.93736265  1
  Zn  Zn129  1  0.67952192  0.93555853  0.44244944  1
  Zn  Zn130  1  0.69285669  0.94300205  0.94610188  1
  Zn  Zn131  1  0.31342381  0.05956409  0.06108033  1
  Zn  Zn132  1  0.30871365  0.06886556  0.56097305  1
  Zn  Zn133  1  0.31021951  0.56470211  0.06108075  1
  Zn  Zn134  1  0.31218904  0.56813679  0.56387087  1
  Zn  Zn135  1  0.81327096  0.05449483  0.06068393  1
  Zn  Zn136  1  0.81231659  0.06395940  0.56408742  1
  Zn  Zn137  1  0.81689857  0.56113851  0.07525793  1
  Zn  Zn138  1  0.81201444  0.56418002  0.56121622  1
  Zn  Zn139  1  0.43697026  0.43833505  0.18699384  1
  Zn  Zn140  1  0.43687517  0.43305038  0.69088265  1
  Zn  Zn141  1  0.43722765  0.93553127  0.18925751  1
  Zn  Zn142  1  0.43618180  0.94174912  0.69324925  1
  Zn  Zn143  1  0.93763797  0.43695857  0.18697944  1
  Zn  Zn144  1  0.93836712  0.44086645  0.68591695  1
  Zn  Zn145  1  0.93437871  0.94717280  0.18803930  1
  Zn  Zn146  1  0.89947901  0.92370050  0.70245353  1
  Zn  Zn147  1  0.05979678  0.06339928  0.30925457  1
  Zn  Zn148  1  0.05417663  0.06308965  0.80984144  1
  Zn  Zn149  1  0.05901219  0.56156571  0.31247623  1
  Zn  Zn150  1  0.05867959  0.56237390  0.81251480  1
  Zn  Zn151  1  0.56118810  0.05994168  0.31577866  1
  Zn  Zn152  1  0.55986849  0.04999498  0.81846570  1
  Zn  Zn153  1  0.56179444  0.56458844  0.31322221  1
  Zn  Zn154  1  0.56245557  0.55018673  0.81090980  1
  Zn  Zn155  1  0.42726359  0.18632350  0.43666830  1
  Zn  Zn156  1  0.44621579  0.16931044  0.93399311  1
  Zn  Zn157  1  0.43838215  0.68629038  0.43961103  1
  Zn  Zn158  1  0.44287778  0.68751646  0.93712716  1
  Zn  Zn159  1  0.93406407  0.19126552  0.43490799  1
  Zn  Zn160  1  0.94350960  0.18734075  0.93923639  1
  Zn  Zn161  1  0.93450002  0.68783099  0.43538707  1
  Zn  Zn162  1  0.94040487  0.68502652  0.93496587  1
  Zn  Zn163  1  0.05958629  0.31222381  0.06077978  1
  Zn  Zn164  1  0.06165494  0.31709427  0.56364974  1
  Zn  Zn165  1  0.06962391  0.81252390  0.05346073  1
  Zn  Zn166  1  0.05473194  0.81438788  0.55979260  1
  Zn  Zn167  1  0.55881725  0.31283538  0.06261787  1
  Zn  Zn168  1  0.56279219  0.31519124  0.56165775  1
  Zn  Zn169  1  0.56017333  0.80881652  0.06004817  1
  Zn  Zn170  1  0.57166291  0.82576495  0.56796095  1
  O  O171  1  0.11912700  0.11765606  0.11559283  1
  O  O172  1  0.11519581  0.12004457  0.62190716  1
  O  O173  1  0.13372550  0.59821090  0.12946722  1
  O  O174  1  0.12781657  0.61795301  0.61662669  1
  O  O175  1  0.62140275  0.11700863  0.12430755  1
  O  O176  1  0.60870215  0.12991139  0.61498384  1
  O  O177  1  0.60886065  0.62287834  0.13726669  1
  O  O178  1  0.62338012  0.62024867  0.62195090  1
  O  O179  1  0.38376787  0.38299978  0.37312099  1
  O  O180  1  0.38186719  0.38103517  0.87760727  1
  O  O181  1  0.38395237  0.88168372  0.37238866  1
  O  O182  1  0.37275252  0.87376900  0.88102761  1
  O  O183  1  0.88403046  0.37223909  0.38778268  1
  O  O184  1  0.88350438  0.38333434  0.87598354  1
  O  O185  1  0.88024249  0.88179497  0.37835653  1
  O  O186  1  0.88358967  0.87909798  0.88586447  1
  O  O187  1  0.25264048  0.00584459  0.36959209  1
  O  O188  1  0.24876275  -0.00262434  0.85891156  1
  O  O189  1  0.25318696  0.50793378  0.37002916  1
  O  O190  1  0.25992912  0.49159919  0.86550596  1
  O  O191  1  0.75409680  0.00664254  0.38198590  1
  O  O192  1  0.76421092  0.01059427  0.88273604  1
  O  O193  1  0.73888466  0.49899701  0.35455049  1
  O  O194  1  0.76168569  0.50420155  0.87777071  1
  O  O195  1  0.24606056  0.48839965  0.12950981  1
  O  O196  1  0.23920715  0.49879068  0.63168055  1
  O  O197  1  0.24184798  1.00089872  0.13304955  1
  O  O198  1  0.23631635  1.00004538  0.62829556  1
  O  O199  1  0.74563919  0.50418164  0.14595145  1
  O  O200  1  0.75251935  0.48597148  0.62506273  1
  O  O201  1  0.74082361  0.98715271  0.12497895  1
  O  O202  1  0.74099459  1.00871635  0.62332179  1
  O  O203  1  0.00674222  0.36952999  0.25747633  1
  O  O204  1  0.01162659  0.38574707  0.75928603  1
  O  O205  1  0.00952067  0.88612948  0.25884913  1
  O  O206  1  -0.00000915  0.86718117  0.75618608  1
  O  O207  1  0.50516667  0.36867402  0.25762522  1
  O  O208  1  0.50882506  0.37635177  0.76083742  1
  O  O209  1  0.50070733  0.87830380  0.26763720  1
  O  O210  1  0.50057004  0.86715730  0.76306209  1
  O  O211  1  0.50881856  0.13636174  0.24162103  1
  O  O212  1  0.47467303  0.12734447  0.74737222  1
  O  O213  1  0.48391214  0.61633886  0.24202183  1
  O  O214  1  0.49647301  0.61690860  0.74588196  1
  O  O215  1  0.99362360  0.13333936  0.24238972  1
  O  O216  1  0.99288327  0.13082429  0.73755441  1
  O  O217  1  0.99071082  0.62082091  0.24693015  1
  O  O218  1  0.98688544  0.63352313  0.75626308  1
  O  O219  1  0.37048063  0.25108950  0.00486242  1
  O  O220  1  0.35973460  0.25466943  0.50541586  1
  O  O221  1  0.37702221  0.75951675  0.00293400  1
  O  O222  1  0.35708887  0.74407134  0.49765666  1
  O  O223  1  0.88324914  0.26379583  -0.00382183  1
  O  O224  1  0.87043970  0.26283889  0.50649526  1
  O  O225  1  0.86728589  0.75957382  -0.00779659  1
  O  O226  1  0.86806165  0.75528923  0.50500462  1
  O  O227  1  0.13615208  0.25293717  0.50422621  1
  O  O228  1  0.12990367  0.24253031  0.99216396  1
  O  O229  1  0.12529661  0.74552147  0.49291737  1
  O  O230  1  0.13568990  0.75684007  0.96982108  1
  O  O231  1  0.63189398  0.25452137  0.49064392  1
  O  O232  1  0.62777121  0.23914311  1.00761283  1
  O  O233  1  0.63287625  0.75415784  0.49567306  1
  O  O234  1  0.63681871  0.75420162  0.98777624  1
  O  O235  1  0.49469432  0.24278137  0.13337703  1
  O  O236  1  0.47940819  0.25641788  0.61430966  1
  O  O237  1  0.48790780  0.73801511  0.11817292  1
  O  O238  1  0.51448929  0.75663918  0.64807478  1
  O  O239  1  1.00607258  0.23880733  0.13374275  1
  O  O240  1  0.98930295  0.24378110  0.61544892  1
  O  O241  1  1.06434584  0.73365404  0.12750436  1
  O  O242  1  0.98848415  0.75209959  0.63496344  1
  O  O243  1  0.00298142  0.26248732  0.37021288  1
  O  O244  1  0.01290127  0.26212233  0.87737286  1
  O  O245  1  0.00904651  0.76413854  0.38165585  1
  O  O246  1  0.00229472  0.75830420  0.86270438  1
  O  O247  1  0.49956644  0.25656041  0.36863888  1
  O  O248  1  0.50201130  0.26104049  0.88458733  1
  O  O249  1  0.50618092  0.76383872  0.38511955  1
  O  O250  1  0.52156124  0.74705817  0.87481563  1
  O  O251  1  0.24316249  0.13502934  0.49090931  1
  O  O252  1  0.23765745  0.12870574  1.00353866  1
  O  O253  1  0.23789873  0.63445281  0.49514352  1
  O  O254  1  0.24530018  0.62780093  0.99623675  1
  O  O255  1  0.75321941  0.13591124  0.49016142  1
  O  O256  1  0.74524529  0.12050886  0.99804765  1
  O  O257  1  0.75060931  0.63985375  0.50103218  1
  O  O258  1  0.76150591  0.63427407  0.99468557  1
  O  O259  1  0.25599962  0.36651130  0.00545425  1
  O  O260  1  0.24870768  0.37153529  0.50343966  1
  O  O261  1  0.26382233  0.86594500  -0.00035198  1
  O  O262  1  0.24647591  0.86402861  0.50111016  1
  O  O263  1  0.76751611  0.37720680  -0.00331728  1
  O  O264  1  0.75742464  0.37552775  0.50350319  1
  O  O265  1  0.75931728  0.86552504  0.00818448  1
  O  O266  1  0.76133890  0.86608761  0.49311352  1
  O  O267  1  0.12855431  0.48743002  0.24427034  1
  O  O268  1  0.13001527  0.49795613  0.74469682  1
  O  O269  1  0.13096364  0.99466298  0.24165047  1
  O  O270  1  0.12360886  0.99921717  0.74014989  1
  O  O271  1  0.62121099  0.48724426  0.24894371  1
  O  O272  1  0.62966018  0.48106766  0.74757906  1
  O  O273  1  0.62526125  0.99632794  0.23899691  1
  O  O274  1  0.63471794  1.02920422  0.74369743  1
  O  O275  1  0.36068615  -0.00652181  0.25853985  1
  O  O276  1  0.36221516  0.01869065  0.75149855  1
  O  O277  1  0.36759948  0.50669362  0.25467975  1
  O  O278  1  0.36850827  0.50389736  0.75761182  1
  O  O279  1  0.86675835  0.01757056  0.25299688  1
  O  O280  1  0.89003527  0.01935354  0.76369381  1
  O  O281  1  0.86532074  0.49026492  0.25649652  1
  O  O282  1  0.87614077  0.50656011  0.75968346  1
  O  O283  1  0.11877877  0.37908167  0.36435497  1
  O  O284  1  0.11797196  0.37018589  0.86787098  1
  O  O285  1  0.11554368  0.87355622  0.36915566  1
  O  O286  1  0.11566389  0.86827186  0.86187263  1
  O  O287  1  0.61342536  0.37051080  0.36464372  1
  O  O288  1  0.61878338  0.36913992  0.86792445  1
  O  O289  1  0.61254427  0.86623241  0.37356625  1
  O  O290  1  0.63316546  0.87078751  0.87733575  1
  O  O291  1  0.38690357  0.12806380  0.11921094  1
  O  O292  1  0.37066409  0.13746095  0.63057309  1
  O  O293  1  0.38062171  0.63115142  0.13158266  1
  O  O294  1  0.38050546  0.62242971  0.63997124  1
  O  O295  1  0.89820472  0.10202746  0.12407348  1
  O  O296  1  0.88010858  0.13500707  0.63280748  1
  O  O297  1  0.88322587  0.62309942  0.14217217  1
  O  O298  1  0.86965191  0.63344163  0.63655632  1
  O  O299  1  0.25476159  0.25209611  0.11905933  1
  O  O300  1  0.25372382  0.25925976  0.61375318  1
  O  O301  1  0.26344560  0.75157946  0.12212181  1
  O  O302  1  0.24127828  0.75330751  0.60922075  1
  O  O303  1  0.79469501  0.19045585  0.16756819  1
  O  O304  1  0.76433298  0.26522960  0.61590668  1
  O  O305  1  0.74094283  0.75850553  0.11583769  1
  O  O306  1  0.76055535  0.75144093  0.61979790  1
  O  O307  1  0.25577532  0.24115631  0.38135075  1
  O  O308  1  0.23482599  0.25984123  0.88082641  1
  O  O309  1  0.23928063  0.74865383  0.38731339  1
  O  O310  1  0.23991934  0.75783172  0.84769994  1
  O  O311  1  0.74451021  0.24524416  0.37826086  1
  O  O312  1  0.75359882  0.23916661  0.87993151  1
  O  O313  1  0.73386531  0.75604221  0.38468856  1
  O  O314  1  0.74000496  0.74146467  0.88314068  1
  O  O315  1  0.01376764  0.12204777  0.00620781  1
  O  O316  1  -0.00393168  0.12201341  0.50642553  1
  O  O317  1  0.00838922  0.61289102  -0.00184513  1
  O  O318  1  0.01012180  0.61819062  0.49303904  1
  O  O319  1  0.51400589  0.12795649  0.01951792  1
  O  O320  1  0.49214242  0.11192272  0.49594507  1
  O  O321  1  0.49347416  0.61141317  0.00996571  1
  O  O322  1  0.49869801  0.61520311  0.50606850  1
  O  O323  1  0.49746652  0.38156296  0.48638227  1
  O  O324  1  0.49342384  0.38042996  0.99375416  1
  O  O325  1  0.49977306  0.88993941  0.48792309  1
  O  O326  1  0.48451916  0.87578224  1.00166320  1
  O  O327  1  0.99465118  0.38222892  0.49437851  1
  O  O328  1  0.99449118  0.38267491  0.98967448  1
  O  O329  1  0.98986730  0.88226266  0.48712136  1
  O  O330  1  0.99547768  0.87192009  0.99145046  1
  O  O331  1  0.49427499  0.49462548  0.38249269  1
  O  O332  1  0.49239960  0.48770326  0.88403391  1
  O  O333  1  0.48781967  0.99445374  0.37964581  1
  O  O334  1  0.48138224  1.03911305  0.89313480  1
  O  O335  1  1.00775019  0.48721047  0.38858800  1
  O  O336  1  0.99436898  0.49283906  0.88303677  1
  O  O337  1  0.99245281  0.99528903  0.37810233  1
  O  O338  1  0.99441805  0.98686855  0.87625427  1
  O  O339  1  0.01673439  0.00485299  0.12380709  1
  O  O340  1  0.00476651  0.01464622  0.61802133  1
  O  O341  1  0.00990241  0.49175436  0.11392445  1
  O  O342  1  0.01199169  0.49585043  0.61353103  1
  O  O343  1  0.50681028  0.00672626  0.12660392  1
  O  O344  1  0.48624014  0.00111105  0.60875787  1
  O  O345  1  0.49773613  0.50583168  0.11614924  1
  O  O346  1  0.49886991  0.48873865  0.61050109  1
  O  O347  1  0.24322589  0.37792718  0.24666138  1
  O  O348  1  0.23905504  0.38893979  0.74391990  1
  O  O349  1  0.23669011  0.88714351  0.25199004  1
  O  O350  1  0.22598606  0.88808364  0.74525050  1
  O  O351  1  0.73457482  0.37759668  0.25240810  1
  O  O352  1  0.74476457  0.37461656  0.74189029  1
  O  O353  1  0.74767637  0.87371217  0.23882911  1
  O  O354  1  0.79904954  0.88867855  0.75168354  1
  O  O355  1  0.24116774  0.11438117  0.25624074  1
  O  O356  1  0.25179461  0.11808255  0.74178093  1
  O  O357  1  0.25784910  0.61939941  0.25538509  1
  O  O358  1  0.26078728  0.61458988  0.74576051  1
  O  O359  1  0.74289540  0.11560917  0.27279421  1
  O  O360  1  0.76819066  0.13074224  0.76739422  1
  O  O361  1  0.76888097  0.61773504  0.25086746  1
  O  O362  1  0.76048932  0.62341938  0.76145697  1
  O  O363  1  0.35875156  0.11315964  0.37406150  1
  O  O364  1  0.36177694  0.14079337  0.85998303  1
  O  O365  1  0.36988428  0.62293461  0.36690869  1
  O  O366  1  0.38477656  0.60866869  0.86854239  1
  O  O367  1  0.86421355  0.12626126  0.36451746  1
  O  O368  1  0.87517451  0.11959450  0.87430040  1
  O  O369  1  0.88066268  0.62748692  0.35846152  1
  O  O370  1  0.86872129  0.61657663  0.86892481  1
  O  O371  1  0.13052894  0.37834798  0.13287982  1
  O  O372  1  0.12750928  0.38593642  0.63248008  1
  O  O373  1  0.12944177  0.88557309  0.13070916  1
  O  O374  1  0.11000892  0.88948663  0.63039728  1
  O  O375  1  0.61757976  0.37511336  0.13951742  1
  O  O376  1  0.63480044  0.37261285  0.63136636  1
  O  O377  1  0.63037038  0.87996032  0.12432102  1
  O  O378  1  0.62228720  0.89470512  0.63835297  1
  O  O379  1  0.11582906  0.26028755  0.24553570  1
  O  O380  1  0.13242340  0.26463144  0.75483095  1
  O  O381  1  0.13694295  0.76361406  0.26712058  1
  O  O382  1  0.11561785  0.75839967  0.74848401  1
  O  O383  1  0.61500450  0.26127649  0.25364898  1
  O  O384  1  0.63229589  0.25647001  0.75196711  1
  O  O385  1  0.63069079  0.74882304  0.26627919  1
  O  O386  1  0.62129857  0.74992920  0.76847092  1
  O  O387  1  0.38666155  0.25487734  0.24304149  1
  O  O388  1  0.35784048  0.24341853  0.73748438  1
  O  O389  1  0.36744988  0.74045666  0.24324662  1
  O  O390  1  0.40384100  0.73351571  0.77026669  1
  O  O391  1  0.89262803  0.24876434  0.26079308  1
  O  O392  1  0.87581995  0.24662706  0.73860739  1
  O  O393  1  0.87910940  0.74563265  0.25191482  1
  O  O394  1  0.87976616  0.74123256  0.74418967  1
  O  O395  1  0.38002530  0.50084882  0.49316067  1
  O  O396  1  0.38020459  0.49123368  0.99338579  1
  O  O397  1  0.37779023  1.00094357  0.48930786  1
  O  O398  1  0.37019092  0.98293634  0.99747033  1
  O  O399  1  0.88636339  0.49237675  0.50831267  1
  O  O400  1  0.88435699  0.49470496  0.99320825  1
  O  O401  1  0.87845304  0.99441270  0.49304991  1
  O  O402  1  0.88054789  0.98676445  0.99041619  1
  O  O403  1  0.12856150  0.00417432  0.00477683  1
  O  O404  1  0.11643938  0.00124918  0.50799244  1
  O  O405  1  0.11802837  0.49421410  0.00512389  1
  O  O406  1  0.11947977  0.50977324  0.50693947  1
  O  O407  1  0.62396511  0.00837509  0.01400730  1
  O  O408  1  0.60311969  0.00567085  0.49482978  1
  O  O409  1  0.61150695  0.48939926  0.00228539  1
  O  O410  1  0.61336756  0.50136113  0.50044159  1
  O  O411  1  0.37070419  0.36637228  0.11971539  1
  O  O412  1  0.36381658  0.37021019  0.62540583  1
  O  O413  1  0.37504135  0.86462304  0.12303571  1
  O  O414  1  0.36116682  0.86156994  0.67653028  1
  O  O415  1  0.88110425  0.37453709  0.11100604  1
  O  O416  1  0.87265366  0.37193623  0.61800511  1
  O  O417  1  0.86744304  0.88315826  0.11583998  1
  O  O418  1  0.88482614  0.86424678  0.60697550  1
  O  O419  1  0.13536308  0.11901907  0.37603097  1
  O  O420  1  0.11437344  0.13440397  0.88131054  1
  O  O421  1  0.12736910  0.63384824  0.38140077  1
  O  O422  1  0.12335095  0.64257443  0.86391487  1
  O  O423  1  0.63012000  0.13220290  0.37848950  1
  O  O424  1  0.63817850  0.12799801  0.89094681  1
  O  O425  1  0.61114640  0.64386947  0.38129840  1
  O  O426  1  0.64028003  0.61526854  0.87276666  1
