# generated using pymatgen
data_V85Zn86O256
_symmetry_space_group_name_H-M   'P 1'
_cell_length_a   16.98779460
_cell_length_b   16.98466907
_cell_length_c   16.99068131
_cell_angle_alpha   89.91151381
_cell_angle_beta   89.94480048
_cell_angle_gamma   89.86765161
_symmetry_Int_Tables_number   1
_chemical_formula_structural   V85Zn86O256
_chemical_formula_sum   'V85 Zn86 O256'
_cell_volume   4902.33526009
_cell_formula_units_Z   1
loop_
 _symmetry_equiv_pos_site_id
 _symmetry_equiv_pos_as_xyz
  1  'x, y, z'
loop_
 _atom_site_type_symbol
 _atom_site_label
 _atom_site_symmetry_multiplicity
 _atom_site_fract_x
 _atom_site_fract_y
 _atom_site_fract_z
 _atom_site_occupancy
  V  V0  1  0.00271293  -0.00186198  0.00013422  1
  V  V1  1  0.88058357  -0.00527709  0.87381371  1
  V  V2  1  0.74865236  0.62515798  0.87649779  1
  V  V3  1  0.12455487  0.74649375  0.38072293  1
  V  V4  1  0.75065216  0.50153399  0.74913551  1
  V  V5  1  0.75039047  0.74763614  0.50200681  1
  V  V6  1  0.12542562  0.37444900  0.24991780  1
  V  V7  1  0.01024225  0.62491143  0.62441966  1
  V  V8  1  0.62227147  0.87657142  0.24702393  1
  V  V9  1  -0.00038835  0.25365982  0.75310725  1
  V  V10  1  0.74980982  0.12541426  0.37454070  1
  V  V11  1  0.11969703  0.12164193  0.49984950  1
  V  V12  1  0.25035372  0.62534361  0.37618731  1
  V  V13  1  0.50063451  0.00049750  0.50335134  1
  V  V14  1  0.75131834  0.12479208  0.87587321  1
  V  V15  1  0.00447937  0.12026541  0.12488406  1
  V  V16  1  0.25048700  0.87259353  0.12179680  1
  V  V17  1  0.87639087  0.87923890  0.50089781  1
  V  V18  1  0.62107196  0.62158287  0.01373924  1
  V  V19  1  0.37383383  -0.00049559  0.37653112  1
  V  V20  1  0.24818384  0.63337681  0.88129997  1
  V  V21  1  0.00165805  0.88082795  0.38093321  1
  V  V22  1  0.75755929  0.49886051  0.25452093  1
  V  V23  1  -0.00061540  0.62509709  0.12562500  1
  V  V24  1  0.00219840  0.75339233  0.75761066  1
  V  V25  1  0.37555569  0.49887269  0.87915260  1
  V  V26  1  0.62336357  0.12149491  0.50499316  1
  V  V27  1  0.25478454  0.12669618  0.36996598  1
  V  V28  1  0.24998165  0.50063688  0.74894395  1
  V  V29  1  0.37360509  0.37164260  0.50469669  1
  V  V30  1  0.25943167  0.36478874  0.11217111  1
  V  V31  1  0.25704025  -0.00113255  0.75194098  1
  V  V32  1  0.87859310  0.37611512  -0.00543636  1
  V  V33  1  0.49704383  0.37740848  0.87928657  1
  V  V34  1  0.87651397  0.87358590  -0.00156165  1
  V  V35  1  0.12108318  0.37700843  0.75125889  1
  V  V36  1  0.74485722  0.38241571  0.12407676  1
  V  V37  1  0.49094538  0.25123419  0.74273633  1
  V  V38  1  0.49396638  0.87736270  0.37519081  1
  V  V39  1  0.75611313  0.62095069  0.37729122  1
  V  V40  1  0.25400941  0.12241248  0.87272861  1
  V  V41  1  0.25391713  0.50423248  0.24957140  1
  V  V42  1  0.25352237  0.24853900  0.50808401  1
  V  V43  1  0.74576199  -0.00092047  0.74402776  1
  V  V44  1  0.50185720  0.49859213  0.01525223  1
  V  V45  1  0.00414218  0.50519790  0.49289648  1
  V  V46  1  0.12162338  0.87572222  0.75595668  1
  V  V47  1  0.61700783  0.75113825  0.87577812  1
  V  V48  1  0.87697245  0.00084280  0.37617361  1
  V  V49  1  0.75031381  0.25056709  0.00042679  1
  V  V50  1  0.00013583  0.49791509  -0.00613565  1
  V  V51  1  0.87558545  0.38094791  0.49341558  1
  V  V52  1  0.49773938  0.37628259  0.37890054  1
  V  V53  1  0.62542976  0.37585904  0.75151974  1
  V  V54  1  0.87574779  0.25208209  0.62508832  1
  V  V55  1  0.37864472  0.87661851  -0.00310909  1
  V  V56  1  0.12709677  0.25279481  0.87624403  1
  V  V57  1  0.12600037  0.87998736  0.24608177  1
  V  V58  1  0.00046867  0.24942125  0.24907938  1
  V  V59  1  0.25306850  0.00223167  0.24638554  1
  V  V60  1  0.87209668  0.74992918  0.12837239  1
  V  V61  1  0.87595291  0.12512173  0.24933212  1
  V  V62  1  0.62532370  0.87694896  0.74647686  1
  V  V63  1  0.62484893  0.75050390  0.37557386  1
  V  V64  1  0.12610620  0.12674603  -0.00158368  1
  V  V65  1  0.61300911  0.50578159  0.61850276  1
  V  V66  1  0.37299166  0.73659910  0.12462845  1
  V  V67  1  0.75170339  0.37648874  0.62457287  1
  V  V68  1  0.87630452  0.62686624  0.74941846  1
  V  V69  1  0.12489363  0.50062601  0.12271254  1
  V  V70  1  0.37974979  0.74396659  0.62240745  1
  V  V71  1  0.87554203  0.12522289  0.74825149  1
  V  V72  1  0.24917332  0.75044132  0.50000019  1
  V  V73  1  0.62441940  0.24962726  0.37318358  1
  V  V74  1  0.49451547  0.73531135  0.24774701  1
  V  V75  1  0.74833011  0.00082389  0.24867402  1
  V  V76  1  -0.00053071  0.75096236  0.25114984  1
  V  V77  1  0.37321356  0.50118980  0.37838242  1
  V  V78  1  0.48668522  0.24123927  0.23956231  1
  V  V79  1  0.12392303  0.25110001  0.37562683  1
  V  V80  1  0.62145518  0.12419257  0.00411897  1
  V  V81  1  0.11857080  -0.00073216  0.62063266  1
  V  V82  1  0.25431619  0.87585913  0.61931115  1
  V  V83  1  0.61527480  0.00411568  0.12308848  1
  V  V84  1  0.62446906  0.38390353  0.24929462  1
  Zn  Zn85  1  0.74669743  0.75026023  0.00350251  1
  Zn  Zn86  1  0.50328274  0.74545188  0.74183419  1
  Zn  Zn87  1  0.12987406  0.50055231  0.61948517  1
  Zn  Zn88  1  -0.00226632  0.12297392  0.62065192  1
  Zn  Zn89  1  0.12942729  0.63583839  0.00452404  1
  Zn  Zn90  1  0.49239617  0.13115321  0.61866405  1
  Zn  Zn91  1  0.49294839  0.00805994  -0.00705944  1
  Zn  Zn92  1  0.62244085  0.24789945  0.87539219  1
  Zn  Zn93  1  0.74757206  0.87527010  0.12302310  1
  Zn  Zn94  1  -0.00657108  0.38233962  0.36955229  1
  Zn  Zn95  1  0.37334179  0.12601152  0.74485505  1
  Zn  Zn96  1  0.12426153  0.76062620  0.88634421  1
  Zn  Zn97  1  0.87617075  0.75328714  0.62620956  1
  Zn  Zn98  1  0.25432972  0.37099889  0.62896961  1
  Zn  Zn99  1  0.75122592  0.25047428  0.50046857  1
  Zn  Zn100  1  0.60138835  0.63454429  0.51529302  1
  Zn  Zn101  1  0.88172114  0.49739351  0.87162471  1
  Zn  Zn102  1  0.74715887  0.87794976  0.62176825  1
  Zn  Zn103  1  0.87925656  0.61680189  0.25503947  1
  Zn  Zn104  1  0.87585023  0.24952529  0.12402984  1
  Zn  Zn105  1  0.38320291  0.62210063  0.74668181  1
  Zn  Zn106  1  0.49073195  0.88438917  0.86798074  1
  Zn  Zn107  1  0.18768085  0.18706100  0.18508476  1
  Zn  Zn108  1  0.18539387  0.18508721  0.68793393  1
  Zn  Zn109  1  0.18737471  0.68922406  0.19031285  1
  Zn  Zn110  1  0.19075581  0.68868705  0.69248765  1
  Zn  Zn111  1  0.68471047  0.19054863  0.18654420  1
  Zn  Zn112  1  0.68558370  0.18891400  0.68691870  1
  Zn  Zn113  1  0.68790246  0.68518097  0.19424461  1
  Zn  Zn114  1  0.68680818  0.68929219  0.68786661  1
  Zn  Zn115  1  0.31024154  0.31416332  0.31169404  1
  Zn  Zn116  1  0.30963437  0.31454913  0.81871027  1
  Zn  Zn117  1  0.31344934  0.81231773  0.30954742  1
  Zn  Zn118  1  0.31066502  0.81257582  0.80717312  1
  Zn  Zn119  1  0.81196898  0.31084430  0.31181722  1
  Zn  Zn120  1  0.81230952  0.31292076  0.81384831  1
  Zn  Zn121  1  0.81147325  0.81289872  0.31483408  1
  Zn  Zn122  1  0.80975544  0.81157429  0.81494243  1
  Zn  Zn123  1  0.18672873  0.43556833  0.43804139  1
  Zn  Zn124  1  0.18706718  0.43776399  0.93605490  1
  Zn  Zn125  1  0.18810277  0.93761475  0.43661236  1
  Zn  Zn126  1  0.19069029  0.94068356  0.93919379  1
  Zn  Zn127  1  0.68782716  0.43903842  0.43824842  1
  Zn  Zn128  1  0.68590818  0.44092217  0.93786497  1
  Zn  Zn129  1  0.68652938  0.93742306  0.43543719  1
  Zn  Zn130  1  0.68875884  0.93768214  0.93534952  1
  Zn  Zn131  1  0.30673058  0.05750226  0.05786020  1
  Zn  Zn132  1  0.31456061  0.06403933  0.56396364  1
  Zn  Zn133  1  0.31325252  0.55470618  0.06121096  1
  Zn  Zn134  1  0.31103582  0.56399869  0.55811949  1
  Zn  Zn135  1  0.81124221  0.06105372  0.06565235  1
  Zn  Zn136  1  0.81172856  0.06455740  0.56141880  1
  Zn  Zn137  1  0.81241217  0.56159591  0.06430041  1
  Zn  Zn138  1  0.81439123  0.56162214  0.56390529  1
  Zn  Zn139  1  0.43542914  0.42875481  0.19358441  1
  Zn  Zn140  1  0.43596369  0.43816262  0.68973801  1
  Zn  Zn141  1  0.43320545  0.93680653  0.18565027  1
  Zn  Zn142  1  0.43843221  0.93136512  0.68579017  1
  Zn  Zn143  1  0.93551789  0.43422727  0.18082070  1
  Zn  Zn144  1  0.93950953  0.44007247  0.68297456  1
  Zn  Zn145  1  0.93798983  0.93704837  0.18742375  1
  Zn  Zn146  1  0.93692570  0.93620703  0.68711547  1
  Zn  Zn147  1  0.06568748  0.06257405  0.31339406  1
  Zn  Zn148  1  0.06426972  0.06406427  0.81005523  1
  Zn  Zn149  1  0.06491101  0.56434020  0.31114738  1
  Zn  Zn150  1  0.06607577  0.56648643  0.81269485  1
  Zn  Zn151  1  0.56048057  0.06473769  0.31167046  1
  Zn  Zn152  1  0.56186138  0.06261179  0.81720746  1
  Zn  Zn153  1  0.54741783  0.57797665  0.35506413  1
  Zn  Zn154  1  0.56116319  0.56583471  0.81144514  1
  Zn  Zn155  1  0.43723563  0.18884121  0.43229438  1
  Zn  Zn156  1  0.43870780  0.18600917  0.93144402  1
  Zn  Zn157  1  0.43051833  0.69175464  0.43907539  1
  Zn  Zn158  1  0.43594883  0.68492402  0.94104748  1
  Zn  Zn159  1  0.93713867  0.19270147  0.43630976  1
  Zn  Zn160  1  0.93824526  0.18692627  0.93521855  1
  Zn  Zn161  1  0.93670725  0.68917514  0.43900387  1
  Zn  Zn162  1  0.93971598  0.68567924  0.94058245  1
  Zn  Zn163  1  0.06416886  0.31150135  0.06334373  1
  Zn  Zn164  1  0.06272539  0.31519129  0.56437807  1
  Zn  Zn165  1  0.06060705  0.81261207  0.06335388  1
  Zn  Zn166  1  0.06268247  0.81148996  0.56717027  1
  Zn  Zn167  1  0.56275296  0.31226145  0.06415180  1
  Zn  Zn168  1  0.56470430  0.31585865  0.56114060  1
  Zn  Zn169  1  0.55745607  0.80877358  0.06433601  1
  Zn  Zn170  1  0.56335424  0.81933604  0.55999607  1
  O  O171  1  0.11447353  0.12954120  0.11317790  1
  O  O172  1  0.12513577  0.11610542  0.61621062  1
  O  O173  1  0.12129163  0.61516484  0.12712974  1
  O  O174  1  0.11381760  0.62420064  0.63238531  1
  O  O175  1  0.63258103  0.11597626  0.11587135  1
  O  O176  1  0.61778608  0.13440793  0.60885335  1
  O  O177  1  0.62944401  0.62892546  0.11186053  1
  O  O178  1  0.62835772  0.61130281  0.62614667  1
  O  O179  1  0.37828169  0.38086668  0.38284738  1
  O  O180  1  0.38468766  0.38537108  0.87511043  1
  O  O181  1  0.38466948  0.88353116  0.36872209  1
  O  O182  1  0.36928067  0.86056751  0.89438329  1
  O  O183  1  0.87579650  0.36983487  0.38778986  1
  O  O184  1  0.86795699  0.37949242  0.88952697  1
  O  O185  1  0.88332012  0.87950451  0.38066112  1
  O  O186  1  0.87151371  0.88388837  0.88457944  1
  O  O187  1  0.25627286  0.00566709  0.36932686  1
  O  O188  1  0.24249848  0.01031772  0.86289000  1
  O  O189  1  0.25105661  0.50633002  0.36914870  1
  O  O190  1  0.25838407  0.50368719  0.86837696  1
  O  O191  1  0.75517951  0.00586330  0.36758455  1
  O  O192  1  0.76160062  0.00522612  0.86728099  1
  O  O193  1  0.74643900  0.50876138  0.36785150  1
  O  O194  1  0.74917560  0.51206655  0.86865631  1
  O  O195  1  0.24188742  0.49446666  0.13201275  1
  O  O196  1  0.24924497  0.50212125  0.63724650  1
  O  O197  1  0.25673625  0.99051377  0.13769015  1
  O  O198  1  0.24123850  0.99249293  0.63000789  1
  O  O199  1  0.75166050  0.48952019  0.13426847  1
  O  O200  1  0.74462814  0.49473587  0.63243683  1
  O  O201  1  0.74027733  0.99653069  0.13271438  1
  O  O202  1  0.75476998  1.00022948  0.64008438  1
  O  O203  1  0.00927596  0.37141230  0.24755460  1
  O  O204  1  0.00804160  0.36677921  0.74588497  1
  O  O205  1  0.00778623  0.87167971  0.25806523  1
  O  O206  1  0.00930880  0.86514728  0.74349747  1
  O  O207  1  0.50840872  0.36586868  0.25874184  1
  O  O208  1  0.50639692  0.36911213  0.75847840  1
  O  O209  1  0.50874130  0.87496049  0.25646515  1
  O  O210  1  0.50901611  0.86799320  0.75142135  1
  O  O211  1  0.50411971  0.14226129  0.25352479  1
  O  O212  1  0.50360764  0.14466798  0.75355850  1
  O  O213  1  0.50551197  0.63821859  0.26022724  1
  O  O214  1  0.49546886  0.63328281  0.75337887  1
  O  O215  1  0.99840761  0.12716775  0.24276790  1
  O  O216  1  0.99379418  0.13428246  0.74625045  1
  O  O217  1  0.99787873  0.63158395  0.24482541  1
  O  O218  1  0.99436801  0.63076885  0.74428063  1
  O  O219  1  0.37385970  0.21077836  0.03165393  1
  O  O220  1  0.36385793  0.25874281  0.49008312  1
  O  O221  1  0.38186463  0.75685582  0.01881194  1
  O  O222  1  0.36032528  0.75062390  0.50837079  1
  O  O223  1  0.86720319  0.25690078  -0.00135451  1
  O  O224  1  0.87547813  0.26006192  0.50757734  1
  O  O225  1  0.87695802  0.75726369  0.00918617  1
  O  O226  1  0.86664834  0.76173394  0.49958917  1
  O  O227  1  0.13301166  0.24445667  0.49523299  1
  O  O228  1  0.11390925  0.23915856  0.98732353  1
  O  O229  1  0.13178036  0.75578220  0.48860026  1
  O  O230  1  0.12145940  0.74827597  0.99785834  1
  O  O231  1  0.62437613  0.24416139  0.48738935  1
  O  O232  1  0.63567922  0.24429621  0.99980370  1
  O  O233  1  0.63395737  0.75096368  0.49560909  1
  O  O234  1  0.62372590  0.73783925  0.99562906  1
  O  O235  1  0.50273706  0.25775154  0.14101575  1
  O  O236  1  0.50371352  0.25703645  0.64052225  1
  O  O237  1  0.48962477  0.74977628  0.13989320  1
  O  O238  1  0.48182530  0.75756022  0.61468586  1
  O  O239  1  0.99898400  0.23895077  0.13067859  1
  O  O240  1  0.99486430  0.24894735  0.63589198  1
  O  O241  1  0.99126388  0.74547822  0.13206152  1
  O  O242  1  0.99796943  0.74116378  0.63395794  1
  O  O243  1  0.00746722  0.25338558  0.36634761  1
  O  O244  1  0.00937681  0.24421079  0.86159957  1
  O  O245  1  0.00696332  0.75799008  0.37184887  1
  O  O246  1  0.00380999  0.74120632  0.86089484  1
  O  O247  1  0.50748596  0.25783914  0.36626942  1
  O  O248  1  0.50154558  0.26282031  0.87000712  1
  O  O249  1  0.50059010  0.76100465  0.36262492  1
  O  O250  1  0.51101738  0.75330348  0.87924927  1
  O  O251  1  0.24238621  0.13138038  0.49044191  1
  O  O252  1  0.23334440  0.11286174  0.98864986  1
  O  O253  1  0.24732363  0.63634831  0.48820672  1
  O  O254  1  0.24927605  0.61476199  0.98452929  1
  O  O255  1  0.74067179  0.12662557  0.49300828  1
  O  O256  1  0.74738160  0.13331375  0.99677796  1
  O  O257  1  0.75501612  0.63534984  0.49465233  1
  O  O258  1  0.73866082  0.62176893  0.99342929  1
  O  O259  1  0.24676655  0.37931368  0.01269237  1
  O  O260  1  0.25531856  0.36515645  0.50043150  1
  O  O261  1  0.25717230  0.88146562  0.01398328  1
  O  O262  1  0.24291467  0.86511971  0.50847656  1
  O  O263  1  0.75282320  0.37118027  0.00578648  1
  O  O264  1  0.75882111  0.37479318  0.50580893  1
  O  O265  1  0.76275841  0.87260606  0.00213415  1
  O  O266  1  0.75650933  0.86685526  0.49800100  1
  O  O267  1  0.13046476  0.49298141  0.24262939  1
  O  O268  1  0.13301324  0.49169856  0.75317451  1
  O  O269  1  0.13635294  0.98758476  0.25843485  1
  O  O270  1  0.13134314  0.99375506  0.74116224  1
  O  O271  1  0.63573292  0.48484696  0.25677388  1
  O  O272  1  0.62980088  0.49201160  0.74276583  1
  O  O273  1  0.62702090  0.99485715  0.24332047  1
  O  O274  1  0.63660091  0.99036502  0.75962939  1
  O  O275  1  0.36385615  -0.00310401  0.26047647  1
  O  O276  1  0.35931430  -0.00610448  0.74557286  1
  O  O277  1  0.36089500  0.49031652  0.26265736  1
  O  O278  1  0.36666386  0.49981221  0.75977459  1
  O  O279  1  0.86965772  0.00498260  0.25584021  1
  O  O280  1  0.87015038  0.00319261  0.75702470  1
  O  O281  1  0.86299903  0.49641531  0.24742211  1
  O  O282  1  0.87169444  0.50940121  0.75198084  1
  O  O283  1  0.12306010  0.37127096  0.36299462  1
  O  O284  1  0.13115647  0.36529925  0.86349890  1
  O  O285  1  0.11914089  0.86809991  0.36882014  1
  O  O286  1  0.13324768  0.87704922  0.85988304  1
  O  O287  1  0.61781070  0.36886532  0.37159847  1
  O  O288  1  0.61750378  0.37835137  0.86505412  1
  O  O289  1  0.61671808  0.87124670  0.36439902  1
  O  O290  1  0.62849944  0.86395969  0.86800682  1
  O  O291  1  0.37539078  0.15371065  0.08390834  1
  O  O292  1  0.38069653  0.12268752  0.63154543  1
  O  O293  1  0.36615440  0.63776533  0.12243225  1
  O  O294  1  0.36814391  0.64025735  0.62306532  1
  O  O295  1  0.88487467  0.12620521  0.13076599  1
  O  O296  1  0.87673426  0.13233781  0.62948789  1
  O  O297  1  0.87938587  0.63507815  0.12742434  1
  O  O298  1  0.88283256  0.62662775  0.63817276  1
  O  O299  1  0.24263805  0.26645837  0.12871476  1
  O  O300  1  0.24617019  0.24858558  0.61189571  1
  O  O301  1  0.26442820  0.75962699  0.13913284  1
  O  O302  1  0.25230042  0.75572487  0.61711833  1
  O  O303  1  0.75187183  0.25837614  0.11443591  1
  O  O304  1  0.75672078  0.25824651  0.62456509  1
  O  O305  1  0.76026652  0.75100411  0.12583721  1
  O  O306  1  0.75295033  0.75117223  0.61346661  1
  O  O307  1  0.24316574  0.24253705  0.37925859  1
  O  O308  1  0.23590794  0.23945299  0.86718691  1
  O  O309  1  0.24527139  0.74613845  0.37903093  1
  O  O310  1  0.25007751  0.73506620  0.86917526  1
  O  O311  1  0.74014702  0.24444505  0.37594210  1
  O  O312  1  0.74896919  0.24532766  0.88563562  1
  O  O313  1  0.74505197  0.74647460  0.38338169  1
  O  O314  1  0.74190048  0.73915860  0.87981703  1
  O  O315  1  0.00402640  0.11830800  0.00583262  1
  O  O316  1  0.01552171  0.13197686  0.49911200  1
  O  O317  1  0.00096611  0.61409746  0.00917935  1
  O  O318  1  -0.00850915  0.61372607  0.50909727  1
  O  O319  1  0.51843885  0.12823398  -0.00746800  1
  O  O320  1  0.50629273  0.11821541  0.49511195  1
  O  O321  1  0.51212531  0.61306723  -0.00157673  1
  O  O322  1  0.50838242  0.61683527  0.45914757  1
  O  O323  1  0.49049880  0.36596979  0.48679331  1
  O  O324  1  0.51369676  0.38945936  0.99062741  1
  O  O325  1  0.50943466  0.88528681  0.48213156  1
  O  O326  1  0.48577149  0.87411342  1.00059871  1
  O  O327  1  0.99374576  0.38657310  0.49898163  1
  O  O328  1  0.98961813  0.38452539  1.00979348  1
  O  O329  1  0.99114637  0.86757064  0.49012096  1
  O  O330  1  0.98829375  0.88690558  1.00799992  1
  O  O331  1  0.48555050  0.48353208  0.36241443  1
  O  O332  1  0.49257765  0.49286298  0.87657378  1
  O  O333  1  0.49170089  0.99580711  0.37667340  1
  O  O334  1  0.49918367  0.99636740  0.87976513  1
  O  O335  1  1.00258801  0.50370547  0.38807822  1
  O  O336  1  1.00204624  0.50673441  0.88973679  1
  O  O337  1  0.99558275  0.98783197  0.37016231  1
  O  O338  1  0.98758986  1.00764463  0.88281427  1
  O  O339  1  -0.00493824  0.01055460  0.11547528  1
  O  O340  1  0.01435097  0.00097490  0.62906596  1
  O  O341  1  0.00804977  0.50475881  0.12030400  1
  O  O342  1  0.00446814  0.50942376  0.61718384  1
  O  O343  1  0.51203005  -0.00370131  0.12092390  1
  O  O344  1  0.49363801  -0.00636483  0.60498036  1
  O  O345  1  0.49474699  0.49086308  0.11307331  1
  O  O346  1  0.51465952  0.49542469  0.62996993  1
  O  O347  1  0.23894460  0.38405658  0.24611542  1
  O  O348  1  0.24392086  0.38374467  0.74971731  1
  O  O349  1  0.24445296  0.88197862  0.24513387  1
  O  O350  1  0.24082716  0.88046613  0.74025542  1
  O  O351  1  0.74550916  0.37934369  0.24423271  1
  O  O352  1  0.74296831  0.38002292  0.74715917  1
  O  O353  1  0.73601385  0.88002551  0.25257876  1
  O  O354  1  0.74472997  0.88244488  0.74933971  1
  O  O355  1  0.23860811  0.11485231  0.25943368  1
  O  O356  1  0.24763683  0.11552420  0.75568274  1
  O  O357  1  0.24326031  0.61265241  0.25914441  1
  O  O358  1  0.25280965  0.61476197  0.76103011  1
  O  O359  1  0.75518556  0.12141442  0.25467086  1
  O  O360  1  0.75380533  0.11924344  0.75470257  1
  O  O361  1  0.75302861  0.61439929  0.25684386  1
  O  O362  1  0.75804964  0.62313119  0.75708857  1
  O  O363  1  0.36092173  0.11850391  0.37565238  1
  O  O364  1  0.35848138  0.13397235  0.86854526  1
  O  O365  1  0.35952261  0.61560245  0.37615459  1
  O  O366  1  0.36480631  0.61676369  0.87533726  1
  O  O367  1  0.87092776  0.12097730  0.37054216  1
  O  O368  1  0.86964093  0.11717050  0.86879557  1
  O  O369  1  0.86176098  0.63432842  0.37114675  1
  O  O370  1  0.86632506  0.62534935  0.86719450  1
  O  O371  1  0.13001844  0.38364494  0.13263560  1
  O  O372  1  0.13031131  0.37696921  0.63904138  1
  O  O373  1  0.13405348  0.86709102  0.13883503  1
  O  O374  1  0.13251049  0.88119760  0.63147592  1
  O  O375  1  0.63714097  0.36906484  0.13546459  1
  O  O376  1  0.63032263  0.38372027  0.63301654  1
  O  O377  1  0.62458338  0.88065260  0.13260815  1
  O  O378  1  0.62773909  0.86917575  0.64084735  1
  O  O379  1  0.12055311  0.25768757  0.25447939  1
  O  O380  1  0.11801597  0.25615026  0.75486541  1
  O  O381  1  0.12089281  0.75990993  0.26045857  1
  O  O382  1  0.11879833  0.75991178  0.75071389  1
  O  O383  1  0.62341258  0.25911437  0.26085193  1
  O  O384  1  0.61884453  0.26281256  0.75293221  1
  O  O385  1  0.61375300  0.75790385  0.25232485  1
  O  O386  1  0.62675061  0.75776029  0.75976740  1
  O  O387  1  0.38777620  0.25479209  0.25538755  1
  O  O388  1  0.38929657  0.25727634  0.75415924  1
  O  O389  1  0.38759247  0.75199714  0.24311381  1
  O  O390  1  0.37309256  0.75019000  0.73171191  1
  O  O391  1  0.88214912  0.24294951  0.24866542  1
  O  O392  1  0.88134492  0.24719289  0.74677945  1
  O  O393  1  0.88061089  0.75382725  0.24133516  1
  O  O394  1  0.88209572  0.74348979  0.75062689  1
  O  O395  1  0.36338017  0.48935637  0.48560205  1
  O  O396  1  0.39314393  0.50646050  0.99132480  1
  O  O397  1  0.38236354  1.00457647  0.48361746  1
  O  O398  1  0.37678874  0.98217559  1.00767555  1
  O  O399  1  0.88763104  0.49009340  0.50682929  1
  O  O400  1  0.88283792  0.49359494  1.00001298  1
  O  O401  1  0.86694217  0.98834356  0.49190688  1
  O  O402  1  0.88028710  0.99427743  0.99338717  1
  O  O403  1  0.11009533  0.00943819  -0.00959053  1
  O  O404  1  0.13297422  0.00966336  0.50798097  1
  O  O405  1  0.11740621  0.49950973  0.01035135  1
  O  O406  1  0.10973399  0.49390592  0.50237204  1
  O  O407  1  0.62959035  0.00802372  0.00833308  1
  O  O408  1  0.61502105  0.01172550  0.48837148  1
  O  O409  1  0.61512170  0.51168461  -0.00154810  1
  O  O410  1  0.62778691  0.49872721  0.51648035  1
  O  O411  1  0.35738246  0.37951695  0.12809043  1
  O  O412  1  0.37449925  0.38309387  0.60897886  1
  O  O413  1  0.36778296  0.86596138  0.11854853  1
  O  O414  1  0.35949378  0.86508015  0.62670818  1
  O  O415  1  0.86342015  0.37119316  0.11346015  1
  O  O416  1  0.87039382  0.37098793  0.61822537  1
  O  O417  1  0.87333652  0.86691635  0.11846211  1
  O  O418  1  0.87308646  0.87461069  0.61325177  1
  O  O419  1  0.13344345  0.12872940  0.38204845  1
  O  O420  1  0.13010528  0.13279563  0.87910613  1
  O  O421  1  0.13358837  0.63852347  0.36899482  1
  O  O422  1  0.14053731  0.62584869  0.87607077  1
  O  O423  1  0.62969206  0.13336991  0.38050308  1
  O  O424  1  0.63640175  0.12676033  0.88495905  1
  O  O425  1  0.64460926  0.63583810  0.37428756  1
  O  O426  1  0.63320432  0.63258039  0.88037189  1
