# generated using pymatgen
data_V85Zn86O256
_symmetry_space_group_name_H-M   'P 1'
_cell_length_a   16.98086876
_cell_length_b   16.96488662
_cell_length_c   16.95638763
_cell_angle_alpha   89.96948646
_cell_angle_beta   90.11667012
_cell_angle_gamma   89.95928785
_symmetry_Int_Tables_number   1
_chemical_formula_structural   V85Zn86O256
_chemical_formula_sum   'V85 Zn86 O256'
_cell_volume   4884.75888201
_cell_formula_units_Z   1
loop_
 _symmetry_equiv_pos_site_id
 _symmetry_equiv_pos_as_xyz
  1  'x, y, z'
loop_
 _atom_site_type_symbol
 _atom_site_label
 _atom_site_symmetry_multiplicity
 _atom_site_fract_x
 _atom_site_fract_y
 _atom_site_fract_z
 _atom_site_occupancy
  V  V0  1  0.50275975  0.62185527  0.12524840  1
  V  V1  1  0.24910154  0.62592024  0.39641672  1
  V  V2  1  0.37528685  0.87509069  0.00041089  1
  V  V3  1  0.50163928  0.87969894  0.38274522  1
  V  V4  1  0.37826239  0.12432889  0.25261213  1
  V  V5  1  0.87461829  0.87343800  0.50117091  1
  V  V6  1  0.50078823  0.00066161  -0.00107274  1
  V  V7  1  0.37312445  0.37339167  -0.00046465  1
  V  V8  1  0.75393385  0.24777898  0.50103271  1
  V  V9  1  0.25211638  0.25222736  0.50766743  1
  V  V10  1  0.61996529  0.11696463  0.50233634  1
  V  V11  1  0.50075592  0.75107096  0.25112169  1
  V  V12  1  0.62694561  0.87601491  0.24918966  1
  V  V13  1  0.75338719  0.61759621  0.37502377  1
  V  V14  1  0.62189648  0.25487463  0.86776569  1
  V  V15  1  0.38789175  0.37209618  0.50802403  1
  V  V16  1  0.12872624  0.62493147  -0.00838696  1
  V  V17  1  0.62204799  0.25611509  0.37584277  1
  V  V18  1  0.50288528  0.86267311  0.87305641  1
  V  V19  1  0.24938104  0.74561725  -0.00609067  1
  V  V20  1  0.38664321  0.49247118  0.38136089  1
  V  V21  1  0.38122147  0.74933284  0.63019570  1
  V  V22  1  0.62578224  0.12560975  -0.00451086  1
  V  V23  1  0.62209898  0.86512791  0.75513297  1
  V  V24  1  0.37615838  0.25060108  0.12511915  1
  V  V25  1  0.49724076  0.11881976  0.62350780  1
  V  V26  1  0.49883688  0.37763969  0.86942325  1
  V  V27  1  0.76604092  0.12638659  0.87142997  1
  V  V28  1  -0.00136790  0.37174184  0.87394808  1
  V  V29  1  0.01937453  0.50116495  0.49784192  1
  V  V30  1  0.87471136  0.38542684  0.49290393  1
  V  V31  1  0.62331294  0.37811881  0.24787375  1
  V  V32  1  0.37270493  0.87003196  0.50093509  1
  V  V33  1  0.75352614  -0.00014146  0.24601430  1
  V  V34  1  0.01161736  0.61727666  0.62179809  1
  V  V35  1  0.75800855  0.00523885  0.75413701  1
  V  V36  1  0.00038329  0.00198002  0.49599628  1
  V  V37  1  0.12129601  0.37094130  0.24953666  1
  V  V38  1  0.50275221  0.12591929  0.12419649  1
  V  V39  1  0.24916295  0.86935254  0.62089472  1
  V  V40  1  0.37832971  0.63007881  0.75547670  1
  V  V41  1  0.12678015  0.87532737  0.25129806  1
  V  V42  1  0.87399411  0.61309126  0.74988974  1
  V  V43  1  0.50082264  0.25467265  0.25314057  1
  V  V44  1  0.25180501  0.12681987  0.37403109  1
  V  V45  1  0.87335082  0.74842857  0.62491584  1
  V  V46  1  0.62488734  0.63057570  -0.00497143  1
  V  V47  1  0.87485779  0.74967271  0.12060218  1
  V  V48  1  0.88039426  0.24337449  0.63331470  1
  V  V49  1  0.37411090  0.00530431  0.87364838  1
  V  V50  1  0.37041540  0.12831145  0.74497657  1
  V  V51  1  -0.00523965  0.49844847  -0.00350900  1
  V  V52  1  0.74912218  0.12234572  0.37532746  1
  V  V53  1  0.74769421  0.62931596  0.87397938  1
  V  V54  1  0.37506957  0.74980142  0.12621832  1
  V  V55  1  0.00253756  0.87031686  0.37781940  1
  V  V56  1  0.24711931  0.87522422  0.12776537  1
  V  V57  1  -0.00271790  0.12539694  0.63781417  1
  V  V58  1  0.37905696  0.00086843  0.38229766  1
  V  V59  1  0.12441505  0.87680437  0.74946565  1
  V  V60  1  0.75445231  0.25604660  -0.00106503  1
  V  V61  1  0.87817548  0.88483150  -0.00428235  1
  V  V62  1  0.76092159  0.37261371  0.11960132  1
  V  V63  1  0.62765969  0.74995207  0.37820430  1
  V  V64  1  0.12335679  0.12585829  0.49584321  1
  V  V65  1  0.12353925  0.36978771  0.74296104  1
  V  V66  1  0.12749649  0.50131254  0.12535701  1
  V  V67  1  0.24230130  0.50838429  0.74273702  1
  V  V68  1  0.00020938  0.74559239  0.75290296  1
  V  V69  1  0.49397466  0.24991790  0.74570444  1
  V  V70  1  0.11947287  0.25401019  0.36907640  1
  V  V71  1  0.37147338  0.62376328  0.25249523  1
  V  V72  1  0.13101026  0.24086160  0.87941601  1
  V  V73  1  0.24862177  0.00233470  0.75209642  1
  V  V74  1  0.61760290  0.61654129  0.50431048  1
  V  V75  1  0.87571015  0.61711920  0.25342861  1
  V  V76  1  0.00131612  0.62463812  0.12414633  1
  V  V77  1  -0.00389610  0.88613513  0.87622047  1
  V  V78  1  0.75222549  0.87551404  0.12235054  1
  V  V79  1  0.87690368  0.14182348  0.24547519  1
  V  V80  1  0.74801323  0.37951226  0.63230382  1
  V  V81  1  0.12996526  0.74402019  0.39158620  1
  V  V82  1  0.36340638  0.50336932  0.87663007  1
  V  V83  1  0.00273684  0.74797547  0.25099548  1
  V  V84  1  0.25291458  0.37619044  0.12406492  1
  Zn  Zn85  1  0.74652936  0.87694334  0.62791376  1
  Zn  Zn86  1  0.75392217  0.49674242  0.25024230  1
  Zn  Zn87  1  0.25229825  -0.00013817  0.25085083  1
  Zn  Zn88  1  0.50098632  0.62134498  0.63071191  1
  Zn  Zn89  1  0.62288126  -0.00395911  0.62649870  1
  Zn  Zn90  1  0.11969857  0.01418982  0.10461929  1
  Zn  Zn91  1  0.73158716  0.49229826  0.75731358  1
  Zn  Zn92  1  -0.00072742  0.12357195  0.11262054  1
  Zn  Zn93  1  0.74529615  0.75377268  -0.00731266  1
  Zn  Zn94  1  0.62705510  0.49943595  0.12312651  1
  Zn  Zn95  1  -0.00821208  0.37991780  0.36398720  1
  Zn  Zn96  1  0.75022983  0.74885777  0.50212941  1
  Zn  Zn97  1  0.49905402  0.49965138  -0.00143465  1
  Zn  Zn98  1  0.59596582  0.47789931  0.62888980  1
  Zn  Zn99  1  0.62703187  0.00003277  0.12209716  1
  Zn  Zn100  1  0.25249377  0.22199586  -0.01147375  1
  Zn  Zn101  1  0.12495913  0.00213551  0.62357144  1
  Zn  Zn102  1  0.87747551  -0.00009580  0.37341225  1
  Zn  Zn103  1  0.24809597  0.37593357  0.62256813  1
  Zn  Zn104  1  0.24856594  0.50079207  0.25497423  1
  Zn  Zn105  1  0.86909884  0.49166408  0.88006632  1
  Zn  Zn106  1  0.12944205  0.74534567  0.87103222  1
  Zn  Zn107  1  0.19709294  0.17599281  0.16407192  1
  Zn  Zn108  1  0.17961037  0.18552249  0.68878314  1
  Zn  Zn109  1  0.18649354  0.68996326  0.18723129  1
  Zn  Zn110  1  0.19162124  0.68955663  0.68390634  1
  Zn  Zn111  1  0.69002841  0.19027478  0.18533093  1
  Zn  Zn112  1  0.68601480  0.18656136  0.68746452  1
  Zn  Zn113  1  0.68967800  0.68820933  0.18806164  1
  Zn  Zn114  1  0.68802771  0.68285490  0.69054087  1
  Zn  Zn115  1  0.30850318  0.31266097  0.31323232  1
  Zn  Zn116  1  0.30749256  0.31476058  0.81174992  1
  Zn  Zn117  1  0.31146684  0.80771022  0.31682613  1
  Zn  Zn118  1  0.31519020  0.81649233  0.81281857  1
  Zn  Zn119  1  0.80594185  0.31570328  0.31291925  1
  Zn  Zn120  1  0.81577038  0.30590940  0.81493575  1
  Zn  Zn121  1  0.81489258  0.80845362  0.31106878  1
  Zn  Zn122  1  0.81229079  0.81352013  0.80956973  1
  Zn  Zn123  1  0.19526132  0.43646299  0.43421631  1
  Zn  Zn124  1  0.18327041  0.43266706  0.93656045  1
  Zn  Zn125  1  0.18800570  0.93869089  0.43510682  1
  Zn  Zn126  1  0.18772364  0.93304049  0.93517752  1
  Zn  Zn127  1  0.68651125  0.43885813  0.44146958  1
  Zn  Zn128  1  0.68286128  0.44366449  0.93861803  1
  Zn  Zn129  1  0.69068247  0.93660866  0.43784394  1
  Zn  Zn130  1  0.69113851  0.93849770  0.93308522  1
  Zn  Zn131  1  0.31188137  0.06017315  0.06284097  1
  Zn  Zn132  1  0.31114106  0.06015205  0.56286213  1
  Zn  Zn133  1  0.31277891  0.56124296  0.06250819  1
  Zn  Zn134  1  0.32297198  0.55669791  0.56802183  1
  Zn  Zn135  1  0.82312592  0.07180616  0.05673673  1
  Zn  Zn136  1  0.81135663  0.05873437  0.56700707  1
  Zn  Zn137  1  0.80884330  0.56111381  0.06343997  1
  Zn  Zn138  1  0.81104091  0.56550013  0.56210218  1
  Zn  Zn139  1  0.43675536  0.43893580  0.19154961  1
  Zn  Zn140  1  0.43155832  0.44159707  0.68900968  1
  Zn  Zn141  1  0.43909109  0.93898976  0.18955427  1
  Zn  Zn142  1  0.43945364  0.93728545  0.68869425  1
  Zn  Zn143  1  0.94064802  0.43549452  0.18092737  1
  Zn  Zn144  1  0.94017073  0.43266460  0.68087104  1
  Zn  Zn145  1  0.94141817  0.94038237  0.18612922  1
  Zn  Zn146  1  0.93956005  0.94074079  0.68733256  1
  Zn  Zn147  1  0.07790464  0.08318572  0.27987657  1
  Zn  Zn148  1  0.05079666  0.06539599  0.93855601  1
  Zn  Zn149  1  0.06472080  0.55989583  0.31525530  1
  Zn  Zn150  1  0.06174222  0.55820562  0.81109999  1
  Zn  Zn151  1  0.56444320  0.06270754  0.31258376  1
  Zn  Zn152  1  0.56521688  0.05745777  0.80960477  1
  Zn  Zn153  1  0.56352385  0.56265397  0.31531301  1
  Zn  Zn154  1  0.56160382  0.56211380  0.81081876  1
  Zn  Zn155  1  0.43790780  0.19154900  0.43991267  1
  Zn  Zn156  1  0.43634645  0.18863073  0.93593006  1
  Zn  Zn157  1  0.43622297  0.69061104  0.43862960  1
  Zn  Zn158  1  0.43438774  0.68412215  0.93868849  1
  Zn  Zn159  1  0.93818144  0.18899510  0.43413349  1
  Zn  Zn160  1  0.95663486  0.21795777  0.97754816  1
  Zn  Zn161  1  0.94110481  0.68313954  0.43822655  1
  Zn  Zn162  1  0.93544013  0.68417144  0.93548519  1
  Zn  Zn163  1  0.06897716  0.31229161  0.06342781  1
  Zn  Zn164  1  0.06031127  0.31062360  0.55741356  1
  Zn  Zn165  1  0.06277357  0.81400472  0.06082077  1
  Zn  Zn166  1  0.05945726  0.81045664  0.56738241  1
  Zn  Zn167  1  0.56410721  0.31378617  0.06021722  1
  Zn  Zn168  1  0.56422905  0.30330873  0.56496451  1
  Zn  Zn169  1  0.56258692  0.81248418  0.06205050  1
  Zn  Zn170  1  0.56240155  0.81031909  0.56648487  1
  O  O171  1  0.10647184  0.11254030  0.17121103  1
  O  O172  1  0.11365910  0.12427053  0.61506292  1
  O  O173  1  0.12010220  0.62136021  0.11804983  1
  O  O174  1  0.11018098  0.63049810  0.62919036  1
  O  O175  1  0.62229631  0.12747101  0.11144949  1
  O  O176  1  0.61673839  0.12597809  0.61639693  1
  O  O177  1  0.61631708  0.62472787  0.12213078  1
  O  O178  1  0.62322782  0.63919772  0.60675866  1
  O  O179  1  0.37157824  0.38850311  0.37887498  1
  O  O180  1  0.37938624  0.38153152  0.87985199  1
  O  O181  1  0.38132820  0.87877981  0.38170547  1
  O  O182  1  0.38344566  0.88481123  0.87955171  1
  O  O183  1  0.87446166  0.36890544  0.38873698  1
  O  O184  1  0.89370729  0.37579060  0.86338205  1
  O  O185  1  0.88219353  0.86990437  0.38584007  1
  O  O186  1  0.88862443  0.86584579  0.88002382  1
  O  O187  1  0.26240605  0.00627584  0.37446059  1
  O  O188  1  0.26275910  -0.01187449  0.86225143  1
  O  O189  1  0.25903222  0.51496098  0.37435616  1
  O  O190  1  0.25858401  0.49153018  0.86567692  1
  O  O191  1  0.74951802  0.00787924  0.36628148  1
  O  O192  1  0.74794027  0.01135417  0.86390663  1
  O  O193  1  0.74522916  0.51336941  0.37231026  1
  O  O194  1  0.75304525  0.50686967  0.87270448  1
  O  O195  1  0.24704985  0.49194579  0.12839055  1
  O  O196  1  0.25331146  0.49782907  0.63993138  1
  O  O197  1  0.24878093  0.98199804  0.13020986  1
  O  O198  1  0.24931747  0.98837489  0.63430457  1
  O  O199  1  0.74656693  0.48672309  0.12688955  1
  O  O200  1  0.75750681  0.48160610  0.62386274  1
  O  O201  1  0.75060095  0.99513554  0.13207527  1
  O  O202  1  0.74510710  0.99838281  0.63773832  1
  O  O203  1  0.01472418  0.38033888  0.24821969  1
  O  O204  1  0.01516156  0.38577338  0.75908576  1
  O  O205  1  0.00742434  0.86719498  0.25762305  1
  O  O206  1  0.00420041  0.86644244  0.75549113  1
  O  O207  1  0.50838909  0.36328308  0.24611093  1
  O  O208  1  0.48627619  0.36364342  0.75990151  1
  O  O209  1  0.50629886  0.87043239  0.25915813  1
  O  O210  1  0.51257342  0.88006983  0.75820061  1
  O  O211  1  0.49992082  0.13501408  0.24560094  1
  O  O212  1  0.49062089  0.13008978  0.74491117  1
  O  O213  1  0.49214799  0.63024337  0.24576395  1
  O  O214  1  0.48133288  0.62492704  0.75272137  1
  O  O215  1  0.97202247  0.12236107  0.27170832  1
  O  O216  1  1.00084957  0.12028599  0.73287380  1
  O  O217  1  0.99517772  0.62829987  0.24589669  1
  O  O218  1  0.99378003  0.62718139  0.74316812  1
  O  O219  1  0.37069878  0.25400330  0.00607617  1
  O  O220  1  0.36467175  0.26453209  0.48882218  1
  O  O221  1  0.36764399  0.75422875  0.00662151  1
  O  O222  1  0.37600080  0.76304164  0.50828857  1
  O  O223  1  0.85140494  0.26078498  -0.01456609  1
  O  O224  1  0.86478769  0.25563089  0.50255211  1
  O  O225  1  0.87562732  0.75303494  0.01079243  1
  O  O226  1  0.87939648  0.75596433  0.50883234  1
  O  O227  1  0.13266507  0.24653367  0.49063300  1
  O  O228  1  0.13489623  0.26052928  0.98222904  1
  O  O229  1  0.11969111  0.74989087  0.49058381  1
  O  O230  1  0.13257614  0.74174964  0.99941990  1
  O  O231  1  0.63515973  0.24195026  0.49317496  1
  O  O232  1  0.62857097  0.24305964  0.98878440  1
  O  O233  1  0.62717169  0.74743479  0.48813015  1
  O  O234  1  0.62728184  0.73618158  1.00579158  1
  O  O235  1  0.49631937  0.24620241  0.13278901  1
  O  O236  1  0.50371588  0.23967752  0.63961828  1
  O  O237  1  0.49476994  0.74218307  0.13105303  1
  O  O238  1  0.48493811  0.74608057  0.62395247  1
  O  O239  1  0.99351561  0.23717186  0.08784076  1
  O  O240  1  0.98621582  0.24228009  0.61547869  1
  O  O241  1  0.99330165  0.74490981  0.12941367  1
  O  O242  1  0.99210629  0.74112259  0.63414576  1
  O  O243  1  0.01532005  0.25905030  0.38391782  1
  O  O244  1  0.01024897  0.26805440  0.88246408  1
  O  O245  1  0.01052728  0.74987852  0.37127501  1
  O  O246  1  0.00105783  0.74791668  0.86012847  1
  O  O247  1  0.51243275  0.24374973  0.36532654  1
  O  O248  1  0.50339793  0.25651782  0.86711512  1
  O  O249  1  0.50818275  0.75890996  0.37070160  1
  O  O250  1  0.49187223  0.76390976  0.87986232  1
  O  O251  1  0.24530547  0.13042581  0.49427197  1
  O  O252  1  0.23277834  0.13580505  1.05571071  1
  O  O253  1  0.25645054  0.62129344  0.49422031  1
  O  O254  1  0.24151030  0.63476934  1.00813314  1
  O  O255  1  0.74294656  0.13033269  0.49513411  1
  O  O256  1  0.74343108  0.13338369  0.99212138  1
  O  O257  1  0.74201460  0.62910077  0.49190395  1
  O  O258  1  0.74282760  0.62594110  0.99277045  1
  O  O259  1  0.25658021  0.37877558  0.01212045  1
  O  O260  1  0.25565600  0.36708779  0.50277333  1
  O  O261  1  0.25520250  0.86635742  0.00943429  1
  O  O262  1  0.25976649  0.88252097  0.51001975  1
  O  O263  1  0.73791023  0.37163344  0.01287332  1
  O  O264  1  0.75932818  0.36657923  0.50507587  1
  O  O265  1  0.75812887  0.87100810  0.00175044  1
  O  O266  1  0.76200420  0.87179061  0.50296025  1
  O  O267  1  0.12791196  0.49343650  0.24283240  1
  O  O268  1  0.13802197  0.49118455  0.75528286  1
  O  O269  1  0.13207585  0.97808479  0.26477086  1
  O  O270  1  0.13472348  0.98455517  0.74714364  1
  O  O271  1  0.62449031  0.48799276  0.25162161  1
  O  O272  1  0.62601254  0.51786683  0.73132612  1
  O  O273  1  0.63671862  0.99608238  0.24812318  1
  O  O274  1  0.63459378  0.98978701  0.74838352  1
  O  O275  1  0.37626461  0.00476026  0.26276001  1
  O  O276  1  0.36864742  0.00638965  0.75530681  1
  O  O277  1  0.37495877  0.50799393  0.26306469  1
  O  O278  1  0.36103442  0.50828288  0.75804098  1
  O  O279  1  0.86169674  0.00131443  0.25438094  1
  O  O280  1  0.85690833  -0.00790715  0.74655748  1
  O  O281  1  0.87782866  0.51388229  0.24449153  1
  O  O282  1  0.87683316  0.50908603  0.74578857  1
  O  O283  1  0.12831037  0.37041991  0.36493169  1
  O  O284  1  0.11805890  0.37104081  0.86296214  1
  O  O285  1  0.12411776  0.86213611  0.37199505  1
  O  O286  1  0.11262520  0.86805142  0.86552037  1
  O  O287  1  0.63635250  0.36332993  0.36685871  1
  O  O288  1  0.61171175  0.36671279  0.87963573  1
  O  O289  1  0.62030770  0.86941718  0.37160866  1
  O  O290  1  0.61702961  0.87820055  0.86568677  1
  O  O291  1  0.38566962  0.13008535  0.13325577  1
  O  O292  1  0.38162970  0.11968131  0.63513525  1
  O  O293  1  0.38301180  0.62875539  0.13276989  1
  O  O294  1  0.37156119  0.63585575  0.63517849  1
  O  O295  1  0.87277290  0.12507028  0.14381140  1
  O  O296  1  0.88038468  0.13711732  0.61666136  1
  O  O297  1  0.87961166  0.63222448  0.13170808  1
  O  O298  1  0.88135249  0.63128858  0.63080027  1
  O  O299  1  0.26110924  0.26859937  0.13481852  1
  O  O300  1  0.24356463  0.24739860  0.61051938  1
  O  O301  1  0.25561921  0.75726231  0.11750634  1
  O  O302  1  0.25932967  0.76326638  0.62691153  1
  O  O303  1  0.74303503  0.26339434  0.11458118  1
  O  O304  1  0.75866112  0.25392134  0.61797287  1
  O  O305  1  0.76138349  0.75634058  0.12570068  1
  O  O306  1  0.76458079  0.75132218  0.62584148  1
  O  O307  1  0.24266423  0.24538264  0.38390459  1
  O  O308  1  0.23961740  0.24735420  0.87438983  1
  O  O309  1  0.24633493  0.73444916  0.37742915  1
  O  O310  1  0.24972809  0.75899981  0.89001292  1
  O  O311  1  0.74098654  0.24147536  0.38246976  1
  O  O312  1  0.73764769  0.24646784  0.87609535  1
  O  O313  1  0.73999869  0.74207742  0.37335013  1
  O  O314  1  0.75839460  0.73382999  0.87477087  1
  O  O315  1  -0.03320311  0.10889425  -0.00166120  1
  O  O316  1  0.00399487  0.11580664  0.49754941  1
  O  O317  1  0.00917731  0.61981948  0.00429161  1
  O  O318  1  -0.00309506  0.60869501  0.50595939  1
  O  O319  1  0.50717717  0.12184834  0.00309399  1
  O  O320  1  0.50906094  0.13653637  0.51093330  1
  O  O321  1  0.50540316  0.62611684  0.00992085  1
  O  O322  1  0.51616497  0.63006245  0.49475370  1
  O  O323  1  0.48723684  0.36229552  0.50285861  1
  O  O324  1  0.49178334  0.37451353  0.98894847  1
  O  O325  1  0.49293270  0.87123962  0.48911633  1
  O  O326  1  0.49532710  0.88064114  0.99462713  1
  O  O327  1  0.98730971  0.38638166  0.50325654  1
  O  O328  1  1.01140143  0.38837269  0.98468313  1
  O  O329  1  0.99346433  0.88088777  0.49898669  1
  O  O330  1  0.99524378  0.86729375  0.98314288  1
  O  O331  1  0.48514455  0.50526339  0.37614928  1
  O  O332  1  0.48822894  0.49013654  0.87219147  1
  O  O333  1  0.49356964  0.98999382  0.37031371  1
  O  O334  1  0.49110574  0.99319736  0.88030075  1
  O  O335  1  1.00418181  0.49710254  0.39165792  1
  O  O336  1  0.99868018  0.49277047  0.88142039  1
  O  O337  1  0.99755867  0.98947074  0.38828467  1
  O  O338  1  0.99937428  0.98289438  0.86727625  1
  O  O339  1  0.00653211  0.00529210  0.12785277  1
  O  O340  1  -0.00018551  0.00691966  0.61299436  1
  O  O341  1  0.00794762  0.50451604  0.11510086  1
  O  O342  1  -0.00514597  0.50556457  0.61019486  1
  O  O343  1  0.50312517  0.00647324  0.11820942  1
  O  O344  1  0.50260618  0.01442899  0.62940666  1
  O  O345  1  0.49894002  0.51303411  0.12611020  1
  O  O346  1  0.48867163  0.50807362  0.62045136  1
  O  O347  1  0.24365688  0.38111841  0.24246323  1
  O  O348  1  0.24056582  0.38387590  0.74523423  1
  O  O349  1  0.24478163  0.86760978  0.24332310  1
  O  O350  1  0.24395605  0.87986426  0.74231831  1
  O  O351  1  0.74139958  0.37468348  0.23781876  1
  O  O352  1  0.75622762  0.37282959  0.73563615  1
  O  O353  1  0.74749682  0.88136987  0.24528304  1
  O  O354  1  0.73934329  0.88505445  0.75441169  1
  O  O355  1  0.26262344  0.12397030  0.25693608  1
  O  O356  1  0.25595541  0.11195107  0.74056465  1
  O  O357  1  0.26461769  0.62597719  0.24966080  1
  O  O358  1  0.25233557  0.61359695  0.74909724  1
  O  O359  1  0.75370883  0.11975343  0.25654841  1
  O  O360  1  0.74337161  0.11346185  0.75602713  1
  O  O361  1  0.75796639  0.62260401  0.25608996  1
  O  O362  1  0.76000004  0.62180959  0.75638317  1
  O  O363  1  0.37469905  0.11797207  0.37383357  1
  O  O364  1  0.37884453  0.11268987  0.86569194  1
  O  O365  1  0.36647336  0.62006387  0.37296353  1
  O  O366  1  0.37451030  0.61402699  0.87080030  1
  O  O367  1  0.85786013  0.12522682  0.37346709  1
  O  O368  1  0.86094478  0.13866961  0.87102580  1
  O  O369  1  0.86520858  0.63621609  0.36416077  1
  O  O370  1  0.86871470  0.61847312  0.86561233  1
  O  O371  1  0.13439970  0.38041468  0.13039010  1
  O  O372  1  0.12113707  0.36783965  0.63964435  1
  O  O373  1  0.13344397  0.86807214  0.13607563  1
  O  O374  1  0.13159772  0.87422302  0.63189765  1
  O  O375  1  0.62811705  0.37625079  0.13522743  1
  O  O376  1  0.64359921  0.37091986  0.61494437  1
  O  O377  1  0.63261746  0.87581367  0.13099321  1
  O  O378  1  0.62466553  0.87605289  0.63679189  1
  O  O379  1  0.13473599  0.26221565  0.25965953  1
  O  O380  1  0.13082020  0.26361170  0.76029649  1
  O  O381  1  0.12128865  0.75591651  0.25917668  1
  O  O382  1  0.11822660  0.75818887  0.74859197  1
  O  O383  1  0.62033043  0.25652834  0.25656572  1
  O  O384  1  0.61236065  0.24314148  0.76093260  1
  O  O385  1  0.62138590  0.75459573  0.25970725  1
  O  O386  1  0.63275504  0.76613571  0.74841521  1
  O  O387  1  0.38499647  0.24658404  0.24883561  1
  O  O388  1  0.38024457  0.23721013  0.75881502  1
  O  O389  1  0.38111180  0.74203522  0.24786738  1
  O  O390  1  0.36484077  0.74117651  0.74375191  1
  O  O391  1  0.86644215  0.24083871  0.25489497  1
  O  O392  1  0.87409188  0.25111474  0.73138551  1
  O  O393  1  0.88216793  0.74297494  0.23946419  1
  O  O394  1  0.88316308  0.74104705  0.74243084  1
  O  O395  1  0.37161320  0.48599324  0.48977467  1
  O  O396  1  0.37652402  0.49488664  0.99184041  1
  O  O397  1  0.37499532  0.99016591  0.48991379  1
  O  O398  1  0.37832848  0.99610196  0.99297478  1
  O  O399  1  0.86990661  0.48560887  0.49994885  1
  O  O400  1  0.89069437  0.50715050  1.00067698  1
  O  O401  1  0.88091408  0.99009487  0.49924957  1
  O  O402  1  0.86850136  0.98288041  1.00107135  1
  O  O403  1  0.12783300  0.00350458  -0.00674332  1
  O  O404  1  0.11673492  0.00542524  0.49949568  1
  O  O405  1  0.12059286  0.50825737  0.00478854  1
  O  O406  1  0.11724348  0.49045954  0.50343518  1
  O  O407  1  0.62103986  0.01067777  -0.00213707  1
  O  O408  1  0.62996816  0.01364668  0.49996953  1
  O  O409  1  0.61749503  0.51416489  0.00391154  1
  O  O410  1  0.62878563  0.51334460  0.50732271  1
  O  O411  1  0.37171233  0.37233592  0.12139506  1
  O  O412  1  0.37082456  0.37716176  0.61011049  1
  O  O413  1  0.36928330  0.86986958  0.12178897  1
  O  O414  1  0.37057500  0.87031999  0.62093157  1
  O  O415  1  0.85965698  0.37577953  0.12704683  1
  O  O416  1  0.86850827  0.36165666  0.61328775  1
  O  O417  1  0.87355045  0.86665050  0.11712677  1
  O  O418  1  0.87854539  0.86479201  0.61721310  1
  O  O419  1  0.13163551  0.13453248  0.37478986  1
  O  O420  1  0.11165689  0.14398173  0.87333619  1
  O  O421  1  0.14243583  0.62874426  0.37254424  1
  O  O422  1  0.12174825  0.62501125  0.88738526  1
  O  O423  1  0.63214177  0.13256725  0.38112339  1
  O  O424  1  0.62363620  0.13423533  0.88396415  1
  O  O425  1  0.63169901  0.63174542  0.38270668  1
  O  O426  1  0.63393307  0.61997827  0.88362927  1
