# generated using pymatgen
data_V85Zn86O256
_symmetry_space_group_name_H-M   'P 1'
_cell_length_a   16.96983070
_cell_length_b   16.96499881
_cell_length_c   16.97436511
_cell_angle_alpha   90.04240706
_cell_angle_beta   89.82809860
_cell_angle_gamma   89.92763823
_symmetry_Int_Tables_number   1
_chemical_formula_structural   V85Zn86O256
_chemical_formula_sum   'V85 Zn86 O256'
_cell_volume   4886.77632734
_cell_formula_units_Z   1
loop_
 _symmetry_equiv_pos_site_id
 _symmetry_equiv_pos_as_xyz
  1  'x, y, z'
loop_
 _atom_site_type_symbol
 _atom_site_label
 _atom_site_symmetry_multiplicity
 _atom_site_fract_x
 _atom_site_fract_y
 _atom_site_fract_z
 _atom_site_occupancy
  V  V0  1  0.37130427  0.75099477  0.11966063  1
  V  V1  1  0.00849445  0.87177335  0.37471763  1
  V  V2  1  0.12882547  0.62825490  0.48786126  1
  V  V3  1  0.75330853  0.24926500  0.00363954  1
  V  V4  1  0.87701511  0.49705980  0.88906093  1
  V  V5  1  0.38275646  0.37603266  -0.00063820  1
  V  V6  1  0.11601318  0.87306579  0.75882406  1
  V  V7  1  0.75159828  0.12402076  0.36951652  1
  V  V8  1  0.74981644  0.74457509  0.49110769  1
  V  V9  1  0.62421041  0.61988894  0.50749749  1
  V  V10  1  0.73868772  0.49550312  0.74650278  1
  V  V11  1  0.87553346  0.62323058  0.75052033  1
  V  V12  1  0.75220600  0.01478527  0.74843300  1
  V  V13  1  0.24960536  0.87516797  0.62784375  1
  V  V14  1  0.13737096  0.38644269  0.24670038  1
  V  V15  1  0.74950103  0.63235946  0.88192488  1
  V  V16  1  0.12817458  0.87340210  0.24185583  1
  V  V17  1  0.62623117  0.25022471  0.37203258  1
  V  V18  1  0.38218810  0.49356068  0.87566680  1
  V  V19  1  0.49987712  0.25796999  0.75601869  1
  V  V20  1  0.50342353  0.87354388  0.37582880  1
  V  V21  1  0.12436548  -0.00079732  0.62277770  1
  V  V22  1  0.12712864  0.25138635  0.37381636  1
  V  V23  1  0.37904308  0.74220040  0.62716993  1
  V  V24  1  0.14321170  0.50577357  0.11760890  1
  V  V25  1  0.62566989  0.00185902  0.62419296  1
  V  V26  1  0.24973049  0.25046888  0.50024675  1
  V  V27  1  0.12593865  0.72302829  0.88448957  1
  V  V28  1  -0.01037695  0.24783085  0.75209123  1
  V  V29  1  -0.00084242  -0.01345448  -0.00576965  1
  V  V30  1  0.49889364  0.24594704  0.24542087  1
  V  V31  1  0.50557298  0.50197445  0.51581388  1
  V  V32  1  0.24763165  0.74545570  0.49588514  1
  V  V33  1  0.87523726  0.87489796  0.49833893  1
  V  V34  1  0.24940820  0.12497700  0.87440126  1
  V  V35  1  0.37380580  0.24872205  0.12626818  1
  V  V36  1  0.24781333  0.25748832  0.00580740  1
  V  V37  1  -0.00467087  0.37622030  0.89005181  1
  V  V38  1  0.62679694  0.75067062  0.88375153  1
  V  V39  1  -0.00248850  0.37766976  0.37371381  1
  V  V40  1  0.49938171  0.74403219  0.24508542  1
  V  V41  1  0.12556142  0.12596909  0.49784358  1
  V  V42  1  0.25101351  -0.00677042  0.24188265  1
  V  V43  1  0.49610077  0.87747090  0.88170913  1
  V  V44  1  0.87572644  0.00110442  0.37047790  1
  V  V45  1  0.50209928  0.37822694  0.37620770  1
  V  V46  1  0.62529872  0.12497073  0.49739375  1
  V  V47  1  0.50039124  0.74435622  0.74858526  1
  V  V48  1  0.24777719  0.50505494  0.75709997  1
  V  V49  1  0.74593669  0.50260716  0.24636868  1
  V  V50  1  0.37600402  0.37479724  0.50260445  1
  V  V51  1  0.60037748  0.00515578  0.12240734  1
  V  V52  1  -0.00085021  0.25094309  0.24754152  1
  V  V53  1  0.37641929  0.87256775  0.50083056  1
  V  V54  1  0.00137391  0.12338516  0.12222075  1
  V  V55  1  0.00160393  0.61562395  0.11508250  1
  V  V56  1  -0.00688219  0.12647677  0.62850482  1
  V  V57  1  0.87539010  -0.00365820  0.87170429  1
  V  V58  1  0.75569733  0.25137688  0.49841988  1
  V  V59  1  0.00048039  0.62644902  0.62672507  1
  V  V60  1  0.63048513  0.87768577  0.24546913  1
  V  V61  1  -0.00016963  0.50154223  0.50104935  1
  V  V62  1  0.12475911  0.12400710  -0.00144919  1
  V  V63  1  0.37338163  0.12303343  0.74908853  1
  V  V64  1  0.61747767  0.25907382  0.87504375  1
  V  V65  1  0.37166138  0.62583929  0.75807094  1
  V  V66  1  0.12415869  0.50190076  0.62618627  1
  V  V67  1  0.12138063  0.37548638  0.75118070  1
  V  V68  1  0.24840627  0.37427878  0.62598864  1
  V  V69  1  0.00545068  0.74847319  0.25269806  1
  V  V70  1  0.62413327  0.87538677  0.74874248  1
  V  V71  1  0.74943689  0.87595460  0.62372446  1
  V  V72  1  0.36674835  0.50923351  0.37501461  1
  V  V73  1  0.75310202  0.00046409  0.23422998  1
  V  V74  1  0.87448418  0.75077601  0.62570365  1
  V  V75  1  0.62587572  0.38114004  0.23907712  1
  V  V76  1  0.49944073  0.12568127  0.62401473  1
  V  V77  1  0.00045443  0.00074745  0.49789913  1
  V  V78  1  0.37828657  -0.00105225  0.88135022  1
  V  V79  1  0.86987922  0.62817624  0.25490420  1
  V  V80  1  0.60833438  0.11944961  -0.00010501  1
  V  V81  1  0.86957109  0.50665660  0.37578420  1
  V  V82  1  0.37372608  -0.00141658  0.37488734  1
  V  V83  1  0.87043520  0.75806199  0.11755153  1
  V  V84  1  0.12329669  0.25119222  0.87564411  1
  Zn  Zn85  1  0.84360898  0.87324664  -0.00023405  1
  Zn  Zn86  1  -0.00589839  0.75623679  0.75847703  1
  Zn  Zn87  1  0.87466553  0.12710789  0.24284244  1
  Zn  Zn88  1  0.88538384  0.26166126  0.10860924  1
  Zn  Zn89  1  0.13192347  -0.00734257  0.11668743  1
  Zn  Zn90  1  0.24941683  0.74614316  -0.00637763  1
  Zn  Zn91  1  0.37355505  0.24960205  0.62619936  1
  Zn  Zn92  1  0.62756508  0.61567859  0.00952053  1
  Zn  Zn93  1  0.36723124  0.88501820  0.01225277  1
  Zn  Zn94  1  0.24662211  0.00030567  0.75119888  1
  Zn  Zn95  1  0.87432620  0.25425955  0.62895575  1
  Zn  Zn96  1  0.34392774  0.60470382  0.23998351  1
  Zn  Zn97  1  0.50039701  -0.00077956  0.49936338  1
  Zn  Zn98  1  0.51958077  0.48979835  0.01168205  1
  Zn  Zn99  1  0.63350919  0.74013908  0.36860936  1
  Zn  Zn100  1  0.50717225  0.60844776  0.12725033  1
  Zn  Zn101  1  0.87242276  0.37804797  0.50518795  1
  Zn  Zn102  1  0.75580916  0.38774942  0.10973731  1
  Zn  Zn103  1  0.74981052  0.12541040  0.87361714  1
  Zn  Zn104  1  0.37647655  0.12105858  0.24428886  1
  Zn  Zn105  1  0.25150624  0.12459751  0.37202445  1
  Zn  Zn106  1  0.74090667  0.38250478  0.62520761  1
  Zn  Zn107  1  0.18829800  0.18436428  0.18889329  1
  Zn  Zn108  1  0.18246957  0.18827071  0.68734763  1
  Zn  Zn109  1  0.18705368  0.68159923  0.18500606  1
  Zn  Zn110  1  0.18662009  0.68976759  0.68736420  1
  Zn  Zn111  1  0.68380110  0.18603486  0.18386571  1
  Zn  Zn112  1  0.67281571  0.21698168  0.67426755  1
  Zn  Zn113  1  0.68686388  0.68922555  0.18315294  1
  Zn  Zn114  1  0.68883453  0.68634840  0.68835344  1
  Zn  Zn115  1  0.31548374  0.31607061  0.31549358  1
  Zn  Zn116  1  0.31125048  0.31257720  0.81436408  1
  Zn  Zn117  1  0.28824833  0.77604765  0.29035284  1
  Zn  Zn118  1  0.30602978  0.81297823  0.81768471  1
  Zn  Zn119  1  0.81271463  0.31691144  0.30835807  1
  Zn  Zn120  1  0.80729738  0.31376267  0.82144253  1
  Zn  Zn121  1  0.81672971  0.81688014  0.30774770  1
  Zn  Zn122  1  0.81016510  0.81823906  0.81333586  1
  Zn  Zn123  1  0.18570299  0.43829655  0.43861648  1
  Zn  Zn124  1  0.18779277  0.43951051  0.93615413  1
  Zn  Zn125  1  0.19089956  0.93381773  0.43626368  1
  Zn  Zn126  1  0.19306267  0.93416081  0.94068098  1
  Zn  Zn127  1  0.68702924  0.43837707  0.43461348  1
  Zn  Zn128  1  0.69190230  0.43617631  0.92786517  1
  Zn  Zn129  1  0.69030381  0.93875744  0.43469778  1
  Zn  Zn130  1  0.68646288  0.93821109  0.93541069  1
  Zn  Zn131  1  0.31440971  0.06845184  0.06250139  1
  Zn  Zn132  1  0.31153368  0.06164063  0.56043751  1
  Zn  Zn133  1  0.32318588  0.57202532  0.06066347  1
  Zn  Zn134  1  0.31270007  0.56157355  0.56320709  1
  Zn  Zn135  1  0.81606520  0.06913773  0.05169787  1
  Zn  Zn136  1  0.81119657  0.06461739  0.55960564  1
  Zn  Zn137  1  0.81171005  0.57159568  0.06712051  1
  Zn  Zn138  1  0.81003992  0.56350762  0.56451483  1
  Zn  Zn139  1  0.42881049  0.43205062  0.18731502  1
  Zn  Zn140  1  0.43415082  0.43773352  0.68938775  1
  Zn  Zn141  1  0.43535758  0.92911969  0.19412513  1
  Zn  Zn142  1  0.43824743  0.93597458  0.69091621  1
  Zn  Zn143  1  0.93497456  0.43739480  0.18436194  1
  Zn  Zn144  1  0.93116281  0.43478212  0.68972075  1
  Zn  Zn145  1  0.94121012  0.93849218  0.18453701  1
  Zn  Zn146  1  0.93466347  0.94086033  0.68678935  1
  Zn  Zn147  1  0.06612078  0.06131924  0.30965520  1
  Zn  Zn148  1  0.06005113  0.06026091  0.81216364  1
  Zn  Zn149  1  0.06010433  0.56320870  0.30866763  1
  Zn  Zn150  1  0.05598952  0.55925622  0.81412028  1
  Zn  Zn151  1  0.56297904  0.06184119  0.31139242  1
  Zn  Zn152  1  0.56243789  0.06398032  0.81179450  1
  Zn  Zn153  1  0.56721629  0.56382020  0.32394416  1
  Zn  Zn154  1  0.56166694  0.56425785  0.81844976  1
  Zn  Zn155  1  0.43708836  0.18774117  0.43556810  1
  Zn  Zn156  1  0.43352854  0.18825145  0.93705479  1
  Zn  Zn157  1  0.44339211  0.68743745  0.43932861  1
  Zn  Zn158  1  0.44300256  0.67878265  0.94092303  1
  Zn  Zn159  1  0.93832479  0.18652770  0.43433127  1
  Zn  Zn160  1  0.93643641  0.17821022  0.93113776  1
  Zn  Zn161  1  0.94068428  0.68849328  0.43933053  1
  Zn  Zn162  1  0.94163365  0.69095252  0.93670495  1
  Zn  Zn163  1  0.07036070  0.31713472  0.06812551  1
  Zn  Zn164  1  0.06120587  0.31272912  0.56314797  1
  Zn  Zn165  1  0.06290802  0.80297695  0.06251711  1
  Zn  Zn166  1  0.06278615  0.81022731  0.56462766  1
  Zn  Zn167  1  0.56347879  0.31043778  0.06268061  1
  Zn  Zn168  1  0.56663845  0.31634577  0.56529202  1
  Zn  Zn169  1  0.56589239  0.81704184  0.06243525  1
  Zn  Zn170  1  0.56531205  0.80915163  0.56198813  1
  O  O171  1  0.11639085  0.12305047  0.11723745  1
  O  O172  1  0.11612706  0.11975383  0.61804167  1
  O  O173  1  0.11252039  0.61445716  0.13187337  1
  O  O174  1  0.11804445  0.61858366  0.62348256  1
  O  O175  1  0.62227128  0.11339453  0.11608206  1
  O  O176  1  0.61533435  0.12257202  0.61857683  1
  O  O177  1  0.62104471  0.62754895  0.12272596  1
  O  O178  1  0.62816446  0.63255035  0.60839442  1
  O  O179  1  0.38577178  0.38239739  0.38293517  1
  O  O180  1  0.37044225  0.37831309  0.88797630  1
  O  O181  1  0.38778968  0.88462606  0.38184184  1
  O  O182  1  0.38157654  0.88457007  0.86722902  1
  O  O183  1  0.88584546  0.38612945  0.37288982  1
  O  O184  1  0.87926754  0.38992058  0.87509520  1
  O  O185  1  0.88605393  0.88231963  0.37837013  1
  O  O186  1  0.86808157  0.88807870  0.88126666  1
  O  O187  1  0.26004475  -0.00287048  0.36699894  1
  O  O188  1  0.25954653  0.00785864  0.87083258  1
  O  O189  1  0.26801289  0.49714937  0.38681017  1
  O  O190  1  0.25841572  0.49283512  0.86154063  1
  O  O191  1  0.75589771  0.00573513  0.36335248  1
  O  O192  1  0.75202109  0.00156681  0.86262461  1
  O  O193  1  0.76378718  0.49610309  0.36723493  1
  O  O194  1  0.76371948  0.50983363  0.86528588  1
  O  O195  1  0.24134077  0.51875996  0.13140543  1
  O  O196  1  0.24486701  0.49345308  0.63480591  1
  O  O197  1  0.25347983  1.00170453  0.13683543  1
  O  O198  1  0.24451676  0.99058573  0.62548178  1
  O  O199  1  0.75677294  0.50297087  0.14179976  1
  O  O200  1  0.75073965  0.50158450  0.64117604  1
  O  O201  1  0.75397697  1.00833390  0.13404970  1
  O  O202  1  0.74579161  0.99621210  0.62879519  1
  O  O203  1  0.00818467  0.37019137  0.25824526  1
  O  O204  1  0.00346584  0.36733492  0.75828201  1
  O  O205  1  0.00680261  0.86977352  0.25694649  1
  O  O206  1  0.01273100  0.87551746  0.74200770  1
  O  O207  1  0.50683333  0.36906740  0.25998014  1
  O  O208  1  0.49133264  0.35639776  0.74522045  1
  O  O209  1  0.51218042  0.86854345  0.25850747  1
  O  O210  1  0.50422392  0.86510219  0.75641351  1
  O  O211  1  0.49763211  0.14196085  0.25800345  1
  O  O212  1  0.49067115  0.12930298  0.74263675  1
  O  O213  1  0.50882604  0.64314785  0.25881709  1
  O  O214  1  0.49079734  0.63744074  0.75447860  1
  O  O215  1  1.00441159  0.13313148  0.23981844  1
  O  O216  1  1.00764037  0.13584011  0.74001975  1
  O  O217  1  0.99114787  0.63341516  0.24724420  1
  O  O218  1  0.98894333  0.62507140  0.74437864  1
  O  O219  1  0.36797045  0.25754294  0.00394842  1
  O  O220  1  0.36873635  0.25669618  0.50082425  1
  O  O221  1  0.39085093  0.74902635  0.01753186  1
  O  O222  1  0.37233306  0.75184283  0.51114586  1
  O  O223  1  0.85660886  0.24087710  -0.00864603  1
  O  O224  1  0.86662018  0.25543381  0.49110538  1
  O  O225  1  0.88236427  0.75352573  0.01351338  1
  O  O226  1  0.86905727  0.75444445  0.50495081  1
  O  O227  1  0.12939428  0.24690408  0.49379431  1
  O  O228  1  0.13121177  0.24597575  0.99600014  1
  O  O229  1  0.13465780  0.73961774  0.50996347  1
  O  O230  1  0.12547327  0.74369934  0.98769526  1
  O  O231  1  0.63403890  0.24266352  0.48963988  1
  O  O232  1  0.62614820  0.23886743  0.99198536  1
  O  O233  1  0.63345983  0.74313095  0.49659550  1
  O  O234  1  0.61662966  0.74905735  0.98444964  1
  O  O235  1  0.49064361  0.25946730  0.13732132  1
  O  O236  1  0.49732011  0.23647689  0.63336156  1
  O  O237  1  0.50406533  0.75265959  0.14009445  1
  O  O238  1  0.48850506  0.75896215  0.63617272  1
  O  O239  1  1.00486647  0.24437194  0.13168927  1
  O  O240  1  0.99840809  0.24431410  0.63364434  1
  O  O241  1  0.99458821  0.73755355  0.13433711  1
  O  O242  1  0.99076217  0.74384598  0.62755184  1
  O  O243  1  0.00713951  0.25867874  0.36816957  1
  O  O244  1  0.00283134  0.25484157  0.86971257  1
  O  O245  1  -0.00667472  0.76146081  0.36566651  1
  O  O246  1  0.01876861  0.74317308  0.87097293  1
  O  O247  1  0.50375036  0.26088427  0.36942950  1
  O  O248  1  0.50816346  0.24467721  0.87070083  1
  O  O249  1  0.50214126  0.76131622  0.36688770  1
  O  O250  1  0.50491114  0.75644899  0.86518699  1
  O  O251  1  0.24307308  0.13141912  0.49792723  1
  O  O252  1  0.24433994  0.13402643  0.99330495  1
  O  O253  1  0.24066417  0.63309494  0.50940435  1
  O  O254  1  0.27478178  0.63716841  0.98639181  1
  O  O255  1  0.74547897  0.12872685  0.48666315  1
  O  O256  1  0.73525045  0.13450960  0.99809276  1
  O  O257  1  0.74289210  0.63532674  0.50337348  1
  O  O258  1  0.75140721  0.62611310  0.98479180  1
  O  O259  1  0.25416794  0.36114674  -0.00565939  1
  O  O260  1  0.25354084  0.37010233  0.50670676  1
  O  O261  1  0.25926429  0.86003980  -0.01089665  1
  O  O262  1  0.25374355  0.86925408  0.51326915  1
  O  O263  1  0.74044763  0.35427344  -0.00381739  1
  O  O264  1  0.74826454  0.36320210  0.49878862  1
  O  O265  1  0.73331595  0.87616629  0.01141018  1
  O  O266  1  0.75560471  0.86962792  0.50461197  1
  O  O267  1  0.12529325  0.49038286  0.24782043  1
  O  O268  1  0.13032227  0.49552626  0.74680760  1
  O  O269  1  0.13418084  0.99109910  0.24644619  1
  O  O270  1  0.12501557  0.99058522  0.74144651  1
  O  O271  1  0.63537272  0.49263592  0.26125753  1
  O  O272  1  0.64032182  0.50622874  0.75997037  1
  O  O273  1  0.63072220  0.99963552  0.23621766  1
  O  O274  1  0.63122764  0.99522570  0.74294752  1
  O  O275  1  0.36805534  -0.00265930  0.25795011  1
  O  O276  1  0.37211697  0.01124392  0.75545694  1
  O  O277  1  0.37777157  0.49787580  0.26939802  1
  O  O278  1  0.36763143  0.50573912  0.75529818  1
  O  O279  1  0.86912947  0.00128003  0.25231365  1
  O  O280  1  0.86312218  -0.00591363  0.75666945  1
  O  O281  1  0.86979459  0.50965147  0.25829225  1
  O  O282  1  0.86998082  0.51256561  0.75659982  1
  O  O283  1  0.11659526  0.37449278  0.36563904  1
  O  O284  1  0.11473352  0.37196825  0.87102950  1
  O  O285  1  0.11307137  0.87941571  0.36742829  1
  O  O286  1  0.12591979  0.88292456  0.85711585  1
  O  O287  1  0.61657140  0.37026471  0.36811661  1
  O  O288  1  0.62245037  0.35684623  0.87501533  1
  O  O289  1  0.61718795  0.88043506  0.36462273  1
  O  O290  1  0.61495767  0.86997222  0.86717217  1
  O  O291  1  0.37563586  0.14254568  0.12513913  1
  O  O292  1  0.38130568  0.12371853  0.63199558  1
  O  O293  1  0.38800078  0.63736515  0.13636689  1
  O  O294  1  0.37199846  0.63584628  0.63605407  1
  O  O295  1  0.89060845  0.13449973  0.12214850  1
  O  O296  1  0.89114289  0.12507272  0.61819435  1
  O  O297  1  0.88666447  0.63218195  0.13520989  1
  O  O298  1  0.87934454  0.63015514  0.63285112  1
  O  O299  1  0.25507883  0.24490358  0.11414993  1
  O  O300  1  0.24868759  0.25632496  0.61916521  1
  O  O301  1  0.26906478  0.74489767  0.12259404  1
  O  O302  1  0.26009959  0.75807151  0.62155409  1
  O  O303  1  0.74790299  0.24731690  0.10924574  1
  O  O304  1  0.76312520  0.22791139  0.60296115  1
  O  O305  1  0.77273758  0.74476249  0.13216182  1
  O  O306  1  0.75634459  0.75683165  0.61663019  1
  O  O307  1  0.24467748  0.25008989  0.38186219  1
  O  O308  1  0.24278861  0.24429450  0.88215478  1
  O  O309  1  0.25827987  0.76484332  0.39993660  1
  O  O310  1  0.22645824  0.74847761  0.86485168  1
  O  O311  1  0.74629744  0.24457060  0.37624285  1
  O  O312  1  0.73438769  0.24460431  0.88056673  1
  O  O313  1  0.75328169  0.75970000  0.38714706  1
  O  O314  1  0.73882570  0.74349217  0.86565621  1
  O  O315  1  0.00684366  0.12011282  0.00572115  1
  O  O316  1  0.00663018  0.12106599  0.50565069  1
  O  O317  1  -0.00506672  0.62407349  0.01707506  1
  O  O318  1  0.00800376  0.62155712  0.50736000  1
  O  O319  1  0.50971629  0.13103576  0.00167718  1
  O  O320  1  0.50456870  0.12497209  0.50829447  1
  O  O321  1  0.50611004  0.60985929  0.00178477  1
  O  O322  1  0.51310406  0.61686396  0.50121766  1
  O  O323  1  0.49992804  0.37932775  0.49513740  1
  O  O324  1  0.48528511  0.37118397  0.99918653  1
  O  O325  1  0.49681654  0.87456423  0.49219078  1
  O  O326  1  0.49445872  0.87173877  0.98398130  1
  O  O327  1  1.00159026  0.38163190  0.48824550  1
  O  O328  1  1.00228031  0.36638769  0.98864935  1
  O  O329  1  0.99668469  0.87905678  0.49306278  1
  O  O330  1  1.00795484  0.88774608  1.00459145  1
  O  O331  1  0.49606229  0.48895522  0.38601730  1
  O  O332  1  0.48339710  0.49778819  0.87103073  1
  O  O333  1  0.49368161  0.99151448  0.37392367  1
  O  O334  1  0.48954538  0.98996720  0.86472315  1
  O  O335  1  0.99261266  0.49394930  0.37935654  1
  O  O336  1  0.98534365  0.49210553  0.87413085  1
  O  O337  1  0.99629079  0.99304901  0.37804925  1
  O  O338  1  0.99023825  1.00533721  0.88368720  1
  O  O339  1  0.00245745  0.00998869  0.11530040  1
  O  O340  1  0.00413221  0.00731468  0.61797752  1
  O  O341  1  0.00391475  0.51335363  0.13271237  1
  O  O342  1  0.00350512  0.50483790  0.62067281  1
  O  O343  1  0.50249905  0.00553744  0.13284418  1
  O  O344  1  0.50495406  0.01007310  0.62565183  1
  O  O345  1  0.49218207  0.49473832  0.12344170  1
  O  O346  1  0.50037985  0.49231114  0.61492243  1
  O  O347  1  0.23521739  0.37254591  0.25518951  1
  O  O348  1  0.24256397  0.38114898  0.74594713  1
  O  O349  1  0.23756151  0.87859807  0.25699106  1
  O  O350  1  0.23984524  0.87561936  0.73905304  1
  O  O351  1  0.73942675  0.38507667  0.25208207  1
  O  O352  1  0.75493957  0.39394132  0.75695202  1
  O  O353  1  0.73928568  0.88663581  0.25423386  1
  O  O354  1  0.74157476  0.88085256  0.74043776  1
  O  O355  1  0.25279127  0.11190554  0.25358892  1
  O  O356  1  0.25750120  0.12659582  0.75402701  1
  O  O357  1  0.25757018  0.66716919  0.26829118  1
  O  O358  1  0.25763843  0.61380159  0.74343538  1
  O  O359  1  0.75162038  0.11889338  0.25248406  1
  O  O360  1  0.74125414  0.11468255  0.74505011  1
  O  O361  1  0.76366968  0.62116891  0.25002605  1
  O  O362  1  0.75870821  0.61884732  0.75754819  1
  O  O363  1  0.37571871  0.11022728  0.37389121  1
  O  O364  1  0.37115771  0.11860505  0.86745571  1
  O  O365  1  0.38346634  0.60947547  0.38012330  1
  O  O366  1  0.37628279  0.61639748  0.86227999  1
  O  O367  1  0.87120063  0.11736576  0.36929796  1
  O  O368  1  0.86673777  0.10508664  0.87951819  1
  O  O369  1  0.88455309  0.61682390  0.36706478  1
  O  O370  1  0.87163434  0.61971893  0.86912840  1
  O  O371  1  0.12368218  0.39118977  0.13821805  1
  O  O372  1  0.12750994  0.38221855  0.63064377  1
  O  O373  1  0.11878126  0.87502201  0.13752705  1
  O  O374  1  0.13262785  0.87909815  0.62989460  1
  O  O375  1  0.63053132  0.37122032  0.13671370  1
  O  O376  1  0.64447517  0.32734302  0.64153747  1
  O  O377  1  0.61585739  0.89365343  0.13443054  1
  O  O378  1  0.62885037  0.88175266  0.62852765  1
  O  O379  1  0.11747523  0.26114867  0.25233066  1
  O  O380  1  0.11569748  0.25662345  0.75701045  1
  O  O381  1  0.11153123  0.75723749  0.24418464  1
  O  O382  1  0.12148333  0.76247345  0.75274136  1
  O  O383  1  0.61843028  0.25848761  0.25269114  1
  O  O384  1  0.61310418  0.23174757  0.77132619  1
  O  O385  1  0.62138051  0.76258666  0.25149709  1
  O  O386  1  0.61619281  0.75478658  0.75354480  1
  O  O387  1  0.38101426  0.25427863  0.24287715  1
  O  O388  1  0.38002498  0.23728172  0.75257704  1
  O  O389  1  0.39466462  0.75837098  0.24199375  1
  O  O390  1  0.37843925  0.74371328  0.74706827  1
  O  O391  1  0.89237061  0.24915126  0.25345860  1
  O  O392  1  0.88648409  0.25402737  0.75548897  1
  O  O393  1  0.88526272  0.74582124  0.24407412  1
  O  O394  1  0.87353199  0.74109761  0.74635608  1
  O  O395  1  0.38569929  0.49507025  0.49614136  1
  O  O396  1  0.36765741  0.48317685  0.99297453  1
  O  O397  1  0.37652298  0.99205612  0.49256241  1
  O  O398  1  0.37214190  1.00328138  0.98572413  1
  O  O399  1  0.88023384  0.50208309  0.49189574  1
  O  O400  1  0.86821107  0.50614602  0.98676765  1
  O  O401  1  0.88065546  0.99439740  0.49227721  1
  O  O402  1  0.88329285  0.99367508  0.99483006  1
  O  O403  1  0.11929073  0.00644617  -0.00220931  1
  O  O404  1  0.11998191  0.00409394  0.50306924  1
  O  O405  1  0.13372595  0.49490418  0.01889348  1
  O  O406  1  0.12004660  0.50791223  0.50685974  1
  O  O407  1  0.61837383  0.00929987  0.01280218  1
  O  O408  1  0.62470655  0.00702161  0.50559177  1
  O  O409  1  0.62941658  0.50105220  -0.01078861  1
  O  O410  1  0.62198960  0.51026819  0.49880181  1
  O  O411  1  0.36946117  0.36309185  0.10968203  1
  O  O412  1  0.36656757  0.37217553  0.61952871  1
  O  O413  1  0.38361247  0.85875270  0.12454582  1
  O  O414  1  0.36757725  0.86849791  0.62297393  1
  O  O415  1  0.86678931  0.36930847  0.13141296  1
  O  O416  1  0.86400872  0.37152136  0.62219696  1
  O  O417  1  0.88337460  0.86035831  0.12533541  1
  O  O418  1  0.87031564  0.87118247  0.61723228  1
  O  O419  1  0.12523160  0.13257573  0.38038555  1
  O  O420  1  0.12907380  0.13118727  0.87883514  1
  O  O421  1  0.11864458  0.62078372  0.38922918  1
  O  O422  1  0.12677198  0.62333058  0.87394889  1
  O  O423  1  0.63080528  0.12982105  0.37690855  1
  O  O424  1  0.62404940  0.12195935  0.89123984  1
  O  O425  1  0.62739326  0.62878897  0.39448515  1
  O  O426  1  0.63468448  0.63675227  0.87231461  1
