# generated using pymatgen
data_V85Zn86O256
_symmetry_space_group_name_H-M   'P 1'
_cell_length_a   16.95266554
_cell_length_b   16.94669093
_cell_length_c   16.95592807
_cell_angle_alpha   89.91509511
_cell_angle_beta   89.86159794
_cell_angle_gamma   89.89861122
_symmetry_Int_Tables_number   1
_chemical_formula_structural   V85Zn86O256
_chemical_formula_sum   'V85 Zn86 O256'
_cell_volume   4871.26826697
_cell_formula_units_Z   1
loop_
 _symmetry_equiv_pos_site_id
 _symmetry_equiv_pos_as_xyz
  1  'x, y, z'
loop_
 _atom_site_type_symbol
 _atom_site_label
 _atom_site_symmetry_multiplicity
 _atom_site_fract_x
 _atom_site_fract_y
 _atom_site_fract_z
 _atom_site_occupancy
  V  V0  1  0.52612679  0.37224911  0.37044289  1
  V  V1  1  0.87014603  0.76567294  0.62096730  1
  V  V2  1  0.24889760  0.50490909  0.75373970  1
  V  V3  1  0.49375841  0.88248398  0.37210202  1
  V  V4  1  0.12183831  0.74923053  0.37384890  1
  V  V5  1  0.49516259  0.37523520  0.87868831  1
  V  V6  1  0.62330817  0.12496283  0.00169772  1
  V  V7  1  0.00075336  0.25031645  0.25689938  1
  V  V8  1  0.24947405  0.62351398  0.37444701  1
  V  V9  1  0.51940360  0.78072499  0.71777448  1
  V  V10  1  0.24864095  0.75052244  0.49776030  1
  V  V11  1  0.87375414  0.62542537  0.74706901  1
  V  V12  1  0.75176551  0.62478413  0.38110507  1
  V  V13  1  0.75154194  0.12022386  0.87269242  1
  V  V14  1  0.61917480  0.62586794  0.00722314  1
  V  V15  1  0.25765804  0.00643549  0.25764239  1
  V  V16  1  0.87401533  0.13131908  0.74231468  1
  V  V17  1  0.61993667  0.25009832  0.87278034  1
  V  V18  1  0.62571559  0.49816332  0.62401627  1
  V  V19  1  0.12875135  0.62716061  -0.01181196  1
  V  V20  1  0.48975395  0.12946782  0.12581077  1
  V  V21  1  0.13442026  0.12084157  0.49580314  1
  V  V22  1  0.49548188  0.50193718  0.00487318  1
  V  V23  1  0.26382891  0.24922812  0.49672582  1
  V  V24  1  0.25698330  0.37474500  0.62038738  1
  V  V25  1  0.26163384  0.37008114  0.12119555  1
  V  V26  1  0.87714010  0.11823606  0.25958510  1
  V  V27  1  0.00452068  0.36655148  0.87291720  1
  V  V28  1  0.37208495  0.88385089  0.49565083  1
  V  V29  1  0.87541344  0.24856954  0.12652685  1
  V  V30  1  0.74823051  0.75556862  0.00400927  1
  V  V31  1  0.87447266  0.62286254  0.24891997  1
  V  V32  1  0.00320300  0.75994109  0.75097973  1
  V  V33  1  0.62540262  0.75007020  0.37537125  1
  V  V34  1  0.87275096  0.50184695  0.87546193  1
  V  V35  1  -0.00120678  0.75157208  0.25013276  1
  V  V36  1  0.24901704  0.87181493  0.12654007  1
  V  V37  1  0.87623086  0.87827837  -0.00267431  1
  V  V38  1  0.12175539  0.50141001  0.12345961  1
  V  V39  1  0.87278760  0.37601020  0.00229692  1
  V  V40  1  0.13403742  0.24479390  0.37333176  1
  V  V41  1  0.49877960  0.74661183  0.24545024  1
  V  V42  1  0.25064355  0.87558758  0.63777789  1
  V  V43  1  0.50381827  0.12807029  0.63838867  1
  V  V44  1  0.38242264  0.62491586  0.75023058  1
  V  V45  1  -0.01266398  0.87659599  0.37754049  1
  V  V46  1  0.12579860  0.49747031  0.62588660  1
  V  V47  1  0.26782126  0.25238438  -0.00116753  1
  V  V48  1  0.37251122  0.87873030  0.00223870  1
  V  V49  1  0.75094350  0.24842226  0.00058356  1
  V  V50  1  0.50868194  0.25779357  0.24168533  1
  V  V51  1  0.88000310  0.49223150  0.37590962  1
  V  V52  1  0.75271126  0.76748262  0.50179461  1
  V  V53  1  0.62836584  0.87597687  0.24360878  1
  V  V54  1  0.75189359  -0.00227326  0.24941089  1
  V  V55  1  0.62110705  0.37241590  0.75161254  1
  V  V56  1  0.12185170  0.37292733  0.25276365  1
  V  V57  1  0.25513347  0.12141449  0.86350361  1
  V  V58  1  0.12409367  0.62268510  0.49950092  1
  V  V59  1  0.37786667  0.62420119  0.24600662  1
  V  V60  1  0.74084829  0.12688832  0.37411314  1
  V  V61  1  0.37440276  0.74593615  0.61930263  1
  V  V62  1  0.24985906  0.49728080  0.24960947  1
  V  V63  1  0.37400465  0.48755628  0.37743881  1
  V  V64  1  0.87032191  0.75674461  0.12550382  1
  V  V65  1  0.75607875  0.36632154  0.62760500  1
  V  V66  1  -0.00905706  -0.00403544  0.49399643  1
  V  V67  1  0.73909571  -0.01059689  0.73259066  1
  V  V68  1  0.62054592  0.74995081  0.87574542  1
  V  V69  1  0.00145413  0.49422881  0.49883602  1
  V  V70  1  0.50356830  0.87325648  0.88164971  1
  V  V71  1  0.88014375  0.36642279  0.50394489  1
  V  V72  1  0.12620953  0.00048677  0.12093190  1
  V  V73  1  0.49798100  0.00248911  0.00234141  1
  V  V74  1  0.74387850  0.25007956  0.49569207  1
  V  V75  1  0.13051467  -0.00521285  0.63460855  1
  V  V76  1  -0.00257449  0.13018391  0.62140739  1
  V  V77  1  0.37838030  0.24755303  0.64423002  1
  V  V78  1  0.12558708  0.13731879  -0.00502898  1
  V  V79  1  0.25001875  0.74652766  -0.00884559  1
  V  V80  1  0.00115108  0.12389832  0.12444552  1
  V  V81  1  0.49707580  0.49386419  0.49818103  1
  V  V82  1  0.37129842  0.50164316  0.87864458  1
  V  V83  1  0.50595403  0.00902527  0.49633156  1
  V  V84  1  0.62563763  0.49480475  0.13003483  1
  Zn  Zn85  1  0.37721988  0.00228219  0.85192189  1
  Zn  Zn86  1  0.87782317  -0.00294885  0.86772328  1
  Zn  Zn87  1  0.62477914  0.62706075  0.50276379  1
  Zn  Zn88  1  0.31349256  0.06383369  0.43287153  1
  Zn  Zn89  1  0.37787943  0.74195955  0.12195014  1
  Zn  Zn90  1  0.62603298  0.12489802  0.50293152  1
  Zn  Zn91  1  0.13953885  0.75699807  0.85852673  1
  Zn  Zn92  1  0.74110217  0.49093606  0.25762171  1
  Zn  Zn93  1  0.62677488  -0.00059369  0.12420939  1
  Zn  Zn94  1  -0.00022612  0.00084044  -0.00480984  1
  Zn  Zn95  1  -0.00137087  0.62578666  0.62438997  1
  Zn  Zn96  1  -0.00087724  0.62729928  0.12082856  1
  Zn  Zn97  1  0.01126030  0.88358595  0.87032364  1
  Zn  Zn98  1  0.00309907  0.24802352  0.74694345  1
  Zn  Zn99  1  0.74968210  0.50013058  0.74985054  1
  Zn  Zn100  1  0.49907764  0.61705872  0.62098315  1
  Zn  Zn101  1  0.74117251  0.36680936  0.13543934  1
  Zn  Zn102  1  0.12334062  0.87690699  0.25155457  1
  Zn  Zn103  1  0.13107978  0.36510186  0.75504288  1
  Zn  Zn104  1  0.37188437  0.13627386  0.25984761  1
  Zn  Zn105  1  0.74738395  0.62544387  0.87489539  1
  Zn  Zn106  1  -0.00048998  0.50366639  -0.00161701  1
  Zn  Zn107  1  0.19050226  0.18733577  0.18146699  1
  Zn  Zn108  1  0.18135661  0.19015464  0.68402112  1
  Zn  Zn109  1  0.18717251  0.68616591  0.18596173  1
  Zn  Zn110  1  0.18947433  0.68405809  0.68404592  1
  Zn  Zn111  1  0.68528239  0.18504394  0.18795002  1
  Zn  Zn112  1  0.68758224  0.18659802  0.68777714  1
  Zn  Zn113  1  0.68725503  0.68416179  0.18893685  1
  Zn  Zn114  1  0.69082040  0.68712727  0.68532303  1
  Zn  Zn115  1  0.31623934  0.30858697  0.30599975  1
  Zn  Zn116  1  0.30733706  0.31442255  0.81723252  1
  Zn  Zn117  1  0.31091563  0.81239677  0.31121892  1
  Zn  Zn118  1  0.32918675  0.81084537  0.81036618  1
  Zn  Zn119  1  0.81053320  0.31045908  0.31399386  1
  Zn  Zn120  1  0.81325057  0.31081044  0.81308629  1
  Zn  Zn121  1  0.81042104  0.81219014  0.31312402  1
  Zn  Zn122  1  0.81100606  0.81430811  0.81330692  1
  Zn  Zn123  1  0.18775437  0.43206693  0.43656073  1
  Zn  Zn124  1  0.18785850  0.43539083  0.94020287  1
  Zn  Zn125  1  0.17931037  0.93236833  0.43898778  1
  Zn  Zn126  1  0.18785462  0.94016435  0.93019173  1
  Zn  Zn127  1  0.69381054  0.43857385  0.44347892  1
  Zn  Zn128  1  0.68673647  0.43797850  0.94129283  1
  Zn  Zn129  1  0.68576624  0.94269190  0.42731697  1
  Zn  Zn130  1  0.68741323  0.93807122  0.93631228  1
  Zn  Zn131  1  0.30959890  0.06401443  0.06225741  1
  Zn  Zn132  1  0.31641683  0.06117482  0.68590793  1
  Zn  Zn133  1  0.30818859  0.56032830  0.06313550  1
  Zn  Zn134  1  0.31292658  0.56100807  0.56110466  1
  Zn  Zn135  1  0.81145939  0.06208342  0.06680340  1
  Zn  Zn136  1  0.81068432  0.06145915  0.56098020  1
  Zn  Zn137  1  0.80664972  0.56555107  0.06189092  1
  Zn  Zn138  1  0.81339413  0.56100889  0.56370953  1
  Zn  Zn139  1  0.44137436  0.43874411  0.19007464  1
  Zn  Zn140  1  0.43622838  0.43462582  0.69078430  1
  Zn  Zn141  1  0.43793568  0.93871212  0.18536917  1
  Zn  Zn142  1  0.45832020  0.93737843  0.67880132  1
  Zn  Zn143  1  0.93567939  0.43551458  0.18917455  1
  Zn  Zn144  1  0.93857863  0.43830682  0.68822405  1
  Zn  Zn145  1  0.93796480  0.93641967  0.18626229  1
  Zn  Zn146  1  0.93415054  0.94690531  0.68509005  1
  Zn  Zn147  1  0.06731272  0.06030616  0.31201617  1
  Zn  Zn148  1  0.06364371  0.06773599  0.81491070  1
  Zn  Zn149  1  0.06003069  0.56236382  0.31188409  1
  Zn  Zn150  1  0.05878584  0.56315930  0.81121100  1
  Zn  Zn151  1  0.56116342  0.06585630  0.30897846  1
  Zn  Zn152  1  0.56363123  0.05718939  0.81433535  1
  Zn  Zn153  1  0.56123205  0.56361664  0.31536051  1
  Zn  Zn154  1  0.56225641  0.56125615  0.81483887  1
  Zn  Zn155  1  0.44576305  0.19368652  0.43078045  1
  Zn  Zn156  1  0.43583194  0.18567966  0.93263069  1
  Zn  Zn157  1  0.43725581  0.68443855  0.43384376  1
  Zn  Zn158  1  0.43370700  0.68445521  0.93878540  1
  Zn  Zn159  1  0.94049178  0.18550459  0.43764842  1
  Zn  Zn160  1  0.93590530  0.18441757  0.93726751  1
  Zn  Zn161  1  0.93715951  0.68647603  0.43993986  1
  Zn  Zn162  1  0.94015008  0.68817161  0.93625979  1
  Zn  Zn163  1  0.06100487  0.31492124  0.06464566  1
  Zn  Zn164  1  0.07080589  0.31256780  0.56148643  1
  Zn  Zn165  1  0.06189793  0.81136095  0.05878637  1
  Zn  Zn166  1  0.06066341  0.81369433  0.56427201  1
  Zn  Zn167  1  0.55936445  0.31370872  0.05943178  1
  Zn  Zn168  1  0.56057090  0.31234987  0.56240421  1
  Zn  Zn169  1  0.56147007  0.81214868  0.06437274  1
  Zn  Zn170  1  0.56158237  0.81524908  0.55285458  1
  O  O171  1  0.12096822  0.11888565  0.11694555  1
  O  O172  1  0.12043704  0.11295848  0.61462731  1
  O  O173  1  0.12408884  0.61373846  0.12016094  1
  O  O174  1  0.12476548  0.61495136  0.61621200  1
  O  O175  1  0.61348345  0.12580200  0.11616619  1
  O  O176  1  0.60746467  0.14217253  0.62001912  1
  O  O177  1  0.62723070  0.61655571  0.11392938  1
  O  O178  1  0.62552429  0.60937341  0.62550152  1
  O  O179  1  0.37585354  0.38683804  0.37052022  1
  O  O180  1  0.38621522  0.38656825  0.86721960  1
  O  O181  1  0.38356661  0.86710690  0.38326187  1
  O  O182  1  0.38099664  0.87609745  0.89199519  1
  O  O183  1  0.87163212  0.38607206  0.38702996  1
  O  O184  1  0.88009542  0.38115770  0.88334546  1
  O  O185  1  0.88776940  0.87060519  0.37378488  1
  O  O186  1  0.87772312  0.87555092  0.88649200  1
  O  O187  1  0.24338469  -0.00318138  0.36201280  1
  O  O188  1  0.25731340  0.01662762  0.88052024  1
  O  O189  1  0.25548109  0.50179274  0.37051031  1
  O  O190  1  0.25974744  0.48976547  0.86590201  1
  O  O191  1  0.74978261  0.01220743  0.36188426  1
  O  O192  1  0.74986967  0.01270533  0.87107961  1
  O  O193  1  0.76140109  0.50876887  0.37774819  1
  O  O194  1  0.76102387  0.50035653  0.87460685  1
  O  O195  1  0.23909690  0.49158719  0.12936147  1
  O  O196  1  0.24828903  0.49193492  0.63080926  1
  O  O197  1  0.24397676  0.99081205  0.13078545  1
  O  O198  1  0.23799958  0.99359574  0.62734939  1
  O  O199  1  0.73400876  0.49963232  0.12384030  1
  O  O200  1  0.74063010  0.48689041  0.62262329  1
  O  O201  1  0.74398014  1.00887548  0.14300929  1
  O  O202  1  0.74646797  1.00250262  0.63237895  1
  O  O203  1  0.01038832  0.36241207  0.24310764  1
  O  O204  1  -0.00422878  0.37352017  0.76411641  1
  O  O205  1  0.00122091  0.86978465  0.25810415  1
  O  O206  1  -0.00651550  0.86279353  0.74507050  1
  O  O207  1  0.50323003  0.36915265  0.25916310  1
  O  O208  1  0.51261795  0.38125145  0.76225320  1
  O  O209  1  0.50386256  0.86857031  0.25601019  1
  O  O210  1  0.48209176  0.86701866  0.77875189  1
  O  O211  1  0.50086408  0.13659825  0.24102160  1
  O  O212  1  0.50470166  0.12203265  0.73752218  1
  O  O213  1  0.48972359  0.63542502  0.26113066  1
  O  O214  1  0.48837180  0.61484540  0.74342785  1
  O  O215  1  0.99550573  0.12940698  0.24621891  1
  O  O216  1  0.99143038  0.12298353  0.73884886  1
  O  O217  1  0.98831355  0.63213336  0.25062815  1
  O  O218  1  0.98777271  0.63396214  0.74735032  1
  O  O219  1  0.36661443  0.25068796  0.00105210  1
  O  O220  1  0.36460615  0.24791606  0.50002222  1
  O  O221  1  0.36843859  0.75614382  0.00422355  1
  O  O222  1  0.36854288  0.75387448  0.50103482  1
  O  O223  1  0.87078253  0.25611186  0.00534892  1
  O  O224  1  0.87189231  0.26137134  0.49490695  1
  O  O225  1  0.86748972  0.75456630  0.00589853  1
  O  O226  1  0.86893536  0.74572853  0.51391371  1
  O  O227  1  0.13375068  0.24156145  0.49120596  1
  O  O228  1  0.12652036  0.23995347  1.00433525  1
  O  O229  1  0.12779896  0.74326306  0.49514804  1
  O  O230  1  0.13487699  0.74065378  1.00262471  1
  O  O231  1  0.64099497  0.25453672  0.50020658  1
  O  O232  1  0.63068753  0.24628367  0.99114860  1
  O  O233  1  0.63470317  0.74882433  0.49544228  1
  O  O234  1  0.62910715  0.74468822  0.99767662  1
  O  O235  1  0.50142059  0.24755098  0.13320542  1
  O  O236  1  0.48490270  0.24507832  0.61874259  1
  O  O237  1  0.49762305  0.75285631  0.14091804  1
  O  O238  1  0.49325019  0.73531252  0.61721807  1
  O  O239  1  0.99682433  0.24318129  0.13575556  1
  O  O240  1  1.00703925  0.23270862  0.61663759  1
  O  O241  1  0.98829515  0.74879967  0.13104965  1
  O  O242  1  0.98704147  0.74829511  0.63067312  1
  O  O243  1  0.01222476  0.24476299  0.36300175  1
  O  O244  1  -0.00637542  0.26450943  0.87624168  1
  O  O245  1  0.00189794  0.75580058  0.37165535  1
  O  O246  1  -0.00577044  0.75269564  0.85562977  1
  O  O247  1  0.50954246  0.26870928  0.36952971  1
  O  O248  1  0.51120318  0.25931944  0.88310364  1
  O  O249  1  0.50519556  0.75846194  0.36795937  1
  O  O250  1  0.50973508  0.75661772  0.88609644  1
  O  O251  1  0.24138254  0.13198721  0.49900856  1
  O  O252  1  0.24581380  0.13825592  0.99822546  1
  O  O253  1  0.24444197  0.62901987  0.49375350  1
  O  O254  1  0.24229256  0.63583364  1.00624155  1
  O  O255  1  0.74946874  0.13215183  0.49275286  1
  O  O256  1  0.74565558  0.12858920  0.99189305  1
  O  O257  1  0.75053327  0.63074708  0.49072834  1
  O  O258  1  0.74007119  0.63739644  0.99580222  1
  O  O259  1  0.24510247  0.35981845  0.00488336  1
  O  O260  1  0.24508360  0.36418097  0.51116061  1
  O  O261  1  0.25641757  0.86901965  0.00850441  1
  O  O262  1  0.25677244  0.86994425  0.50284378  1
  O  O263  1  0.76008385  0.36810636  0.00108949  1
  O  O264  1  0.75999729  0.36785948  0.50726060  1
  O  O265  1  0.75638978  0.86298106  -0.00395230  1
  O  O266  1  0.74665660  0.86607997  0.48988393  1
  O  O267  1  0.12800407  0.49252736  0.24492635  1
  O  O268  1  0.13415710  0.50072125  0.74543188  1
  O  O269  1  0.13560065  0.99995418  0.23754531  1
  O  O270  1  0.11644989  1.00279808  0.73191388  1
  O  O271  1  0.62201026  0.50861481  0.23347081  1
  O  O272  1  0.62757112  0.49073144  0.74340935  1
  O  O273  1  0.63111093  0.99127758  0.25051680  1
  O  O274  1  0.64027499  1.00318940  0.75252225  1
  O  O275  1  0.35888623  -0.00355386  0.24718042  1
  O  O276  1  0.37974259  -0.01153563  0.74070744  1
  O  O277  1  0.37092322  0.50560958  0.25816375  1
  O  O278  1  0.36851174  0.50560734  0.75644839  1
  O  O279  1  0.86848453  0.00980037  0.24326637  1
  O  O280  1  0.86217291  0.01239400  0.74908591  1
  O  O281  1  0.88110927  0.50953569  0.25989275  1
  O  O282  1  0.87313733  0.50820503  0.75709681  1
  O  O283  1  0.12922741  0.36448506  0.36064847  1
  O  O284  1  0.10675612  0.38292006  0.87623070  1
  O  O285  1  0.11328217  0.86526899  0.37274265  1
  O  O286  1  0.12186281  0.86574256  0.88385812  1
  O  O287  1  0.62427807  0.38557911  0.36773662  1
  O  O288  1  0.61996186  0.36985782  0.87053694  1
  O  O289  1  0.61409232  0.86891793  0.36512755  1
  O  O290  1  0.61406305  0.86397844  0.88430259  1
  O  O291  1  0.38722420  0.12162110  0.12753800  1
  O  O292  1  0.38248974  0.14101728  0.63021814  1
  O  O293  1  0.36909744  0.62167788  0.14167640  1
  O  O294  1  0.37385646  0.62864779  0.63172236  1
  O  O295  1  0.88160181  0.13049577  0.13369650  1
  O  O296  1  0.88616333  0.11869217  0.62993076  1
  O  O297  1  0.87432825  0.63122507  0.13412961  1
  O  O298  1  0.87465540  0.62850505  0.63487413  1
  O  O299  1  0.24838347  0.25691072  0.11160506  1
  O  O300  1  0.26233491  0.25368703  0.61901352  1
  O  O301  1  0.25088574  0.75983200  0.11930654  1
  O  O302  1  0.25353193  0.75590011  0.61661916  1
  O  O303  1  0.75679849  0.24761272  0.11852826  1
  O  O304  1  0.74878084  0.26046559  0.61709542  1
  O  O305  1  0.75852959  0.74373086  0.11651081  1
  O  O306  1  0.76054599  0.74995601  0.61764217  1
  O  O307  1  0.24220530  0.25450910  0.38064807  1
  O  O308  1  0.25425843  0.24024358  0.88899886  1
  O  O309  1  0.24270321  0.74426315  0.37858415  1
  O  O310  1  0.25674313  0.75411498  0.88683490  1
  O  O311  1  0.75731235  0.23957066  0.38464207  1
  O  O312  1  0.74190448  0.24090027  0.87978225  1
  O  O313  1  0.74738747  0.74262730  0.38322758  1
  O  O314  1  0.73547490  0.75084970  0.88153072  1
  O  O315  1  0.00772258  0.12402894  0.00534299  1
  O  O316  1  0.00941243  0.11469962  0.50189617  1
  O  O317  1  0.01111898  0.62448697  0.00221091  1
  O  O318  1  0.00506468  0.61286980  0.50184762  1
  O  O319  1  0.50271561  0.12210700  0.00527408  1
  O  O320  1  0.50479497  0.12088693  0.49889530  1
  O  O321  1  0.50758366  0.61483624  -0.00286524  1
  O  O322  1  0.50490485  0.60874810  0.49559775  1
  O  O323  1  0.50954557  0.38350252  0.48294970  1
  O  O324  1  0.50453375  0.38752861  0.98808937  1
  O  O325  1  0.49172240  0.88421389  0.49027314  1
  O  O326  1  0.49202974  0.88018231  0.99949125  1
  O  O327  1  0.99436464  0.38401553  0.50739340  1
  O  O328  1  0.99039745  0.37721867  0.99053558  1
  O  O329  1  1.00476000  0.88842739  0.49392251  1
  O  O330  1  0.98708659  0.87628322  0.99965010  1
  O  O331  1  0.49540850  0.48812835  0.37708257  1
  O  O332  1  0.49297834  0.49407043  0.88364631  1
  O  O333  1  0.50207229  0.98890170  0.37686408  1
  O  O334  1  0.49741251  0.99163320  0.88486886  1
  O  O335  1  0.99154518  0.50334463  0.38615893  1
  O  O336  1  0.98643334  0.49198506  0.87564467  1
  O  O337  1  1.00730944  0.99317468  0.38608107  1
  O  O338  1  0.99527178  1.00032420  0.87762209  1
  O  O339  1  0.01121664  0.00466439  0.12433442  1
  O  O340  1  0.01060607  0.00395823  0.61126441  1
  O  O341  1  0.01149098  0.49955695  0.12366360  1
  O  O342  1  0.00696805  0.50077224  0.61650911  1
  O  O343  1  0.50324390  0.00967840  0.12008407  1
  O  O344  1  0.49404271  0.02368278  0.60999956  1
  O  O345  1  0.50983033  0.49468063  0.11451479  1
  O  O346  1  0.50712759  0.49195850  0.61522503  1
  O  O347  1  0.24088906  0.37663532  0.24101602  1
  O  O348  1  0.25041795  0.38586201  0.74151437  1
  O  O349  1  0.24731473  0.88242855  0.24140160  1
  O  O350  1  0.25561492  0.86112124  0.73613894  1
  O  O351  1  0.76907358  0.38327521  0.24262697  1
  O  O352  1  0.74311738  0.37530077  0.74342976  1
  O  O353  1  0.73955286  0.88371477  0.25981489  1
  O  O354  1  0.75460551  0.89098844  0.75181277  1
  O  O355  1  0.25282473  0.11051820  0.24180523  1
  O  O356  1  0.24718493  0.12713389  0.75958105  1
  O  O357  1  0.25555583  0.61785550  0.25583666  1
  O  O358  1  0.26226361  0.61379245  0.74481522  1
  O  O359  1  0.75776592  0.12197973  0.25718785  1
  O  O360  1  0.75522109  0.12108810  0.75496382  1
  O  O361  1  0.75998658  0.62266743  0.26141405  1
  O  O362  1  0.75987400  0.62392339  0.75419152  1
  O  O363  1  0.38335477  0.12286143  0.37172501  1
  O  O364  1  0.36177678  0.12298582  0.87400262  1
  O  O365  1  0.36810132  0.61480107  0.36637129  1
  O  O366  1  0.37978491  0.61359643  0.86401545  1
  O  O367  1  0.87072908  0.12720574  0.36351917  1
  O  O368  1  0.86434202  0.12464362  0.86703119  1
  O  O369  1  0.86904744  0.61846354  0.36963365  1
  O  O370  1  0.87391383  0.61808964  0.86798667  1
  O  O371  1  0.13133791  0.38225486  0.13260943  1
  O  O372  1  0.13782433  0.38095090  0.62754274  1
  O  O373  1  0.13318105  0.88266124  0.12308585  1
  O  O374  1  0.13485186  0.88716701  0.61723464  1
  O  O375  1  0.62577177  0.39011902  0.11714167  1
  O  O376  1  0.63080719  0.37884846  0.63344467  1
  O  O377  1  0.62095820  0.87568393  0.13971936  1
  O  O378  1  0.55244537  0.86355680  0.65614295  1
  O  O379  1  0.12179691  0.25263174  0.25380227  1
  O  O380  1  0.11688025  0.25349089  0.74704821  1
  O  O381  1  0.11672076  0.74893658  0.25521025  1
  O  O382  1  0.10748690  0.74108864  0.74393939  1
  O  O383  1  0.61016086  0.24855325  0.24721443  1
  O  O384  1  0.63122328  0.26055052  0.76228657  1
  O  O385  1  0.61948902  0.75460370  0.25486251  1
  O  O386  1  0.61053330  0.74057363  0.75701385  1
  O  O387  1  0.39705169  0.25065213  0.25450573  1
  O  O388  1  0.37463082  0.25347550  0.74263307  1
  O  O389  1  0.38109009  0.74136943  0.25063083  1
  O  O390  1  0.39439500  0.74336769  0.73925292  1
  O  O391  1  0.88490165  0.24088682  0.24740854  1
  O  O392  1  0.87812904  0.23633593  0.75188665  1
  O  O393  1  0.87608556  0.74274827  0.24344203  1
  O  O394  1  0.87846960  0.74552190  0.73840447  1
  O  O395  1  0.38513069  0.50285671  0.49030367  1
  O  O396  1  0.38189339  0.50884078  0.99028925  1
  O  O397  1  0.38104326  0.98841696  0.49624240  1
  O  O398  1  0.38028873  0.98980867  1.00471415  1
  O  O399  1  0.88283860  0.49239643  0.49514275  1
  O  O400  1  0.87393958  0.49407015  0.99445612  1
  O  O401  1  0.89275920  1.00527039  0.50113175  1
  O  O402  1  0.87247099  0.98830398  1.00278008  1
  O  O403  1  0.12926304  0.01081259  0.01119122  1
  O  O404  1  0.12081410  0.00847611  0.50489110  1
  O  O405  1  0.12691102  0.50871343  0.00742469  1
  O  O406  1  0.11886174  0.50093443  0.50256668  1
  O  O407  1  0.61719529  0.00640832  0.00088618  1
  O  O408  1  0.61031349  -0.00068958  0.49505611  1
  O  O409  1  0.61747068  0.50829325  0.00568928  1
  O  O410  1  0.61858043  0.49878378  0.50972829  1
  O  O411  1  0.35990912  0.38540948  0.12876451  1
  O  O412  1  0.36689658  0.36386175  0.62892961  1
  O  O413  1  0.36635998  0.87215310  0.11766594  1
  O  O414  1  0.36859761  0.86629316  0.61123497  1
  O  O415  1  0.87978895  0.36863523  0.11252703  1
  O  O416  1  0.86617692  0.38157855  0.61698271  1
  O  O417  1  0.87559145  0.86317392  0.11805847  1
  O  O418  1  0.87636424  0.86375632  0.62467347  1
  O  O419  1  0.12429900  0.13384435  0.38226545  1
  O  O420  1  0.14025068  0.12030996  0.88517501  1
  O  O421  1  0.12963508  0.62804385  0.37952206  1
  O  O422  1  0.12222967  0.63010831  0.88448938  1
  O  O423  1  0.63747184  0.12479560  0.37599196  1
  O  O424  1  0.63009224  0.13327492  0.87968802  1
  O  O425  1  0.63712962  0.62953163  0.37499818  1
  O  O426  1  0.62308395  0.63323462  0.88540784  1
