# generated using pymatgen
data_V85Zn86O256
_symmetry_space_group_name_H-M   'P 1'
_cell_length_a   16.98038429
_cell_length_b   16.97801912
_cell_length_c   16.96494788
_cell_angle_alpha   89.76851483
_cell_angle_beta   90.00237202
_cell_angle_gamma   90.03912572
_symmetry_Int_Tables_number   1
_chemical_formula_structural   V85Zn86O256
_chemical_formula_sum   'V85 Zn86 O256'
_cell_volume   4890.83956153
_cell_formula_units_Z   1
loop_
 _symmetry_equiv_pos_site_id
 _symmetry_equiv_pos_as_xyz
  1  'x, y, z'
loop_
 _atom_site_type_symbol
 _atom_site_label
 _atom_site_symmetry_multiplicity
 _atom_site_fract_x
 _atom_site_fract_y
 _atom_site_fract_z
 _atom_site_occupancy
  V  V0  1  0.00489372  0.49563732  -0.00239604  1
  V  V1  1  0.12442632  0.25137824  0.37215203  1
  V  V2  1  0.62479295  0.24883001  0.37859355  1
  V  V3  1  0.12306600  0.12432024  0.49963101  1
  V  V4  1  0.87975107  0.24652275  0.12366942  1
  V  V5  1  0.24287339  0.50054705  0.74503600  1
  V  V6  1  0.12433173  0.00061017  0.62731154  1
  V  V7  1  0.00054791  0.74747394  0.74822314  1
  V  V8  1  0.25085763  0.87515913  0.62359409  1
  V  V9  1  0.11896305  0.37764948  0.75398822  1
  V  V10  1  0.12450091  0.87412033  0.25283802  1
  V  V11  1  0.11996489  0.00579986  0.12673697  1
  V  V12  1  0.24088005  0.37968388  0.62188637  1
  V  V13  1  0.74570185  0.38395315  0.63319865  1
  V  V14  1  0.87564145  0.37662858  0.49857329  1
  V  V15  1  0.13122186  0.24546664  0.87282550  1
  V  V16  1  0.50159448  0.24916152  0.24839385  1
  V  V17  1  0.37094968  0.50058008  0.87468920  1
  V  V18  1  0.50544079  0.49734564  0.50709958  1
  V  V19  1  0.75270066  0.74930557  0.00152184  1
  V  V20  1  0.25360014  0.87260820  0.12626899  1
  V  V21  1  -0.00109995  0.25209160  0.75454138  1
  V  V22  1  0.49695676  0.37675198  0.37233523  1
  V  V23  1  0.74926464  0.12304997  0.87477810  1
  V  V24  1  0.01622473  0.62161437  0.62091144  1
  V  V25  1  0.62642587  0.49955238  0.12326010  1
  V  V26  1  0.50395154  0.37325042  0.86348301  1
  V  V27  1  0.50096833  0.12519507  0.12513263  1
  V  V28  1  0.87549734  -0.00259592  0.87549351  1
  V  V29  1  0.73945551  -0.00628379  0.74877888  1
  V  V30  1  0.49788102  -0.00236909  0.00067658  1
  V  V31  1  0.75283174  0.62026703  0.87231934  1
  V  V32  1  0.87851732  0.49884008  0.87075244  1
  V  V33  1  0.00766407  0.37650621  0.37044329  1
  V  V34  1  0.37060450  0.01241429  0.87185364  1
  V  V35  1  0.62512984  0.62705088  -0.00027547  1
  V  V36  1  0.24974109  0.12347774  0.37506480  1
  V  V37  1  0.36965096  0.88415199  0.48801262  1
  V  V38  1  0.74902268  0.24974162  0.50026657  1
  V  V39  1  0.74065713  0.85416194  0.63030997  1
  V  V40  1  0.37365953  0.62652826  0.74429989  1
  V  V41  1  -0.00154598  0.87305099  0.37980027  1
  V  V42  1  0.62461052  0.12647545  0.00048908  1
  V  V43  1  0.36916325  0.75430191  0.61981993  1
  V  V44  1  0.87762371  0.50726304  0.36895177  1
  V  V45  1  0.75041044  0.24968003  -0.00046172  1
  V  V46  1  0.24370582  0.37526169  0.13352287  1
  V  V47  1  0.74794650  0.12445010  0.37957795  1
  V  V48  1  0.62628530  0.37466840  0.24749886  1
  V  V49  1  -0.00404454  -0.00072586  0.50265739  1
  V  V50  1  0.50012016  0.74479692  0.25611402  1
  V  V51  1  0.00188918  0.62121369  0.12936175  1
  V  V52  1  0.00029453  0.00337139  0.00246516  1
  V  V53  1  0.87549903  0.12235392  0.75030897  1
  V  V54  1  0.62400846  0.25467328  0.86267477  1
  V  V55  1  0.25250236  -0.00107466  0.25539758  1
  V  V56  1  0.49497434  0.62608363  0.12786923  1
  V  V57  1  0.24802468  0.25096181  0.49869435  1
  V  V58  1  0.00391138  0.25082760  0.24835386  1
  V  V59  1  0.37495810  0.12164323  0.25563760  1
  V  V60  1  0.26959288  0.62367892  0.37946856  1
  V  V61  1  0.51112898  0.88296776  0.37469616  1
  V  V62  1  0.37147998  0.37893356  0.49491583  1
  V  V63  1  0.13115033  0.74229114  0.39540013  1
  V  V64  1  0.75014670  -0.00048613  0.25066724  1
  V  V65  1  0.87682476  0.62556265  0.74193132  1
  V  V66  1  0.37894393  0.24589314  0.63718750  1
  V  V67  1  0.86956250  0.85953699  0.51062315  1
  V  V68  1  0.01263704  0.50231331  0.50216132  1
  V  V69  1  -0.00189496  0.12512451  0.62565924  1
  V  V70  1  0.74470752  0.63301696  0.37663898  1
  V  V71  1  0.00211529  0.74657999  0.25157593  1
  V  V72  1  0.37263473  0.24986114  0.12006830  1
  V  V73  1  0.87938088  0.37353384  -0.00576258  1
  V  V74  1  0.49953590  0.75937095  0.75492916  1
  V  V75  1  0.12730343  0.87068454  0.75561122  1
  V  V76  1  0.87981167  0.12445119  0.24778374  1
  V  V77  1  0.87694718  0.74165832  0.13059000  1
  V  V78  1  0.75161873  0.87428594  0.12679347  1
  V  V79  1  0.13193021  0.12326556  -0.00476025  1
  V  V80  1  0.12618035  0.49379391  0.13864658  1
  V  V81  1  0.24388716  0.74830879  -0.00554561  1
  V  V82  1  0.75493793  0.50399590  0.24924508  1
  V  V83  1  0.00383488  0.86713150  0.87682268  1
  V  V84  1  0.25125646  0.01228291  0.75446564  1
  Zn  Zn85  1  0.62426393  -0.00115261  0.12510113  1
  Zn  Zn86  1  0.38209986  0.51870528  0.34115580  1
  Zn  Zn87  1  0.50568304  0.88275529  0.87110237  1
  Zn  Zn88  1  0.62724720  0.00755851  0.60929055  1
  Zn  Zn89  1  0.75130375  0.37485676  0.12384648  1
  Zn  Zn90  1  0.49785206  0.50006847  -0.00195024  1
  Zn  Zn91  1  0.25179941  0.24815101  -0.00554018  1
  Zn  Zn92  1  0.37283923  0.37603870  -0.00279700  1
  Zn  Zn93  1  0.37142900  0.74239769  0.12740141  1
  Zn  Zn94  1  0.37616994  0.87155143  -0.00326331  1
  Zn  Zn95  1  0.24121483  0.63728117  0.86664849  1
  Zn  Zn96  1  0.87846064  0.87295731  0.00057442  1
  Zn  Zn97  1  0.87427029  0.25124927  0.62654630  1
  Zn  Zn98  1  0.50580656  0.12685157  0.62461658  1
  Zn  Zn99  1  0.63221396  0.86833274  0.25717347  1
  Zn  Zn100  1  0.51133464  0.64067804  0.61673403  1
  Zn  Zn101  1  0.50532186  0.01470529  0.49397631  1
  Zn  Zn102  1  0.12467053  0.62627841  -0.00342210  1
  Zn  Zn103  1  0.62247270  0.49593268  0.64887154  1
  Zn  Zn104  1  0.87420695  -0.00176049  0.37984918  1
  Zn  Zn105  1  0.64016362  0.64694875  0.50110808  1
  Zn  Zn106  1  0.63435173  0.75688178  0.86125383  1
  Zn  Zn107  1  0.18704765  0.18580255  0.18485847  1
  Zn  Zn108  1  0.18733836  0.19231346  0.68406266  1
  Zn  Zn109  1  0.18819464  0.68110409  0.19174001  1
  Zn  Zn110  1  0.18715049  0.68964955  0.68460934  1
  Zn  Zn111  1  0.69021326  0.18713727  0.18708531  1
  Zn  Zn112  1  0.68962645  0.18675213  0.68489169  1
  Zn  Zn113  1  0.68325217  0.68702410  0.19273302  1
  Zn  Zn114  1  0.67418721  0.65434474  0.69903647  1
  Zn  Zn115  1  0.31363306  0.31136027  0.31038236  1
  Zn  Zn116  1  0.30994338  0.31673167  0.81261858  1
  Zn  Zn117  1  0.31241554  0.79967003  0.31015155  1
  Zn  Zn118  1  0.32016672  0.82350835  0.81524087  1
  Zn  Zn119  1  0.81492476  0.31562386  0.31168759  1
  Zn  Zn120  1  0.81228806  0.31166388  0.81308630  1
  Zn  Zn121  1  0.81977623  0.81305334  0.31490596  1
  Zn  Zn122  1  0.81667063  0.81010364  0.81050767  1
  Zn  Zn123  1  0.19421893  0.44523770  0.42744716  1
  Zn  Zn124  1  0.18859895  0.43181255  0.93921957  1
  Zn  Zn125  1  0.18359939  0.93418633  0.43828584  1
  Zn  Zn126  1  0.18932431  0.93653817  0.93887890  1
  Zn  Zn127  1  0.68806340  0.43813235  0.43539935  1
  Zn  Zn128  1  0.68985788  0.43683680  0.93491169  1
  Zn  Zn129  1  0.69017979  0.93505693  0.44597463  1
  Zn  Zn130  1  0.68404760  0.93502800  0.93656969  1
  Zn  Zn131  1  0.31282380  0.06090732  0.06489882  1
  Zn  Zn132  1  0.31479744  0.06251711  0.56307027  1
  Zn  Zn133  1  0.30898167  0.55928572  0.06671353  1
  Zn  Zn134  1  0.30671649  0.56779285  0.55598952  1
  Zn  Zn135  1  0.81448229  0.06257382  0.06194990  1
  Zn  Zn136  1  0.81101675  0.05739167  0.56659919  1
  Zn  Zn137  1  0.81570141  0.56135081  0.06089024  1
  Zn  Zn138  1  0.81628221  0.56351587  0.55744193  1
  Zn  Zn139  1  0.43723523  0.43518431  0.18456358  1
  Zn  Zn140  1  0.42924682  0.43206546  0.68484166  1
  Zn  Zn141  1  0.43850015  0.93618920  0.19078877  1
  Zn  Zn142  1  0.44019224  0.94776935  0.68650698  1
  Zn  Zn143  1  0.93732349  0.43316635  0.18475207  1
  Zn  Zn144  1  0.93663331  0.43995358  0.68454640  1
  Zn  Zn145  1  0.93634536  0.93408498  0.18928961  1
  Zn  Zn146  1  0.93259694  0.93490596  0.68805656  1
  Zn  Zn147  1  0.06177587  0.06133476  0.31515671  1
  Zn  Zn148  1  0.06297830  0.06056709  0.81384100  1
  Zn  Zn149  1  0.06795625  0.56498098  0.31570296  1
  Zn  Zn150  1  0.06455549  0.56424051  0.81589755  1
  Zn  Zn151  1  0.56548580  0.06188517  0.31377498  1
  Zn  Zn152  1  0.55944504  0.06981300  0.80874372  1
  Zn  Zn153  1  0.56381834  0.56073729  0.31541487  1
  Zn  Zn154  1  0.55737030  0.56326185  0.81269953  1
  Zn  Zn155  1  0.43550700  0.19218137  0.44191416  1
  Zn  Zn156  1  0.44151583  0.18768631  0.93229332  1
  Zn  Zn157  1  0.45643818  0.69705359  0.44911709  1
  Zn  Zn158  1  0.42832900  0.68649063  0.93985505  1
  Zn  Zn159  1  0.93512671  0.18745428  0.43557647  1
  Zn  Zn160  1  0.94107210  0.18476287  0.93564482  1
  Zn  Zn161  1  0.93878564  0.68498784  0.43809640  1
  Zn  Zn162  1  0.93970790  0.68413912  0.93928079  1
  Zn  Zn163  1  0.06353479  0.31017023  0.06028386  1
  Zn  Zn164  1  0.06081849  0.31228343  0.56275866  1
  Zn  Zn165  1  0.06582173  0.81531202  0.06541310  1
  Zn  Zn166  1  0.05719018  0.81317441  0.56996690  1
  Zn  Zn167  1  0.55932917  0.31576734  0.05392589  1
  Zn  Zn168  1  0.56200271  0.31522683  0.56648573  1
  Zn  Zn169  1  0.56510754  0.81189252  0.06632534  1
  Zn  Zn170  1  0.55910288  0.81700168  0.56181109  1
  O  O171  1  0.12509339  0.11180408  0.11797314  1
  O  O172  1  0.11873328  0.12046536  0.61835083  1
  O  O173  1  0.11897361  0.61273742  0.12151570  1
  O  O174  1  0.11492510  0.62225520  0.62640465  1
  O  O175  1  0.61952182  0.12511787  0.11963822  1
  O  O176  1  0.62180868  0.12302676  0.62840854  1
  O  O177  1  0.62024730  0.61686938  0.11919441  1
  O  O178  1  0.62219564  0.61164898  0.60857300  1
  O  O179  1  0.37991790  0.37110798  0.38162086  1
  O  O180  1  0.38462767  0.38238725  0.87314332  1
  O  O181  1  0.37088426  0.87120654  0.38669146  1
  O  O182  1  0.38591122  0.89028213  0.88089260  1
  O  O183  1  0.88546205  0.38232524  0.38141379  1
  O  O184  1  0.86996404  0.38430707  0.88447504  1
  O  O185  1  0.87972251  0.87595829  0.39013547  1
  O  O186  1  0.88696270  0.87866417  0.87696852  1
  O  O187  1  0.23956692  0.00503669  0.36203815  1
  O  O188  1  0.26222256  -0.00416803  0.87079503  1
  O  O189  1  0.26348073  0.51629046  0.37494072  1
  O  O190  1  0.25848478  0.49182990  0.86067785  1
  O  O191  1  0.75201330  0.00761468  0.36721278  1
  O  O192  1  0.75701353  0.00187824  0.87192414  1
  O  O193  1  0.75951220  0.50371354  0.36738005  1
  O  O194  1  0.76349716  0.51220668  0.88424322  1
  O  O195  1  0.24011534  0.48400288  0.11868634  1
  O  O196  1  0.25522017  0.49148839  0.63411933  1
  O  O197  1  0.24017939  0.99424659  0.13557000  1
  O  O198  1  0.24541147  0.99276325  0.63408231  1
  O  O199  1  0.74337950  0.50139020  0.13096384  1
  O  O200  1  0.75298336  0.48486121  0.61387341  1
  O  O201  1  0.75463022  0.99104457  0.13297063  1
  O  O202  1  0.74654926  0.99291791  0.63627231  1
  O  O203  1  -0.00709309  0.36334546  0.26023660  1
  O  O204  1  0.00833961  0.36518169  0.73936305  1
  O  O205  1  0.00419972  0.86739846  0.25752526  1
  O  O206  1  0.00637929  0.86743759  0.75531033  1
  O  O207  1  0.50670362  0.36754722  0.25195940  1
  O  O208  1  0.49838829  0.38302664  0.76447186  1
  O  O209  1  0.50432376  0.87180927  0.25974652  1
  O  O210  1  0.49267079  0.86189612  0.75064841  1
  O  O211  1  0.49323360  0.12862308  0.24672755  1
  O  O212  1  0.49289981  0.11785545  0.73655998  1
  O  O213  1  0.50770238  0.63680578  0.24442319  1
  O  O214  1  0.48205489  0.63006642  0.74169831  1
  O  O215  1  0.98752531  0.13408090  0.25974152  1
  O  O216  1  0.99621312  0.13078336  0.74545701  1
  O  O217  1  1.00644464  0.63241874  0.23824117  1
  O  O218  1  0.99797783  0.62788974  0.74047384  1
  O  O219  1  0.37446450  0.24254873  0.01195408  1
  O  O220  1  0.36446267  0.26324216  0.50420550  1
  O  O221  1  0.36301816  0.75374831  0.00879104  1
  O  O222  1  0.38052617  0.76685948  0.51436535  1
  O  O223  1  0.87460869  0.25345368  0.00399449  1
  O  O224  1  0.86803979  0.26107632  0.49725618  1
  O  O225  1  0.86820613  0.74853605  0.01112684  1
  O  O226  1  0.88056215  0.76123517  0.50081754  1
  O  O227  1  0.12806626  0.24432065  0.49325660  1
  O  O228  1  0.11981235  0.23930827  0.98990691  1
  O  O229  1  0.11741406  0.75493740  0.49326475  1
  O  O230  1  0.13975941  0.75068362  1.00713926  1
  O  O231  1  0.63598359  0.26039640  0.48731173  1
  O  O232  1  0.63144757  0.24555390  0.99320458  1
  O  O233  1  0.56243052  0.72638917  0.49751322  1
  O  O234  1  0.64005987  0.73869068  1.01084151  1
  O  O235  1  0.49283577  0.24564251  0.12847637  1
  O  O236  1  0.48094471  0.25770364  0.62158880  1
  O  O237  1  0.49994929  0.74083736  0.13102491  1
  O  O238  1  0.48354107  0.75425992  0.63966584  1
  O  O239  1  0.98980657  0.25531843  0.13450971  1
  O  O240  1  0.99863295  0.24307070  0.63482245  1
  O  O241  1  0.99661542  0.74282196  0.13004508  1
  O  O242  1  1.00287123  0.73396630  0.63541317  1
  O  O243  1  0.00355553  0.25808614  0.36887791  1
  O  O244  1  0.00906566  0.24519659  0.86114084  1
  O  O245  1  0.00653524  0.75238429  0.36864988  1
  O  O246  1  -0.00118501  0.75971767  0.87022581  1
  O  O247  1  0.50838940  0.25471359  0.36882770  1
  O  O248  1  0.50753114  0.26459004  0.87734466  1
  O  O249  1  0.49328616  0.76367731  0.35865002  1
  O  O250  1  0.48989000  0.74527949  0.85949670  1
  O  O251  1  0.24285548  0.12863959  0.49384056  1
  O  O252  1  0.23581476  0.12605290  1.00574335  1
  O  O253  1  0.24861594  0.62921800  0.48253250  1
  O  O254  1  0.25098620  0.64157127  1.00535262  1
  O  O255  1  0.76146400  0.13719560  0.48957990  1
  O  O256  1  0.74591734  0.12910063  0.99427110  1
  O  O257  1  0.75405520  0.62363323  0.48268857  1
  O  O258  1  0.74738602  0.63168796  0.99489368  1
  O  O259  1  0.25466088  0.36688816  0.00931923  1
  O  O260  1  0.25147982  0.37326898  0.50285036  1
  O  O261  1  0.24838712  0.86670723  0.01048711  1
  O  O262  1  0.25889534  0.88330168  0.51109686  1
  O  O263  1  0.76164371  0.36864707  0.00050353  1
  O  O264  1  0.75986266  0.36809284  0.49900007  1
  O  O265  1  0.75417280  0.86489719  0.00947462  1
  O  O266  1  0.76235953  0.87188596  0.51212083  1
  O  O267  1  0.11801736  0.49737969  0.23803583  1
  O  O268  1  0.13225716  0.49037462  0.75470842  1
  O  O269  1  0.12954134  0.99626232  0.24420445  1
  O  O270  1  0.12996667  0.99027788  0.74669451  1
  O  O271  1  0.63271541  0.49464759  0.24141951  1
  O  O272  1  0.64330675  0.54391465  0.74851158  1
  O  O273  1  0.64091867  0.99863990  0.24737247  1
  O  O274  1  0.64046608  0.99753559  0.76227622  1
  O  O275  1  0.36351743  0.01065118  0.24433481  1
  O  O276  1  0.36588859  -0.00390606  0.76347713  1
  O  O277  1  0.37255471  0.50644704  0.23299477  1
  O  O278  1  0.36516897  0.50703428  0.75297584  1
  O  O279  1  0.86855554  0.00740535  0.25131110  1
  O  O280  1  0.86892563  0.00369196  0.75711355  1
  O  O281  1  0.86736600  0.49185549  0.25713367  1
  O  O282  1  0.88502110  0.50866944  0.76298234  1
  O  O283  1  0.11369704  0.37049130  0.37822757  1
  O  O284  1  0.12591692  0.36483729  0.86147296  1
  O  O285  1  0.11788091  0.86376373  0.37244419  1
  O  O286  1  0.11610482  0.88204780  0.86509774  1
  O  O287  1  0.61957659  0.36706311  0.36709860  1
  O  O288  1  0.61281949  0.37197738  0.87970858  1
  O  O289  1  0.61321400  0.87386310  0.37812244  1
  O  O290  1  0.61497006  0.86205845  0.88996849  1
  O  O291  1  0.37841444  0.13133308  0.13532070  1
  O  O292  1  0.36449091  0.14558503  0.62170676  1
  O  O293  1  0.39301747  0.62076913  0.11613421  1
  O  O294  1  0.36608919  0.63778363  0.63118971  1
  O  O295  1  0.87102206  0.13474103  0.13513443  1
  O  O296  1  0.88033431  0.12702011  0.63225341  1
  O  O297  1  0.88560790  0.63261593  0.12257877  1
  O  O298  1  0.87770784  0.61777600  0.63934011  1
  O  O299  1  0.25557492  0.25617484  0.12278611  1
  O  O300  1  0.25260446  0.26097730  0.61711552  1
  O  O301  1  0.24941968  0.75923309  0.12318437  1
  O  O302  1  0.25546037  0.76582735  0.63245207  1
  O  O303  1  0.76180482  0.25106196  0.11905627  1
  O  O304  1  0.75299806  0.26095338  0.61352181  1
  O  O305  1  0.75924033  0.75206448  0.12381181  1
  O  O306  1  0.73972058  0.75676145  0.63597431  1
  O  O307  1  0.24290486  0.24473906  0.37811802  1
  O  O308  1  0.23597829  0.25216380  0.87408872  1
  O  O309  1  0.23406824  0.75225528  0.38149576  1
  O  O310  1  0.25577565  0.75684447  0.89095004  1
  O  O311  1  0.74482474  0.24563665  0.37933345  1
  O  O312  1  0.74463581  0.24478329  0.88103745  1
  O  O313  1  0.75683015  0.73094956  0.36053966  1
  O  O314  1  0.75515807  0.74260312  0.88752330  1
  O  O315  1  0.00914121  0.10929182  -0.00430067  1
  O  O316  1  0.00296668  0.12069423  0.50411930  1
  O  O317  1  0.00093758  0.61481633  0.01276059  1
  O  O318  1  -0.00600337  0.61811904  0.51492786  1
  O  O319  1  0.50487250  0.11777569  0.00575290  1
  O  O320  1  0.49044419  0.12621058  0.50895474  1
  O  O321  1  0.51144108  0.62565757  0.00574330  1
  O  O322  1  0.47882262  0.59676241  0.50931925  1
  O  O323  1  0.49101393  0.37946398  0.49159771  1
  O  O324  1  0.49221793  0.38204470  0.98841767  1
  O  O325  1  0.48671270  0.87768472  0.48342220  1
  O  O326  1  0.49857553  0.89035798  1.01168797  1
  O  O327  1  0.99374177  0.38054067  0.49282220  1
  O  O328  1  0.98928482  0.38241831  1.00477803  1
  O  O329  1  0.98874646  0.87936560  0.50204177  1
  O  O330  1  1.00260267  0.88216990  0.99257669  1
  O  O331  1  0.49280788  0.49416648  0.38179454  1
  O  O332  1  0.48995579  0.49435532  0.87500007  1
  O  O333  1  0.49864760  0.98619072  0.36887164  1
  O  O334  1  0.49078927  1.00448671  0.88551203  1
  O  O335  1  0.99569841  0.49494305  0.37832141  1
  O  O336  1  0.99014432  0.50624594  0.88818934  1
  O  O337  1  0.99931465  0.99134343  0.38351006  1
  O  O338  1  0.99590984  0.98962876  0.88235638  1
  O  O339  1  0.00974687  -0.01190590  0.11582509  1
  O  O340  1  0.00472095  0.00460233  0.62326362  1
  O  O341  1  0.00481882  0.50319525  0.11977918  1
  O  O342  1  -0.00181675  0.51195778  0.61727142  1
  O  O343  1  0.50056822  0.00786175  0.11971652  1
  O  O344  1  0.50760275  0.00009505  0.61651825  1
  O  O345  1  0.51454102  0.50672987  0.12192669  1
  O  O346  1  0.50525228  0.48143755  0.61309042  1
  O  O347  1  0.25100113  0.36731864  0.23307654  1
  O  O348  1  0.23963551  0.38203091  0.74052177  1
  O  O349  1  0.24555581  0.88126165  0.24631707  1
  O  O350  1  0.24244801  0.88327360  0.74510990  1
  O  O351  1  0.74518205  0.38515414  0.24829254  1
  O  O352  1  0.76205309  0.37341345  0.73152394  1
  O  O353  1  0.75467430  0.88245321  0.24573139  1
  O  O354  1  0.75849834  0.87846240  0.73762738  1
  O  O355  1  0.25536853  0.11793754  0.25364325  1
  O  O356  1  0.23876016  0.11069083  0.74646681  1
  O  O357  1  0.24837184  0.64270203  0.27732797  1
  O  O358  1  0.25402001  0.61721463  0.74705772  1
  O  O359  1  0.75932294  0.11882025  0.25700240  1
  O  O360  1  0.75673935  0.11553318  0.75674718  1
  O  O361  1  0.74574980  0.61051914  0.25785602  1
  O  O362  1  0.76719526  0.64253320  0.76683273  1
  O  O363  1  0.36737740  0.13552934  0.36110315  1
  O  O364  1  0.37623068  0.11218041  0.87742685  1
  O  O365  1  0.37312876  0.63575573  0.38245398  1
  O  O366  1  0.36598537  0.61715453  0.86304396  1
  O  O367  1  0.86437015  0.12530634  0.36511251  1
  O  O368  1  0.86957837  0.11796102  0.87101841  1
  O  O369  1  0.86990915  0.61209073  0.37675052  1
  O  O370  1  0.87209348  0.61700824  0.87102053  1
  O  O371  1  0.13626277  0.37611193  0.12190098  1
  O  O372  1  0.13412764  0.36968498  0.63314540  1
  O  O373  1  0.13385427  0.88478659  0.13256012  1
  O  O374  1  0.13095744  0.88051608  0.63432849  1
  O  O375  1  0.62659311  0.38434273  0.12650040  1
  O  O376  1  0.64117624  0.37792932  0.62188299  1
  O  O377  1  0.64312959  0.87647733  0.12761279  1
  O  O378  1  0.64001230  0.87636895  0.61583041  1
  O  O379  1  0.11121776  0.23943057  0.25463983  1
  O  O380  1  0.11839605  0.25543188  0.75487402  1
  O  O381  1  0.11295422  0.75614994  0.25232235  1
  O  O382  1  0.11641734  0.76142880  0.74694589  1
  O  O383  1  0.62243946  0.25471561  0.25663028  1
  O  O384  1  0.63512132  0.25178602  0.76456238  1
  O  O385  1  0.60880890  0.75565132  0.24386240  1
  O  O386  1  0.60185473  0.73762186  0.74823628  1
  O  O387  1  0.38058207  0.24154380  0.23959663  1
  O  O388  1  0.36642235  0.25713470  0.73587204  1
  O  O389  1  0.39322586  0.75848958  0.24058429  1
  O  O390  1  0.37560255  0.74443796  0.74418975  1
  O  O391  1  0.88100877  0.24419518  0.24361095  1
  O  O392  1  0.88386786  0.24288876  0.75109801  1
  O  O393  1  0.89080947  0.75380304  0.24141027  1
  O  O394  1  0.89233982  0.73942360  0.75610679  1
  O  O395  1  0.37859928  0.48271383  0.50720786  1
  O  O396  1  0.37178151  0.50356360  0.98392853  1
  O  O397  1  0.37662532  0.98630544  0.50214152  1
  O  O398  1  0.38098915  1.00172613  0.99214424  1
  O  O399  1  0.88534878  0.49188231  0.48879170  1
  O  O400  1  0.88357857  0.49204224  0.99572377  1
  O  O401  1  0.88059625  0.99108507  0.50063405  1
  O  O402  1  0.88471268  0.99751755  0.99626822  1
  O  O403  1  0.12040914  0.00437348  0.00644694  1
  O  O404  1  0.11783903  0.00406051  0.50724296  1
  O  O405  1  0.11364710  0.49324565  0.00818579  1
  O  O406  1  0.11098648  0.49606222  0.49134425  1
  O  O407  1  0.61606996  0.00836456  0.00147442  1
  O  O408  1  0.62174343  0.00539769  0.49344899  1
  O  O409  1  0.63046152  0.51136127  0.00708620  1
  O  O410  1  0.60679678  0.49619546  0.49197474  1
  O  O411  1  0.36574586  0.36319759  0.12174052  1
  O  O412  1  0.35952255  0.36618106  0.61720926  1
  O  O413  1  0.35938436  0.88192739  0.12409909  1
  O  O414  1  0.36499284  0.87302152  0.62215893  1
  O  O415  1  0.87276420  0.36457879  0.11429895  1
  O  O416  1  0.86964316  0.37515754  0.61140555  1
  O  O417  1  0.86756134  0.86262000  0.12446875  1
  O  O418  1  0.86702502  0.87186018  0.61666001  1
  O  O419  1  0.12940489  0.13068799  0.38084167  1
  O  O420  1  0.12180208  0.13133104  0.88310582  1
  O  O421  1  0.12137195  0.64118112  0.37919245  1
  O  O422  1  0.13184820  0.62009691  0.88348192  1
  O  O423  1  0.63744061  0.13767401  0.36619105  1
  O  O424  1  0.62938860  0.13514313  0.88080701  1
  O  O425  1  0.64121802  0.61932547  0.37774162  1
  O  O426  1  0.63489866  0.63314778  0.88782479  1
