# generated using pymatgen
data_V85Zn86O256
_symmetry_space_group_name_H-M   'P 1'
_cell_length_a   16.94531156
_cell_length_b   16.94372887
_cell_length_c   16.95048425
_cell_angle_alpha   90.00471436
_cell_angle_beta   90.02718211
_cell_angle_gamma   89.87416557
_symmetry_Int_Tables_number   1
_chemical_formula_structural   V85Zn86O256
_chemical_formula_sum   'V85 Zn86 O256'
_cell_volume   4866.75589592
_cell_formula_units_Z   1
loop_
 _symmetry_equiv_pos_site_id
 _symmetry_equiv_pos_as_xyz
  1  'x, y, z'
loop_
 _atom_site_type_symbol
 _atom_site_label
 _atom_site_symmetry_multiplicity
 _atom_site_fract_x
 _atom_site_fract_y
 _atom_site_fract_z
 _atom_site_occupancy
  V  V0  1  0.37118746  0.25189766  0.62819420  1
  V  V1  1  0.38046218  0.73213247  0.62958630  1
  V  V2  1  0.36670427  0.25233493  0.12553278  1
  V  V3  1  0.87827691  0.48207827  0.87701778  1
  V  V4  1  -0.00641401  0.24476543  0.24927001  1
  V  V5  1  0.62446326  0.00165997  0.12739953  1
  V  V6  1  0.62489298  0.87741233  0.25319442  1
  V  V7  1  0.61817057  0.50593601  0.62794277  1
  V  V8  1  0.37398244  0.87731084  -0.00066259  1
  V  V9  1  0.12772761  0.61574403  0.50644691  1
  V  V10  1  -0.00996189  0.24867336  0.74755939  1
  V  V11  1  0.62253592  0.25169337  0.87558877  1
  V  V12  1  0.49003473  0.88013958  0.37887720  1
  V  V13  1  0.50009728  0.62598958  0.12617541  1
  V  V14  1  0.12194132  0.62357889  -0.00432362  1
  V  V15  1  0.62797704  0.62870530  0.50335413  1
  V  V16  1  0.62718743  0.11503965  0.50060266  1
  V  V17  1  0.49824562  0.75093870  0.25222670  1
  V  V18  1  0.62832408  0.74985401  0.87407915  1
  V  V19  1  0.12566231  0.37472866  0.24552514  1
  V  V20  1  0.63194944  0.74981806  0.38070323  1
  V  V21  1  0.75709221  0.37768749  0.12409157  1
  V  V22  1  0.75173714  0.50002903  0.75241128  1
  V  V23  1  0.85559150  0.11716604  0.72363821  1
  V  V24  1  0.62275811  0.25782859  0.37497800  1
  V  V25  1  0.25519448  0.00707898  0.25614843  1
  V  V26  1  0.74932380  0.74953016  0.00107418  1
  V  V27  1  0.36995317  0.37625615  -0.00418211  1
  V  V28  1  0.24468710  0.25348706  0.00014559  1
  V  V29  1  0.49988485  0.73961503  0.74665288  1
  V  V30  1  -0.00099604  0.87122546  0.86644785  1
  V  V31  1  0.26351024  0.87993152  0.62896692  1
  V  V32  1  0.12809435  0.49594938  0.12039023  1
  V  V33  1  0.86197441  0.75099567  0.62374455  1
  V  V34  1  0.87598510  0.74952268  0.12618840  1
  V  V35  1  0.49721219  0.12704697  0.12756514  1
  V  V36  1  0.75878089  0.00430050  0.25082931  1
  V  V37  1  0.75528207  0.25161394  0.50204011  1
  V  V38  1  0.38283338  0.49280482  0.37230061  1
  V  V39  1  -0.00054499  0.00185870  -0.00144564  1
  V  V40  1  0.86886474  0.86974636  0.50330545  1
  V  V41  1  0.49442322  0.49876939  -0.00496702  1
  V  V42  1  0.75020990  0.87605751  0.12588616  1
  V  V43  1  0.50082299  0.50075348  0.50030071  1
  V  V44  1  0.47929400  -0.00142611  0.49663228  1
  V  V45  1  0.87438663  0.87448041  -0.00216641  1
  V  V46  1  0.12248255  -0.00488545  0.61619062  1
  V  V47  1  0.00286053  0.75210317  0.25132611  1
  V  V48  1  0.63576267  0.88699723  0.73648997  1
  V  V49  1  0.25760804  0.49184273  0.74381672  1
  V  V50  1  0.12805479  0.88116971  0.74833889  1
  V  V51  1  0.87648132  0.62252860  0.25814076  1
  V  V52  1  0.12312291  0.12479560  -0.00411896  1
  V  V53  1  0.25108332  0.49658537  0.24556814  1
  V  V54  1  0.00502835  0.12388315  0.61227075  1
  V  V55  1  0.88175221  0.62956742  0.75335804  1
  V  V56  1  0.49680724  0.24591794  0.75019388  1
  V  V57  1  0.12177105  0.74871925  0.86638334  1
  V  V58  1  0.49962664  0.87642722  0.87231572  1
  V  V59  1  0.62422303  0.37312739  0.74993349  1
  V  V60  1  0.25121158  0.75034178  -0.00077090  1
  V  V61  1  0.49891394  0.12180721  0.62463874  1
  V  V62  1  0.25400101  0.62266954  0.37594064  1
  V  V63  1  0.50021946  0.25750995  0.25218447  1
  V  V64  1  0.49746779  0.00067894  0.00119421  1
  V  V65  1  0.11599468  0.25682959  0.87028885  1
  V  V66  1  0.87324232  0.24319658  0.12803349  1
  V  V67  1  0.75689413  0.12700582  0.37128126  1
  V  V68  1  0.25814063  0.75095804  0.50316330  1
  V  V69  1  0.87096825  0.38793359  0.49482023  1
  V  V70  1  -0.00721113  0.38502692  0.37227468  1
  V  V71  1  0.37923479  0.37320191  0.50065855  1
  V  V72  1  0.12601576  0.74910117  0.37622602  1
  V  V73  1  0.75554018  0.50222060  0.25715704  1
  V  V74  1  0.74865624  0.12254173  0.87713910  1
  V  V75  1  0.86993863  0.00161232  0.86616747  1
  V  V76  1  -0.00281709  0.48558658  -0.00633161  1
  V  V77  1  0.75440672  0.25756884  0.00107022  1
  V  V78  1  0.12944504  0.24742625  0.37764023  1
  V  V79  1  0.26545679  0.61644086  0.86874083  1
  V  V80  1  0.88238521  -0.00030248  0.38161132  1
  V  V81  1  0.62590614  0.49854715  0.12517492  1
  V  V82  1  0.62276909  0.12695957  0.00230245  1
  V  V83  1  0.00369534  0.62616282  0.62655988  1
  V  V84  1  0.75348762  0.37110954  0.62472172  1
  Zn  Zn85  1  0.62653658  0.62438073  -0.00078201  1
  Zn  Zn86  1  -0.00614506  0.11998388  0.12790178  1
  Zn  Zn87  1  0.30270493  0.07411061  0.43395251  1
  Zn  Zn88  1  0.75435738  0.62306476  0.87885921  1
  Zn  Zn89  1  0.12632214  -0.00125365  0.12563296  1
  Zn  Zn90  1  0.37342851  0.74941237  0.12567169  1
  Zn  Zn91  1  0.25376032  0.12128909  0.85858364  1
  Zn  Zn92  1  0.37552814  0.62337261  0.25061931  1
  Zn  Zn93  1  0.23533831  0.37933706  0.61642103  1
  Zn  Zn94  1  -0.00105292  0.62310559  0.12411816  1
  Zn  Zn95  1  0.37358851  0.12550860  0.26267266  1
  Zn  Zn96  1  0.25502250  0.24350063  0.49549877  1
  Zn  Zn97  1  0.49273286  0.37909634  0.87102463  1
  Zn  Zn98  1  0.00472873  0.49814290  0.50423982  1
  Zn  Zn99  1  0.75729129  0.62641320  0.38368946  1
  Zn  Zn100  1  0.12813085  0.87643449  0.24610796  1
  Zn  Zn101  1  0.24855230  0.87831795  0.12611243  1
  Zn  Zn102  1  0.00761978  0.88359149  0.38643491  1
  Zn  Zn103  1  0.62251454  0.38033974  0.25551514  1
  Zn  Zn104  1  0.36789270  0.00701445  0.85480550  1
  Zn  Zn105  1  0.12972067  0.11126330  0.48869539  1
  Zn  Zn106  1  0.11108790  0.38681454  0.74079251  1
  Zn  Zn107  1  0.18242967  0.18301153  0.18412395  1
  Zn  Zn108  1  0.18011131  0.19318730  0.68175333  1
  Zn  Zn109  1  0.18701597  0.68309425  0.18523547  1
  Zn  Zn110  1  0.19100939  0.68458956  0.68942801  1
  Zn  Zn111  1  0.68588559  0.18889573  0.18938773  1
  Zn  Zn112  1  0.68697811  0.17687553  0.68250859  1
  Zn  Zn113  1  0.68767626  0.68709251  0.19077671  1
  Zn  Zn114  1  0.68800487  0.68774518  0.69213419  1
  Zn  Zn115  1  0.31419799  0.31229493  0.31161559  1
  Zn  Zn116  1  0.30647468  0.30758885  0.81408459  1
  Zn  Zn117  1  0.31044194  0.81612888  0.31151666  1
  Zn  Zn118  1  0.31362245  0.80957694  0.81101263  1
  Zn  Zn119  1  0.81076603  0.31544083  0.31124894  1
  Zn  Zn120  1  0.81180320  0.30334110  0.80664493  1
  Zn  Zn121  1  0.81582399  0.81502089  0.31382584  1
  Zn  Zn122  1  0.81094628  0.81283258  0.80743230  1
  Zn  Zn123  1  0.19151880  0.43131530  0.43250113  1
  Zn  Zn124  1  0.18577835  0.43576454  0.92811640  1
  Zn  Zn125  1  0.19413187  0.92975064  0.43826303  1
  Zn  Zn126  1  0.18919259  0.94033813  0.93286234  1
  Zn  Zn127  1  0.68607102  0.44104103  0.43970309  1
  Zn  Zn128  1  0.68648589  0.43829532  0.93649451  1
  Zn  Zn129  1  0.69108674  0.93245754  0.43710120  1
  Zn  Zn130  1  0.68486250  0.93717004  0.93610441  1
  Zn  Zn131  1  0.30860543  0.06458118  0.06305129  1
  Zn  Zn132  1  0.31628109  0.06484478  0.68994198  1
  Zn  Zn133  1  0.31223374  0.56446173  0.06067398  1
  Zn  Zn134  1  0.31368882  0.55969737  0.56368044  1
  Zn  Zn135  1  0.81211426  0.06249840  0.05891346  1
  Zn  Zn136  1  0.81449164  0.06267456  0.55580528  1
  Zn  Zn137  1  0.81676140  0.56376908  0.06222204  1
  Zn  Zn138  1  0.80975630  0.56369051  0.56871556  1
  Zn  Zn139  1  0.43507854  0.43430582  0.18085787  1
  Zn  Zn140  1  0.43410390  0.43797211  0.68973374  1
  Zn  Zn141  1  0.43296127  0.93715731  0.18748170  1
  Zn  Zn142  1  0.45219769  0.93159226  0.68286403  1
  Zn  Zn143  1  0.93905673  0.43790169  0.18251006  1
  Zn  Zn144  1  0.93508833  0.44151595  0.68439436  1
  Zn  Zn145  1  0.93960302  0.93406336  0.18899322  1
  Zn  Zn146  1  0.93982187  0.93734324  0.68166842  1
  Zn  Zn147  1  0.06637550  0.06271032  0.30796699  1
  Zn  Zn148  1  0.05943229  0.06678131  0.80568257  1
  Zn  Zn149  1  0.06493197  0.56580196  0.31338148  1
  Zn  Zn150  1  0.06373329  0.55805257  0.81128673  1
  Zn  Zn151  1  0.56253047  0.06728245  0.31539678  1
  Zn  Zn152  1  0.55893159  0.06238599  0.81280988  1
  Zn  Zn153  1  0.56556360  0.56471038  0.31472531  1
  Zn  Zn154  1  0.56398445  0.56231699  0.81429051  1
  Zn  Zn155  1  0.44295077  0.19011915  0.43808959  1
  Zn  Zn156  1  0.43311820  0.18728695  0.93676813  1
  Zn  Zn157  1  0.44141928  0.68492837  0.43871451  1
  Zn  Zn158  1  0.44190448  0.68930078  0.93798902  1
  Zn  Zn159  1  0.94012454  0.19365212  0.43655350  1
  Zn  Zn160  1  0.93318659  0.18848410  0.93469160  1
  Zn  Zn161  1  0.94127873  0.68975196  0.44330296  1
  Zn  Zn162  1  0.93813529  0.68545268  0.93665156  1
  Zn  Zn163  1  0.06008203  0.30979469  0.06381380  1
  Zn  Zn164  1  0.05585914  0.31405447  0.56290775  1
  Zn  Zn165  1  0.06314323  0.81399579  0.06093610  1
  Zn  Zn166  1  0.05660994  0.80832245  0.56407537  1
  Zn  Zn167  1  0.56044251  0.31496086  0.06384436  1
  Zn  Zn168  1  0.56419371  0.31238604  0.56262982  1
  Zn  Zn169  1  0.56337055  0.81401034  0.06290915  1
  Zn  Zn170  1  0.56116128  0.81579138  0.56188138  1
  O  O171  1  0.11408570  0.12402476  0.10889267  1
  O  O172  1  0.11725409  0.11095552  0.62455995  1
  O  O173  1  0.12476797  0.61499651  0.11189259  1
  O  O174  1  0.11851408  0.63393152  0.61638695  1
  O  O175  1  0.61959261  0.12086624  0.12150285  1
  O  O176  1  0.60885755  0.13474238  0.61086695  1
  O  O177  1  0.61664508  0.61672984  0.12561703  1
  O  O178  1  0.63051376  0.61409733  0.62032078  1
  O  O179  1  0.37235828  0.38457290  0.38349863  1
  O  O180  1  0.37499130  0.36666167  0.89119923  1
  O  O181  1  0.39116746  0.86922762  0.37468461  1
  O  O182  1  0.38623784  0.87080580  0.88188410  1
  O  O183  1  0.88188629  0.37307334  0.38098879  1
  O  O184  1  0.87063219  0.38316922  0.86770465  1
  O  O185  1  0.87772905  0.88090007  0.38575675  1
  O  O186  1  0.88018025  0.88141437  0.87550582  1
  O  O187  1  0.24807139  -0.00326464  0.36376852  1
  O  O188  1  0.25382432  0.00450116  0.87309066  1
  O  O189  1  0.25976318  0.50322484  0.36515444  1
  O  O190  1  0.25462422  0.51315943  0.87671092  1
  O  O191  1  0.75839521  0.00752437  0.36850436  1
  O  O192  1  0.75789726  0.00997020  0.88285554  1
  O  O193  1  0.74374167  0.50211242  0.36027499  1
  O  O194  1  0.75874606  0.50111491  0.87106123  1
  O  O195  1  0.23941273  0.50531189  0.13208701  1
  O  O196  1  0.25224424  0.49993692  0.63886580  1
  O  O197  1  0.24672176  0.99870165  0.13473477  1
  O  O198  1  0.24357715  0.98165408  0.62681616  1
  O  O199  1  0.74448442  0.49531927  0.12963661  1
  O  O200  1  0.74000322  0.49117574  0.63234953  1
  O  O201  1  0.74665914  0.99717160  0.13208559  1
  O  O202  1  0.77342251  1.08559301  0.66005085  1
  O  O203  1  0.00549959  0.37027580  0.25393100  1
  O  O204  1  -0.01201664  0.35219585  0.73674047  1
  O  O205  1  0.00180663  0.86109940  0.25683110  1
  O  O206  1  0.00715663  0.87830749  0.76082310  1
  O  O207  1  0.50272006  0.36228809  0.24303967  1
  O  O208  1  0.50672035  0.36710119  0.75090666  1
  O  O209  1  0.50508002  0.87024115  0.25691152  1
  O  O210  1  0.51077998  0.86291943  0.75807104  1
  O  O211  1  0.49925291  0.13630571  0.24418199  1
  O  O212  1  0.50992938  0.13705547  0.73902107  1
  O  O213  1  0.50096924  0.63335910  0.24364425  1
  O  O214  1  0.50744234  0.64016383  0.75349400  1
  O  O215  1  1.00343858  0.14114518  0.24679249  1
  O  O216  1  0.98703429  0.12836440  0.73689457  1
  O  O217  1  0.99470062  0.63317246  0.24859827  1
  O  O218  1  0.98964631  0.61977940  0.74368708  1
  O  O219  1  0.36406347  0.25554244  0.00683456  1
  O  O220  1  0.38208245  0.26035042  0.50922712  1
  O  O221  1  0.36764667  0.75797864  -0.00136723  1
  O  O222  1  0.36831646  0.74185782  0.51244188  1
  O  O223  1  0.86146457  0.24735681  0.00752088  1
  O  O224  1  0.85993622  0.26072677  0.49449408  1
  O  O225  1  0.87089853  0.75524460  0.00499595  1
  O  O226  1  0.87202971  0.75492553  0.51093900  1
  O  O227  1  0.12202629  0.26130434  0.47987769  1
  O  O228  1  0.12489009  0.24519171  0.99307095  1
  O  O229  1  0.13548970  0.73997619  0.49329725  1
  O  O230  1  0.13200185  0.74295381  0.99014055  1
  O  O231  1  0.63244666  0.24466275  0.49151978  1
  O  O232  1  0.63181623  0.24634271  0.99768382  1
  O  O233  1  0.61392257  0.74012770  0.49276283  1
  O  O234  1  0.62980891  0.75125648  0.99131160  1
  O  O235  1  0.49311966  0.24558352  0.13143621  1
  O  O236  1  0.49431739  0.24632206  0.63126240  1
  O  O237  1  0.50403577  0.74254807  0.13443516  1
  O  O238  1  0.48606346  0.75572113  0.62990400  1
  O  O239  1  0.98792739  0.25202906  0.13168887  1
  O  O240  1  1.00987332  0.23203992  0.63520059  1
  O  O241  1  0.99600779  0.74855377  0.13388828  1
  O  O242  1  0.98774614  0.73361248  0.62188637  1
  O  O243  1  0.00470485  0.26267252  0.36536004  1
  O  O244  1  -0.00025749  0.24177452  0.85781332  1
  O  O245  1  0.01230168  0.74541586  0.36745325  1
  O  O246  1  0.00944995  0.76109858  0.88230888  1
  O  O247  1  0.51298512  0.24629971  0.36525528  1
  O  O248  1  0.50563925  0.25003467  0.86649504  1
  O  O249  1  0.50787313  0.75632372  0.36919063  1
  O  O250  1  0.50827915  0.75713776  0.86906589  1
  O  O251  1  0.23934221  0.13204175  0.50550888  1
  O  O252  1  0.23570854  0.13652092  1.00152646  1
  O  O253  1  0.24658298  0.63180647  0.49750050  1
  O  O254  1  0.24263009  0.62967202  0.98933633  1
  O  O255  1  0.74498851  0.13485951  0.49219020  1
  O  O256  1  0.74341311  0.13478392  0.99459617  1
  O  O257  1  0.73422289  0.61657524  0.49845547  1
  O  O258  1  0.74751251  0.63406939  1.00033376  1
  O  O259  1  0.25193245  0.36272032  -0.00479959  1
  O  O260  1  0.26446764  0.37002729  0.49890675  1
  O  O261  1  0.25745789  0.86459864  -0.00451933  1
  O  O262  1  0.24522150  0.85930105  0.51686410  1
  O  O263  1  0.74229535  0.36679143  0.01120217  1
  O  O264  1  0.75272058  0.37068928  0.50460382  1
  O  O265  1  0.75489893  0.87103010  0.00588786  1
  O  O266  1  0.76692114  0.87376006  0.49817828  1
  O  O267  1  0.13026331  0.49567217  0.24123836  1
  O  O268  1  0.14385526  0.49542949  0.76489780  1
  O  O269  1  0.13473336  0.99695330  0.24739877  1
  O  O270  1  0.12218837  0.98653933  0.74188629  1
  O  O271  1  0.63299479  0.50187247  0.24055361  1
  O  O272  1  0.62929570  0.49503129  0.74533039  1
  O  O273  1  0.63470830  0.99724983  0.24747118  1
  O  O274  1  0.61665855  0.98561681  0.75205689  1
  O  O275  1  0.36134672  0.00411029  0.24617740  1
  O  O276  1  0.38858706  -0.00133314  0.74378600  1
  O  O277  1  0.36843315  0.49604760  0.25426232  1
  O  O278  1  0.35974284  0.49449629  0.75511921  1
  O  O279  1  0.86408521  -0.00694084  0.25869287  1
  O  O280  1  0.87903069  0.00741027  0.75769938  1
  O  O281  1  0.86781074  0.51032556  0.24178446  1
  O  O282  1  0.87116006  0.50694041  0.75872472  1
  O  O283  1  0.11528999  0.36969198  0.36242373  1
  O  O284  1  0.12170103  0.35994672  0.86859746  1
  O  O285  1  0.12587581  0.85856039  0.37516887  1
  O  O286  1  0.11890490  0.86848686  0.86779720  1
  O  O287  1  0.63204111  0.36248896  0.37458047  1
  O  O288  1  0.62313319  0.36911736  0.86750357  1
  O  O289  1  0.61734787  0.86824398  0.37237785  1
  O  O290  1  0.61633978  0.86657803  0.87260665  1
  O  O291  1  0.38059445  0.13810666  0.12419813  1
  O  O292  1  0.39064556  0.13877562  0.62230582  1
  O  O293  1  0.38782132  0.62673640  0.12766573  1
  O  O294  1  0.37694455  0.63333548  0.62770883  1
  O  O295  1  0.87295279  0.13783089  0.12284292  1
  O  O296  1  0.90049431  0.11934924  0.61541040  1
  O  O297  1  0.87750743  0.63276321  0.13609273  1
  O  O298  1  0.87839097  0.63385427  0.63110354  1
  O  O299  1  0.25565867  0.24550380  0.11599547  1
  O  O300  1  0.26384536  0.25537176  0.62343694  1
  O  O301  1  0.25088866  0.74519748  0.10940893  1
  O  O302  1  0.26341366  0.75178989  0.62238134  1
  O  O303  1  0.75389051  0.25720748  0.12168889  1
  O  O304  1  0.73913892  0.26134974  0.61364755  1
  O  O305  1  0.75388500  0.75727971  0.12266678  1
  O  O306  1  0.76270718  0.74546024  0.62505511  1
  O  O307  1  0.23197353  0.25713671  0.36930144  1
  O  O308  1  0.23523808  0.24469354  0.88373950  1
  O  O309  1  0.24787444  0.74462221  0.38329194  1
  O  O310  1  0.24279930  0.74088038  0.88106483  1
  O  O311  1  0.74481112  0.24382418  0.37937915  1
  O  O312  1  0.74436750  0.24825504  0.88789392  1
  O  O313  1  0.73516304  0.75042721  0.36816930  1
  O  O314  1  0.74229441  0.75203861  0.88168709  1
  O  O315  1  0.00182653  0.11570611  -0.00276079  1
  O  O316  1  0.01088612  0.13427143  0.50820592  1
  O  O317  1  0.01222080  0.61955084  -0.00037836  1
  O  O318  1  0.01152453  0.62142883  0.50504841  1
  O  O319  1  0.50479089  0.12128527  0.00778592  1
  O  O320  1  0.50747925  0.11285760  0.50123880  1
  O  O321  1  0.50147752  0.61852849  0.01018428  1
  O  O322  1  0.51068820  0.61064841  0.49844367  1
  O  O323  1  0.49262570  0.38784441  0.50359371  1
  O  O324  1  0.49124178  0.38259116  0.99898292  1
  O  O325  1  0.50454184  0.89207496  0.49439849  1
  O  O326  1  0.49377831  0.87764484  0.99262218  1
  O  O327  1  0.98692002  0.37716284  0.49179559  1
  O  O328  1  1.00329513  0.38639447  1.00091090  1
  O  O329  1  0.98331981  0.86647075  0.49760351  1
  O  O330  1  0.99456022  0.88285239  0.98816155  1
  O  O331  1  0.49174789  0.50212879  0.38147194  1
  O  O332  1  0.50494058  0.50100901  0.89082521  1
  O  O333  1  0.50621983  0.99519278  0.38733261  1
  O  O334  1  0.50084216  0.98833694  0.88342935  1
  O  O335  1  1.00658931  0.48801198  0.37609416  1
  O  O336  1  0.99071145  0.50237071  0.88226024  1
  O  O337  1  0.98621497  1.00186089  0.36614293  1
  O  O338  1  0.99046616  0.99305170  0.87989299  1
  O  O339  1  -0.00483642  -0.00086759  0.11029054  1
  O  O340  1  0.01125629  0.00915653  0.62678141  1
  O  O341  1  0.01062068  0.50232039  0.11472189  1
  O  O342  1  -0.00801669  0.51728594  0.62068469  1
  O  O343  1  0.50525194  0.00558465  0.12244751  1
  O  O344  1  0.49665018  0.00817060  0.60575360  1
  O  O345  1  0.50766056  0.50651476  0.12056276  1
  O  O346  1  0.51107164  0.49571085  0.61947513  1
  O  O347  1  0.23854393  0.38685431  0.25448384  1
  O  O348  1  0.24799092  0.38430394  0.74973634  1
  O  O349  1  0.24941449  0.88546309  0.24665989  1
  O  O350  1  0.24164530  0.86463466  0.73634835  1
  O  O351  1  0.74801647  0.38512186  0.24062542  1
  O  O352  1  0.74536634  0.37673256  0.74164880  1
  O  O353  1  0.74528717  0.88448232  0.24623712  1
  O  O354  1  0.73523040  0.87736735  0.75391532  1
  O  O355  1  0.24740952  0.11158483  0.24713238  1
  O  O356  1  0.24800543  0.13247484  0.74475540  1
  O  O357  1  0.25171702  0.61313534  0.25505858  1
  O  O358  1  0.24784866  0.61635218  0.76371646  1
  O  O359  1  0.74597855  0.11682624  0.26012985  1
  O  O360  1  0.75060466  0.14880323  0.77748178  1
  O  O361  1  0.75919049  0.61862773  0.25120049  1
  O  O362  1  0.76151670  0.61703450  0.75165238  1
  O  O363  1  0.36938257  0.13988968  0.37369320  1
  O  O364  1  0.36994228  0.11992736  0.87921100  1
  O  O365  1  0.37189410  0.61253123  0.37387325  1
  O  O366  1  0.36333666  0.63163056  0.87790909  1
  O  O367  1  0.86378461  0.11782006  0.38676036  1
  O  O368  1  0.86532329  0.11497234  0.87271469  1
  O  O369  1  0.87464129  0.63374476  0.36321536  1
  O  O370  1  0.87460573  0.62317821  0.86469719  1
  O  O371  1  0.11981587  0.38369780  0.13468165  1
  O  O372  1  0.12379155  0.37045332  0.62882636  1
  O  O373  1  0.12872590  0.87807452  0.12569989  1
  O  O374  1  0.12722350  0.87553544  0.63255254  1
  O  O375  1  0.63336992  0.38543614  0.12775383  1
  O  O376  1  0.63301686  0.38432921  0.62909320  1
  O  O377  1  0.62999568  0.88187732  0.13193524  1
  O  O378  1  0.62261696  0.87251018  0.63750562  1
  O  O379  1  0.11635002  0.25884031  0.25246301  1
  O  O380  1  0.10637151  0.24540688  0.75717198  1
  O  O381  1  0.11998225  0.74455752  0.25876054  1
  O  O382  1  0.12935501  0.75723295  0.76138970  1
  O  O383  1  0.61857530  0.25271467  0.25718592  1
  O  O384  1  0.61718839  0.25481194  0.75388979  1
  O  O385  1  0.61555114  0.75531308  0.25805599  1
  O  O386  1  0.62117525  0.75818773  0.75771063  1
  O  O387  1  0.38108627  0.25215177  0.24083291  1
  O  O388  1  0.38774583  0.26016844  0.74152417  1
  O  O389  1  0.38788891  0.74841221  0.24934426  1
  O  O390  1  0.38317182  0.75191274  0.73768571  1
  O  O391  1  0.88199832  0.25597427  0.24141514  1
  O  O392  1  0.87984542  0.23093247  0.74508052  1
  O  O393  1  0.88341888  0.74481198  0.24644275  1
  O  O394  1  0.87193727  0.74177119  0.73827376  1
  O  O395  1  0.38195472  0.49445268  0.49334902  1
  O  O396  1  0.38344963  0.48917940  1.01155986  1
  O  O397  1  0.38184996  1.00139651  0.49344464  1
  O  O398  1  0.38080093  0.98771611  1.00456090  1
  O  O399  1  0.86941317  0.49058475  0.49843602  1
  O  O400  1  0.88519260  0.50558316  0.99003110  1
  O  O401  1  0.87131694  0.98674893  0.49324575  1
  O  O402  1  0.88028467  0.99504074  0.98897512  1
  O  O403  1  0.11300340  0.00726735  -0.00485410  1
  O  O404  1  0.12838198  -0.00781042  0.51103246  1
  O  O405  1  0.12031881  0.50424025  0.00170484  1
  O  O406  1  0.13162752  0.51261399  0.49313933  1
  O  O407  1  0.61921137  0.00542383  0.00756821  1
  O  O408  1  0.63630174  0.01427703  0.49751885  1
  O  O409  1  0.61672648  0.50077284  0.01068770  1
  O  O410  1  0.61821726  0.50507300  0.50808366  1
  O  O411  1  0.37601300  0.36143133  0.11302288  1
  O  O412  1  0.37492419  0.36892748  0.61482995  1
  O  O413  1  0.37456795  0.86845617  0.11190600  1
  O  O414  1  0.36402161  0.86913964  0.62687928  1
  O  O415  1  0.86277793  0.36694095  0.12638244  1
  O  O416  1  0.85939812  0.38085380  0.61470564  1
  O  O417  1  0.86972527  0.86978541  0.11881659  1
  O  O418  1  0.87922824  0.86192731  0.61808236  1
  O  O419  1  0.11495787  0.14421755  0.37357738  1
  O  O420  1  0.11885989  0.13324118  0.88426615  1
  O  O421  1  0.13388595  0.63184593  0.38301305  1
  O  O422  1  0.12945417  0.63250854  0.88187441  1
  O  O423  1  0.63632458  0.13420569  0.38214402  1
  O  O424  1  0.62956817  0.13002950  0.88318498  1
  O  O425  1  0.62674901  0.63383358  0.38410022  1
  O  O426  1  0.62912317  0.63850057  0.87666909  1
