# generated using pymatgen
data_V85Zn86O256
_symmetry_space_group_name_H-M   'P 1'
_cell_length_a   16.97587496
_cell_length_b   16.96980508
_cell_length_c   16.97196326
_cell_angle_alpha   90.03316911
_cell_angle_beta   89.88368983
_cell_angle_gamma   90.09386772
_symmetry_Int_Tables_number   1
_chemical_formula_structural   V85Zn86O256
_chemical_formula_sum   'V85 Zn86 O256'
_cell_volume   4889.21972043
_cell_formula_units_Z   1
loop_
 _symmetry_equiv_pos_site_id
 _symmetry_equiv_pos_as_xyz
  1  'x, y, z'
loop_
 _atom_site_type_symbol
 _atom_site_label
 _atom_site_symmetry_multiplicity
 _atom_site_fract_x
 _atom_site_fract_y
 _atom_site_fract_z
 _atom_site_occupancy
  V  V0  1  -0.00270099  -0.00232492  -0.00071526  1
  V  V1  1  0.37208865  0.51735183  0.37053816  1
  V  V2  1  0.37162667  0.50052031  0.87727766  1
  V  V3  1  0.75007901  0.87421500  0.62520751  1
  V  V4  1  0.11055102  0.62180158  0.00669015  1
  V  V5  1  0.12687390  0.25663751  0.36982632  1
  V  V6  1  0.36883982  0.87524781  0.00769670  1
  V  V7  1  0.24738893  0.62561802  0.87793524  1
  V  V8  1  0.75022456  0.12485581  0.87537302  1
  V  V9  1  0.87316108  0.61554234  0.75368203  1
  V  V10  1  0.25103362  0.00335231  0.75003005  1
  V  V11  1  0.37140232  0.62557156  0.75129758  1
  V  V12  1  0.62299426  0.87111493  0.25057947  1
  V  V13  1  0.62303406  0.12437865  0.00039321  1
  V  V14  1  0.49558908  0.12317011  0.12780810  1
  V  V15  1  0.50131525  0.50408793  0.50056894  1
  V  V16  1  0.49341930  0.37574909  0.37572710  1
  V  V17  1  0.62497769  0.74991276  0.87648852  1
  V  V18  1  0.00223586  0.00152453  0.49679929  1
  V  V19  1  0.00158644  0.38818265  0.87091195  1
  V  V20  1  0.86205972  0.25279828  0.62054911  1
  V  V21  1  0.37880736  0.24945609  0.62567487  1
  V  V22  1  0.24633647  0.37424162  0.13262370  1
  V  V23  1  0.00124990  0.49535377  0.49234131  1
  V  V24  1  0.37442264  0.74947901  0.62454748  1
  V  V25  1  0.24692707  0.37327922  0.63023839  1
  V  V26  1  0.87454408  0.24396855  0.12835767  1
  V  V27  1  0.25213847  0.74705450  0.49567148  1
  V  V28  1  0.87590435  -0.00291755  0.87765416  1
  V  V29  1  0.87670390  0.75325511  0.62207828  1
  V  V30  1  0.62420753  0.87151635  0.75240374  1
  V  V31  1  0.75606985  0.75408946  0.00052988  1
  V  V32  1  0.87599849  0.12685871  0.74666674  1
  V  V33  1  0.00154193  0.87278478  0.36686608  1
  V  V34  1  0.74829611  0.75367087  0.49825892  1
  V  V35  1  0.25296238  0.01304406  0.25427146  1
  V  V36  1  0.36625503  0.37206028  0.00190333  1
  V  V37  1  0.12558588  0.74834846  0.37016861  1
  V  V38  1  0.61872596  -0.00353880  0.61783029  1
  V  V39  1  0.63334816  0.24127002  0.37759271  1
  V  V40  1  0.88227990  0.74439889  0.13495575  1
  V  V41  1  0.50229806  0.87473938  0.37353459  1
  V  V42  1  0.75882337  0.62471084  0.37151608  1
  V  V43  1  0.74790798  -0.00280998  0.75047479  1
  V  V44  1  0.37886886  0.74358460  0.13389544  1
  V  V45  1  0.86887957  0.37434479  0.49089643  1
  V  V46  1  0.24791977  0.75344214  0.00738253  1
  V  V47  1  0.49914012  0.74863553  0.75161431  1
  V  V48  1  0.13291624  -0.00567894  0.12492989  1
  V  V49  1  0.50138256  0.12007837  0.61937301  1
  V  V50  1  0.75483717  0.87383277  0.12255707  1
  V  V51  1  0.49800789  0.87406290  0.87718528  1
  V  V52  1  0.25312160  0.51241146  0.25268546  1
  V  V53  1  0.87927458  0.38746056  -0.00524951  1
  V  V54  1  -0.00339280  0.12241852  0.12992113  1
  V  V55  1  0.75286851  0.24968504  -0.00138448  1
  V  V56  1  0.12689903  0.00134376  0.62212094  1
  V  V57  1  0.75624292  0.00984398  0.24940790  1
  V  V58  1  0.13285951  0.87463231  0.24767822  1
  V  V59  1  0.00123379  0.75293368  0.74981350  1
  V  V60  1  0.62502294  0.74772986  0.37420791  1
  V  V61  1  0.87734142  0.01417828  0.36815629  1
  V  V62  1  0.37574317  0.01114951  0.37363283  1
  V  V63  1  0.50690881  0.62148635  0.62346664  1
  V  V64  1  0.38087553  0.87737492  0.49869578  1
  V  V65  1  0.12678718  0.49437633  0.62923971  1
  V  V66  1  0.13060414  0.12396848  0.48865050  1
  V  V67  1  0.75376605  0.61447245  0.87526005  1
  V  V68  1  0.49674681  0.50419671  0.00649111  1
  V  V69  1  0.11474269  0.49896418  0.12890868  1
  V  V70  1  -0.00197718  0.87773548  0.87606530  1
  V  V71  1  0.37300350  0.00041330  0.87641795  1
  V  V72  1  0.13169608  0.13309700  -0.00079178  1
  V  V73  1  0.25229901  0.24663704  0.49270083  1
  V  V74  1  0.62564967  0.37465813  0.24818832  1
  V  V75  1  0.50045054  0.37332759  0.87336367  1
  V  V76  1  0.87769863  0.87733006  0.49661852  1
  V  V77  1  0.62303767  0.62621121  0.00322628  1
  V  V78  1  0.62204494  0.50213329  0.12860384  1
  V  V79  1  0.00248702  0.62552609  0.62425156  1
  V  V80  1  0.75764193  0.50222813  0.25374190  1
  V  V81  1  0.49335688  0.24566660  0.25006391  1
  V  V82  1  0.36848474  0.24733848  0.12367875  1
  V  V83  1  0.13091780  0.62382847  0.49513846  1
  V  V84  1  0.00323124  0.25459777  0.24894133  1
  Zn  Zn85  1  0.74216937  0.39743794  0.62532461  1
  Zn  Zn86  1  0.38050901  0.12593677  0.75300559  1
  Zn  Zn87  1  0.13026538  0.26151644  0.86372466  1
  Zn  Zn88  1  0.62479404  0.25149103  0.87162582  1
  Zn  Zn89  1  0.25698355  0.13865246  0.88427621  1
  Zn  Zn90  1  0.63668366  0.13384645  0.50286581  1
  Zn  Zn91  1  -0.00078901  0.37826499  0.36756488  1
  Zn  Zn92  1  0.49899776  -0.00138340  0.00278957  1
  Zn  Zn93  1  0.49873888  0.63296642  0.15891202  1
  Zn  Zn94  1  0.25123992  0.87469220  0.62601255  1
  Zn  Zn95  1  0.63414532  0.38132356  0.74330360  1
  Zn  Zn96  1  0.37340747  0.37751114  0.50015645  1
  Zn  Zn97  1  0.62324716  -0.00172859  0.12796736  1
  Zn  Zn98  1  0.66597997  0.57855604  0.54036549  1
  Zn  Zn99  1  0.24463107  0.49459612  0.75423126  1
  Zn  Zn100  1  0.12285502  0.75195340  0.87793939  1
  Zn  Zn101  1  0.75200842  0.37707357  0.12358492  1
  Zn  Zn102  1  0.50679303  0.25145950  0.74782517  1
  Zn  Zn103  1  0.12518516  0.87880579  0.75010754  1
  Zn  Zn104  1  0.00084768  0.13197086  0.62018449  1
  Zn  Zn105  1  0.90122070  0.61810281  0.24772354  1
  Zn  Zn106  1  0.00662509  0.25921404  0.74626825  1
  Zn  Zn107  1  0.18475270  0.18603064  0.18544692  1
  Zn  Zn108  1  0.19310726  0.18622283  0.68367315  1
  Zn  Zn109  1  0.18469992  0.68654869  0.18678687  1
  Zn  Zn110  1  0.18702455  0.68692774  0.68523137  1
  Zn  Zn111  1  0.68356610  0.18914844  0.18628914  1
  Zn  Zn112  1  0.68334442  0.18949996  0.69042528  1
  Zn  Zn113  1  0.68852878  0.68639220  0.18805200  1
  Zn  Zn114  1  0.69697567  0.55141371  0.70782297  1
  Zn  Zn115  1  0.31032226  0.31419008  0.30929991  1
  Zn  Zn116  1  0.31249672  0.31063679  0.81253711  1
  Zn  Zn117  1  0.30979713  0.81703174  0.31354193  1
  Zn  Zn118  1  0.30939669  0.81413570  0.81489179  1
  Zn  Zn119  1  0.81306520  0.30821529  0.30948864  1
  Zn  Zn120  1  0.81186240  0.32133866  0.80809888  1
  Zn  Zn121  1  0.81144682  0.81863905  0.30991865  1
  Zn  Zn122  1  0.81290550  0.80754635  0.81172192  1
  Zn  Zn123  1  0.19003165  0.43467592  0.43807481  1
  Zn  Zn124  1  0.18244406  0.43879620  0.94292222  1
  Zn  Zn125  1  0.19446629  0.93528780  0.43483565  1
  Zn  Zn126  1  0.18514981  0.94028007  0.93598476  1
  Zn  Zn127  1  0.68707354  0.43280639  0.43138357  1
  Zn  Zn128  1  0.68497747  0.43635338  0.93927511  1
  Zn  Zn129  1  0.70491528  0.96948375  0.45000587  1
  Zn  Zn130  1  0.68639541  0.93834186  0.93936231  1
  Zn  Zn131  1  0.31168221  0.06086177  0.06594422  1
  Zn  Zn132  1  0.31467384  0.06267166  0.56005519  1
  Zn  Zn133  1  0.30915040  0.56482493  0.06631582  1
  Zn  Zn134  1  0.31595695  0.56054434  0.56113089  1
  Zn  Zn135  1  0.81180027  0.06108588  0.06275893  1
  Zn  Zn136  1  0.80977270  0.06657127  0.55994318  1
  Zn  Zn137  1  0.80925043  0.56716731  0.06737621  1
  Zn  Zn138  1  0.82857968  0.56615940  0.55806350  1
  Zn  Zn139  1  0.43435304  0.43758678  0.18991039  1
  Zn  Zn140  1  0.43604508  0.43918554  0.68836744  1
  Zn  Zn141  1  0.43527570  0.93509808  0.19143475  1
  Zn  Zn142  1  0.43657893  0.93545249  0.68886182  1
  Zn  Zn143  1  0.93347337  0.43122509  0.18289554  1
  Zn  Zn144  1  0.93783173  0.43339393  0.68232908  1
  Zn  Zn145  1  0.93770578  0.93294346  0.18614703  1
  Zn  Zn146  1  0.93934986  0.94166807  0.68657926  1
  Zn  Zn147  1  0.06349795  0.06390859  0.31005318  1
  Zn  Zn148  1  0.08186870  0.09673227  0.79422833  1
  Zn  Zn149  1  0.06747603  0.56030951  0.30861029  1
  Zn  Zn150  1  0.06055630  0.56451553  0.81432539  1
  Zn  Zn151  1  0.56194346  0.05741536  0.31168861  1
  Zn  Zn152  1  0.55985964  0.06316247  0.80929710  1
  Zn  Zn153  1  0.56849865  0.56328794  0.31928225  1
  Zn  Zn154  1  0.55794129  0.56395755  0.81880730  1
  Zn  Zn155  1  0.44574831  0.18777447  0.44251599  1
  Zn  Zn156  1  0.43713672  0.18887419  0.94015999  1
  Zn  Zn157  1  0.44240964  0.68864268  0.43391533  1
  Zn  Zn158  1  0.43415477  0.68903994  0.94189091  1
  Zn  Zn159  1  0.94121116  0.19134065  0.43914980  1
  Zn  Zn160  1  0.94346335  0.19232417  0.93395005  1
  Zn  Zn161  1  0.94186383  0.68599812  0.43208053  1
  Zn  Zn162  1  0.93311297  0.68901320  0.93785863  1
  Zn  Zn163  1  0.05984409  0.31626004  0.05970628  1
  Zn  Zn164  1  0.05877095  0.31012032  0.56188239  1
  Zn  Zn165  1  0.06129504  0.81304802  0.06231100  1
  Zn  Zn166  1  0.06388954  0.81522097  0.55913470  1
  Zn  Zn167  1  0.55903907  0.31245055  0.06089577  1
  Zn  Zn168  1  0.56640738  0.31565683  0.56158759  1
  Zn  Zn169  1  0.56048996  0.81258009  0.06412174  1
  Zn  Zn170  1  0.56271083  0.81066383  0.56262867  1
  O  O171  1  0.11642967  0.11424828  0.11740959  1
  O  O172  1  0.12594709  0.11354719  0.61038185  1
  O  O173  1  0.12709770  0.61510008  0.11515486  1
  O  O174  1  0.12119800  0.61849142  0.61397290  1
  O  O175  1  0.61419104  0.12519168  0.11651095  1
  O  O176  1  0.62039568  0.11329976  0.62585124  1
  O  O177  1  0.61860006  0.62061192  0.12065652  1
  O  O178  1  0.60754357  0.62589709  0.62950420  1
  O  O179  1  0.38554334  0.37850833  0.37294419  1
  O  O180  1  0.37798267  0.38005140  0.88533896  1
  O  O181  1  0.38509803  0.87473275  0.38110188  1
  O  O182  1  0.37805742  0.88131925  0.88478521  1
  O  O183  1  0.87850800  0.36446729  0.38753777  1
  O  O184  1  0.88209546  0.37165318  0.88893316  1
  O  O185  1  0.88681870  0.88094624  0.37591175  1
  O  O186  1  0.88356530  0.88680865  0.86792294  1
  O  O187  1  0.26488537  -0.00183458  0.36881616  1
  O  O188  1  0.25856889  0.00192113  0.86849802  1
  O  O189  1  0.25559723  0.49168588  0.36057124  1
  O  O190  1  0.25186532  0.50916714  0.87679168  1
  O  O191  1  0.76411765  -0.01098160  0.35456932  1
  O  O192  1  0.75783833  0.00331007  0.87230188  1
  O  O193  1  0.74402881  0.51120546  0.36546562  1
  O  O194  1  0.74772008  0.51595737  0.88677923  1
  O  O195  1  0.24792784  0.49430720  0.13641334  1
  O  O196  1  0.24397771  0.49043760  0.62264741  1
  O  O197  1  0.23880224  1.00054778  0.13346442  1
  O  O198  1  0.24509598  0.99870949  0.63088525  1
  O  O199  1  0.73920762  0.49859617  0.13503773  1
  O  O200  1  0.74033268  0.51638878  0.60837186  1
  O  O201  1  0.75095404  0.99165846  0.13273354  1
  O  O202  1  0.74007524  0.99141899  0.63220096  1
  O  O203  1  -0.00358668  0.35969711  0.24875409  1
  O  O204  1  -0.00917724  0.37563664  0.76543627  1
  O  O205  1  0.01345637  0.88200789  0.26013629  1
  O  O206  1  0.00069541  0.86934873  0.75641314  1
  O  O207  1  0.50658143  0.36847828  0.25573478  1
  O  O208  1  0.49158742  0.37478950  0.76642215  1
  O  O209  1  0.51230294  0.87831866  0.25796005  1
  O  O210  1  0.50265358  0.86803417  0.75797033  1
  O  O211  1  0.50622724  0.13504622  0.23901688  1
  O  O212  1  0.49870320  0.13121157  0.73882985  1
  O  O213  1  0.49813011  0.62781201  0.26756799  1
  O  O214  1  0.48998900  0.63024188  0.74560841  1
  O  O215  1  1.00456102  0.13238154  0.23585473  1
  O  O216  1  0.97942703  0.11535663  0.74401277  1
  O  O217  1  1.00845829  0.63686526  0.26066220  1
  O  O218  1  0.99516377  0.63564450  0.74645863  1
  O  O219  1  0.37975110  0.26140474  0.01226168  1
  O  O220  1  0.36792015  0.24924817  0.50688023  1
  O  O221  1  0.36592757  0.75774037  0.00636376  1
  O  O222  1  0.36816727  0.75484454  0.50258104  1
  O  O223  1  0.86663985  0.25058479  0.00731075  1
  O  O224  1  0.88004323  0.26057924  0.51008468  1
  O  O225  1  0.86073539  0.74628705  0.00954332  1
  O  O226  1  0.87127932  0.75771924  0.50094817  1
  O  O227  1  0.13183131  0.24191871  0.49249937  1
  O  O228  1  0.11882278  0.23323903  1.00565753  1
  O  O229  1  0.13269866  0.74411635  0.49453187  1
  O  O230  1  0.13044602  0.73901363  1.00369799  1
  O  O231  1  0.62305816  0.25192601  0.48141530  1
  O  O232  1  0.63465071  0.24158755  1.00184969  1
  O  O233  1  0.63977758  0.75883961  0.49092677  1
  O  O234  1  0.63111029  0.74549488  0.99620924  1
  O  O235  1  0.49164248  0.24450203  0.13147810  1
  O  O236  1  0.49120662  0.24404159  0.62230862  1
  O  O237  1  0.48405555  0.74828796  0.12095304  1
  O  O238  1  0.49335818  0.74202366  0.62969152  1
  O  O239  1  0.99521266  0.24261404  0.12942616  1
  O  O240  1  0.98760766  0.24890416  0.62927381  1
  O  O241  1  0.97973288  0.75984024  0.11876120  1
  O  O242  1  0.99768566  0.74794676  0.62990690  1
  O  O243  1  0.00769325  0.24906002  0.36372036  1
  O  O244  1  0.00580282  0.26049566  0.86934158  1
  O  O245  1  0.01460726  0.76258527  0.38301201  1
  O  O246  1  -0.00278424  0.76098909  0.86817519  1
  O  O247  1  0.50228133  0.25784574  0.36635049  1
  O  O248  1  0.49853711  0.26109947  0.87634404  1
  O  O249  1  0.51422240  0.76107501  0.38200268  1
  O  O250  1  0.50289516  0.75432083  0.87312804  1
  O  O251  1  0.24267729  0.13622618  0.50311970  1
  O  O252  1  0.23515857  0.12117776  1.00607590  1
  O  O253  1  0.24199840  0.63494946  0.50622685  1
  O  O254  1  0.24464538  0.63296058  0.99217913  1
  O  O255  1  0.73207132  0.07992606  0.48379335  1
  O  O256  1  0.74280360  0.13065138  0.99695841  1
  O  O257  1  0.75593510  0.63737150  0.49046974  1
  O  O258  1  0.74297523  0.63512216  0.99618035  1
  O  O259  1  0.26141558  0.38429265  0.01175607  1
  O  O260  1  0.25241011  0.36313105  0.50869206  1
  O  O261  1  0.25607189  0.86488633  -0.00740039  1
  O  O262  1  0.26064245  0.86426729  0.50136036  1
  O  O263  1  0.75848196  0.36493279  -0.00053480  1
  O  O264  1  0.76647841  0.38339195  0.49903526  1
  O  O265  1  0.74140778  0.86600284  0.01027916  1
  O  O266  1  0.75875504  0.87312196  0.50313018  1
  O  O267  1  0.13847412  0.50031587  0.23677172  1
  O  O268  1  0.12600609  0.50954899  0.73309478  1
  O  O269  1  0.13169570  0.99603119  0.24382385  1
  O  O270  1  0.13306582  1.00612055  0.73873963  1
  O  O271  1  0.63069412  0.48907852  0.24870999  1
  O  O272  1  0.61596086  0.49477075  0.75611900  1
  O  O273  1  0.63755638  0.99043933  0.25064806  1
  O  O274  1  0.63010966  0.99080993  0.74726325  1
  O  O275  1  0.36674751  -0.00651286  0.26345626  1
  O  O276  1  0.36816073  -0.00257096  0.76088545  1
  O  O277  1  0.36203638  0.49715143  0.25566794  1
  O  O278  1  0.36913171  0.50787785  0.75921019  1
  O  O279  1  0.86573245  -0.00232403  0.25177208  1
  O  O280  1  0.86690869  0.00542589  0.75600654  1
  O  O281  1  0.86188955  0.49928729  0.24164824  1
  O  O282  1  0.88220542  0.51786627  0.73861421  1
  O  O283  1  0.12040104  0.35994198  0.38182799  1
  O  O284  1  0.10768335  0.37614028  0.88646066  1
  O  O285  1  0.11999495  0.86971463  0.36860675  1
  O  O286  1  0.11151493  0.87471452  0.87189482  1
  O  O287  1  0.61466671  0.36552654  0.36497179  1
  O  O288  1  0.60869881  0.37302572  0.88342506  1
  O  O289  1  0.61835344  0.87035030  0.36782476  1
  O  O290  1  0.61825104  0.87123779  0.87254007  1
  O  O291  1  0.38459434  0.13495624  0.11670930  1
  O  O292  1  0.38401692  0.13094266  0.62303030  1
  O  O293  1  0.37764533  0.63929849  0.12130819  1
  O  O294  1  0.37865435  0.63098813  0.63214106  1
  O  O295  1  0.88613457  0.13258478  0.11624018  1
  O  O296  1  0.87384315  0.13350987  0.62742893  1
  O  O297  1  0.87080266  0.63905959  0.13027326  1
  O  O298  1  0.88506805  0.63529105  0.63108976  1
  O  O299  1  0.25976407  0.25731087  0.13294246  1
  O  O300  1  0.25674964  0.25456028  0.61561348  1
  O  O301  1  0.25779083  0.74414429  0.11273456  1
  O  O302  1  0.25523404  0.75246102  0.61573735  1
  O  O303  1  0.75725283  0.24909406  0.11714411  1
  O  O304  1  0.76193586  0.24350402  0.62068306  1
  O  O305  1  0.75390569  0.75616857  0.11833563  1
  O  O306  1  0.75959445  0.75858384  0.60920313  1
  O  O307  1  0.24406732  0.25647335  0.38380641  1
  O  O308  1  0.24289514  0.24964028  0.87320857  1
  O  O309  1  0.23932580  0.75648912  0.38648270  1
  O  O310  1  0.24601152  0.74158786  0.88462851  1
  O  O311  1  0.73189044  0.24950824  0.36313769  1
  O  O312  1  0.75246984  0.24367060  0.88596290  1
  O  O313  1  0.74670329  0.74937915  0.38187113  1
  O  O314  1  0.74493039  0.74727378  0.88463611  1
  O  O315  1  0.00872906  0.11460280  0.00802144  1
  O  O316  1  0.01283358  0.11921079  0.49915815  1
  O  O317  1  0.01245680  0.62952616  -0.00357265  1
  O  O318  1  0.00759727  0.61733410  0.50382111  1
  O  O319  1  0.50803631  0.12524904  0.00879201  1
  O  O320  1  0.51115125  0.12754323  0.51540629  1
  O  O321  1  0.50376889  0.61232562  -0.00437998  1
  O  O322  1  0.49483263  0.61722663  0.50960240  1
  O  O323  1  0.49712963  0.38270413  0.48875153  1
  O  O324  1  0.48887149  0.38464607  0.99739499  1
  O  O325  1  0.48836417  0.86914313  0.49203411  1
  O  O326  1  0.48963148  0.87722358  0.99453379  1
  O  O327  1  0.99137121  0.38084551  0.49847185  1
  O  O328  1  0.98476845  0.37285924  0.99317626  1
  O  O329  1  0.99805497  0.88234675  0.48862962  1
  O  O330  1  1.00446474  0.88793242  0.99061541  1
  O  O331  1  0.48946401  0.49286294  0.37915770  1
  O  O332  1  0.49028751  0.49302218  0.88812704  1
  O  O333  1  0.48708874  0.98777907  0.36924599  1
  O  O334  1  0.48827447  0.99418825  0.87598914  1
  O  O335  1  1.01375825  0.49495593  0.38836198  1
  O  O336  1  0.99989037  0.48877084  0.87425695  1
  O  O337  1  0.99646433  0.99299187  0.37631868  1
  O  O338  1  0.99209742  0.99486798  0.88144003  1
  O  O339  1  0.00403279  0.00428325  0.11858046  1
  O  O340  1  0.00969684  0.00254738  0.61551765  1
  O  O341  1  0.01641004  0.49349222  0.13301825  1
  O  O342  1  0.00966517  0.50322787  0.61424053  1
  O  O343  1  0.49864215  0.01090297  0.12616694  1
  O  O344  1  0.50718518  0.00867818  0.63662555  1
  O  O345  1  0.50208156  0.50034625  0.11855818  1
  O  O346  1  0.48758989  0.50839802  0.61145574  1
  O  O347  1  0.25023786  0.38171185  0.23689749  1
  O  O348  1  0.25181075  0.37528239  0.73460918  1
  O  O349  1  0.23678330  0.88867702  0.25518577  1
  O  O350  1  0.24603426  0.88716097  0.74896058  1
  O  O351  1  0.74071592  0.38139906  0.24983123  1
  O  O352  1  0.75274515  0.38679214  0.74253376  1
  O  O353  1  0.74151350  0.88233464  0.23941188  1
  O  O354  1  0.74522699  0.87685742  0.74543541  1
  O  O355  1  0.24749015  0.11280118  0.24749557  1
  O  O356  1  0.25807068  0.11099227  0.75061067  1
  O  O357  1  0.24823734  0.61117645  0.24840605  1
  O  O358  1  0.25143065  0.62686337  0.76314224  1
  O  O359  1  0.74433668  0.10823460  0.24179518  1
  O  O360  1  0.75710461  0.11806443  0.75546672  1
  O  O361  1  0.74835073  0.61477989  0.25627838  1
  O  O362  1  0.76094942  0.62865952  0.76303812  1
  O  O363  1  0.38598794  0.10914207  0.38128402  1
  O  O364  1  0.37487037  0.11350562  0.87775619  1
  O  O365  1  0.37157186  0.61598515  0.37965702  1
  O  O366  1  0.36470941  0.62161453  0.87334336  1
  O  O367  1  0.88413358  0.11297356  0.37553157  1
  O  O368  1  0.87083244  0.11688120  0.86738519  1
  O  O369  1  0.86292200  0.63368006  0.36702358  1
  O  O370  1  0.86617055  0.63273539  0.86570670  1
  O  O371  1  0.13471636  0.38964745  0.11111068  1
  O  O372  1  0.13329889  0.38313553  0.61660955  1
  O  O373  1  0.11701398  0.88494293  0.13472033  1
  O  O374  1  0.12696404  0.88973626  0.62376463  1
  O  O375  1  0.62375952  0.37854733  0.13515443  1
  O  O376  1  0.62888042  0.37827457  0.62520381  1
  O  O377  1  0.63153632  0.87535877  0.13316125  1
  O  O378  1  0.62810750  0.87662265  0.63497203  1
  O  O379  1  0.11692374  0.24416801  0.25792107  1
  O  O380  1  0.11190048  0.20802575  0.75765110  1
  O  O381  1  0.13727992  0.76011202  0.26053785  1
  O  O382  1  0.11160631  0.75087998  0.75078302  1
  O  O383  1  0.61431346  0.25741344  0.25399749  1
  O  O384  1  0.62388661  0.25987567  0.75593297  1
  O  O385  1  0.63622676  0.76177529  0.26121804  1
  O  O386  1  0.61402874  0.75731333  0.76189651  1
  O  O387  1  0.38587666  0.25606836  0.23992932  1
  O  O388  1  0.37502698  0.24719114  0.73428594  1
  O  O389  1  0.36312436  0.76060409  0.23090906  1
  O  O390  1  0.37848767  0.74662783  0.74610323  1
  O  O391  1  0.88205306  0.25172450  0.23563438  1
  O  O392  1  0.87170119  0.24096712  0.73707838  1
  O  O393  1  0.86936097  0.75088695  0.23727458  1
  O  O394  1  0.88619738  0.74630728  0.74279535  1
  O  O395  1  0.38075740  0.49715478  0.48765029  1
  O  O396  1  0.37957557  0.49399026  0.99901834  1
  O  O397  1  0.36684723  0.98796619  0.48579627  1
  O  O398  1  0.37207466  0.99168055  0.99338657  1
  O  O399  1  0.88913246  0.48547238  0.50318258  1
  O  O400  1  0.86780221  0.48490232  1.01020000  1
  O  O401  1  0.88288251  0.99506618  0.48888850  1
  O  O402  1  0.88405079  1.00719709  0.98867689  1
  O  O403  1  0.11759788  0.00319408  0.01006125  1
  O  O404  1  0.12528982  0.00556475  0.50069953  1
  O  O405  1  0.12889879  0.51472469  0.01350271  1
  O  O406  1  0.12350298  0.50683936  0.50688570  1
  O  O407  1  0.62340701  0.01238586  0.00435557  1
  O  O408  1  0.61253341  -0.02007836  0.51913101  1
  O  O409  1  0.61523904  0.50416872  0.00872521  1
  O  O410  1  0.60642400  0.50095209  0.48200174  1
  O  O411  1  0.36780085  0.36755798  0.12015605  1
  O  O412  1  0.36784961  0.36593909  0.62166493  1
  O  O413  1  0.37794315  0.86848161  0.11262549  1
  O  O414  1  0.37643200  0.86870830  0.61524016  1
  O  O415  1  0.87362216  0.36134345  0.11118783  1
  O  O416  1  0.86974687  0.36392019  0.61632990  1
  O  O417  1  0.86134611  0.86569818  0.12856512  1
  O  O418  1  0.87178959  0.87347191  0.61796978  1
  O  O419  1  0.12334482  0.13383491  0.38300688  1
  O  O420  1  0.12735201  0.11556200  0.89670256  1
  O  O421  1  0.12422659  0.63376290  0.38880202  1
  O  O422  1  0.13068230  0.62480030  0.88878453  1
  O  O423  1  0.61293193  0.13983368  0.37249546  1
  O  O424  1  0.62966360  0.12520281  0.88485485  1
  O  O425  1  0.64102698  0.63962590  0.37533612  1
  O  O426  1  0.63233416  0.63203573  0.88297990  1
