# generated using pymatgen
data_V85Zn86O256
_symmetry_space_group_name_H-M   'P 1'
_cell_length_a   16.93871251
_cell_length_b   16.96113091
_cell_length_c   16.96180373
_cell_angle_alpha   89.91297949
_cell_angle_beta   89.89523995
_cell_angle_gamma   90.17089080
_symmetry_Int_Tables_number   1
_chemical_formula_structural   V85Zn86O256
_chemical_formula_sum   'V85 Zn86 O256'
_cell_volume   4873.08598477
_cell_formula_units_Z   1
loop_
 _symmetry_equiv_pos_site_id
 _symmetry_equiv_pos_as_xyz
  1  'x, y, z'
loop_
 _atom_site_type_symbol
 _atom_site_label
 _atom_site_symmetry_multiplicity
 _atom_site_fract_x
 _atom_site_fract_y
 _atom_site_fract_z
 _atom_site_occupancy
  V  V0  1  -0.00191774  0.75606454  0.74420244  1
  V  V1  1  0.87647413  0.62648595  0.74326091  1
  V  V2  1  0.25113826  0.87294946  0.12488704  1
  V  V3  1  -0.00307282  0.12499722  0.12340080  1
  V  V4  1  0.50046963  -0.00191438  -0.00289085  1
  V  V5  1  0.87162821  0.12429794  0.25148847  1
  V  V6  1  0.00298136  0.24886316  0.74716260  1
  V  V7  1  0.62158417  0.37500951  0.24823472  1
  V  V8  1  -0.00002405  0.37525945  0.37366557  1
  V  V9  1  0.12519642  0.75209706  0.37518402  1
  V  V10  1  0.12429585  0.49736460  0.12352652  1
  V  V11  1  0.87519565  0.50327175  0.36743194  1
  V  V12  1  0.49687816  0.87330441  0.38202103  1
  V  V13  1  0.86615098  0.24971162  0.12114631  1
  V  V14  1  0.74599411  0.24399759  0.49811078  1
  V  V15  1  0.37770158  0.87149658  -0.00161054  1
  V  V16  1  0.50849882  0.75086635  0.75249407  1
  V  V17  1  0.49788238  0.24994411  0.74911587  1
  V  V18  1  0.12167473  0.62457660  -0.00149129  1
  V  V19  1  0.62696582  0.62399262  0.49852478  1
  V  V20  1  0.74848503  0.75837262  0.00311379  1
  V  V21  1  0.12915535  -0.00466171  0.64658416  1
  V  V22  1  0.50504758  0.87259615  0.87651650  1
  V  V23  1  -0.01596681  0.62548122  0.12555477  1
  V  V24  1  0.62232803  0.87280691  0.24963586  1
  V  V25  1  0.73837919  0.91770094  0.66760187  1
  V  V26  1  0.49146138  0.24444673  0.24783253  1
  V  V27  1  0.37608179  0.25430141  0.61654257  1
  V  V28  1  0.87976405  -0.00484315  0.38453009  1
  V  V29  1  0.75367972  0.62553481  0.36980721  1
  V  V30  1  0.48510046  0.12241428  0.12571104  1
  V  V31  1  0.13117312  0.62781051  0.49809294  1
  V  V32  1  0.00182264  0.37395600  0.87136500  1
  V  V33  1  0.37605854  0.11024583  0.75372024  1
  V  V34  1  0.37119145  0.37527142  0.00703022  1
  V  V35  1  0.74416111  0.37469548  0.11983139  1
  V  V36  1  0.37286448  0.49944566  0.87428783  1
  V  V37  1  0.87059916  0.11913473  0.75204420  1
  V  V38  1  0.25028761  0.74796483  -0.00046024  1
  V  V39  1  0.37295254  0.62440961  0.74911445  1
  V  V40  1  0.26136808  0.88162738  0.64202220  1
  V  V41  1  0.62613275  -0.00359142  0.12461087  1
  V  V42  1  0.51126707  0.12538170  0.61793208  1
  V  V43  1  0.87207472  0.37104993  -0.00225799  1
  V  V44  1  0.25571476  0.76345514  0.50244574  1
  V  V45  1  0.13377995  0.37854288  0.74792866  1
  V  V46  1  0.25095975  0.50869562  0.24871152  1
  V  V47  1  0.12312544  0.87756620  0.24945284  1
  V  V48  1  0.75202413  0.12501990  0.88386300  1
  V  V49  1  -0.00699799  0.87395811  0.88054305  1
  V  V50  1  0.74714591  0.50018949  0.24370890  1
  V  V51  1  0.26153524  0.00538863  0.24389156  1
  V  V52  1  0.12733209  0.11444272  0.49782666  1
  V  V53  1  0.62417747  0.24188362  0.37606726  1
  V  V54  1  0.00209386  0.11771626  0.62089057  1
  V  V55  1  0.13124417  0.50254227  0.62679666  1
  V  V56  1  0.12421664  0.75682960  0.87148338  1
  V  V57  1  0.37618555  0.73594432  0.13369205  1
  V  V58  1  0.25438872  0.37629063  0.61570803  1
  V  V59  1  -0.00622169  0.74841425  0.24957432  1
  V  V60  1  0.87672361  0.49972094  0.87381046  1
  V  V61  1  0.52812408  0.00286547  0.50026966  1
  V  V62  1  0.00332658  0.50080350  0.49772702  1
  V  V63  1  0.87482631  0.37441928  0.49842486  1
  V  V64  1  0.12617095  0.24816556  0.37702256  1
  V  V65  1  0.75008417  -0.00464630  0.24682484  1
  V  V66  1  -0.00210158  0.24949751  0.24950159  1
  V  V67  1  0.49290845  0.49368912  0.49800574  1
  V  V68  1  0.50132093  0.62665659  0.62467766  1
  V  V69  1  0.52005828  0.61635072  0.12651196  1
  V  V70  1  0.12394622  0.12585580  -0.00366300  1
  V  V71  1  0.12868777  0.37427170  0.24423104  1
  V  V72  1  0.24767764  0.25484777  0.00483464  1
  V  V73  1  0.62646625  0.37486255  0.74843697  1
  V  V74  1  0.87352977  0.76916648  0.11787208  1
  V  V75  1  -0.00843692  -0.00355932  -0.00072232  1
  V  V76  1  0.76175520  0.74835400  0.51111117  1
  V  V77  1  -0.00281481  0.49942937  -0.00126878  1
  V  V78  1  0.24818021  0.62182533  0.86893800  1
  V  V79  1  0.75226475  0.37419381  0.62327849  1
  V  V80  1  0.49781009  0.37601072  0.87474503  1
  V  V81  1  0.62888556  0.25093811  0.88127422  1
  V  V82  1  0.75220170  0.49863978  0.74832469  1
  V  V83  1  0.62621868  0.73952468  0.88141542  1
  V  V84  1  0.37025807  0.00248635  0.38941236  1
  Zn  Zn85  1  0.25720576  0.13063487  0.36738550  1
  Zn  Zn86  1  0.37392488  0.50260079  0.37273880  1
  Zn  Zn87  1  0.12472973  0.00075464  0.12365248  1
  Zn  Zn88  1  -0.00036029  0.63070565  0.62164196  1
  Zn  Zn89  1  0.85810661  -0.01532636  0.87625846  1
  Zn  Zn90  1  0.62612517  0.49844509  0.62503340  1
  Zn  Zn91  1  0.25825614  0.25157323  0.49285726  1
  Zn  Zn92  1  0.74818946  0.61992130  0.88367551  1
  Zn  Zn93  1  0.38584029  0.76531046  0.61977417  1
  Zn  Zn94  1  0.25156536  0.11340255  0.86705218  1
  Zn  Zn95  1  0.13119550  0.24935108  0.87217138  1
  Zn  Zn96  1  0.87642670  0.87298126  0.52530322  1
  Zn  Zn97  1  0.74513138  0.11843518  0.38105501  1
  Zn  Zn98  1  0.36661568  0.24823303  0.12971372  1
  Zn  Zn99  1  0.49061833  0.36815965  0.38078150  1
  Zn  Zn100  1  0.26305186  0.63679366  0.36550405  1
  Zn  Zn101  1  0.62644969  0.75110014  0.37566083  1
  Zn  Zn102  1  0.51627581  0.50307606  0.00182653  1
  Zn  Zn103  1  0.49396824  0.73933203  0.26041427  1
  Zn  Zn104  1  0.00139463  0.87907462  0.39217480  1
  Zn  Zn105  1  0.87582658  0.24621294  0.62098320  1
  Zn  Zn106  1  0.62696429  0.13134707  0.00624148  1
  Zn  Zn107  1  0.18706154  0.18609473  0.18323474  1
  Zn  Zn108  1  0.19296410  0.18630709  0.68555831  1
  Zn  Zn109  1  0.17989102  0.68772606  0.18331345  1
  Zn  Zn110  1  0.18644552  0.69478583  0.68592070  1
  Zn  Zn111  1  0.68207709  0.18305996  0.19041806  1
  Zn  Zn112  1  0.69145038  0.18609010  0.69035208  1
  Zn  Zn113  1  0.69446212  0.69455243  0.19104015  1
  Zn  Zn114  1  0.68887730  0.68577899  0.69134434  1
  Zn  Zn115  1  0.31288851  0.32294073  0.31292937  1
  Zn  Zn116  1  0.31154510  0.30562339  0.81494311  1
  Zn  Zn117  1  0.31309885  0.81896175  0.31391160  1
  Zn  Zn118  1  0.31909065  0.81031487  0.81181379  1
  Zn  Zn119  1  0.80960821  0.31315409  0.31190229  1
  Zn  Zn120  1  0.81403347  0.30755158  0.80937643  1
  Zn  Zn121  1  0.81295565  0.81323489  0.31226745  1
  Zn  Zn122  1  0.81009702  0.80940144  0.81153487  1
  Zn  Zn123  1  0.18941124  0.43780156  0.43409722  1
  Zn  Zn124  1  0.18729825  0.43746870  0.93610734  1
  Zn  Zn125  1  0.18860656  0.93744442  0.43630305  1
  Zn  Zn126  1  0.18499684  0.93962717  0.93112313  1
  Zn  Zn127  1  0.68330150  0.43404382  0.43419901  1
  Zn  Zn128  1  0.68964228  0.43166230  0.93339543  1
  Zn  Zn129  1  0.69550033  0.92957843  0.43351831  1
  Zn  Zn130  1  0.68452196  0.93412159  0.93219724  1
  Zn  Zn131  1  0.29736673  0.04533492  0.03102119  1
  Zn  Zn132  1  0.31055821  0.06786625  0.56830218  1
  Zn  Zn133  1  0.31000289  0.55957448  0.05963182  1
  Zn  Zn134  1  0.31282243  0.56744825  0.56270000  1
  Zn  Zn135  1  0.81004955  0.06099128  0.06154570  1
  Zn  Zn136  1  0.80768472  0.06058055  0.56823822  1
  Zn  Zn137  1  0.69674977  0.56687639  0.05360138  1
  Zn  Zn138  1  0.81446700  0.56072773  0.56003696  1
  Zn  Zn139  1  0.43859809  0.43860861  0.18891221  1
  Zn  Zn140  1  0.43638336  0.43985505  0.68676559  1
  Zn  Zn141  1  0.43844844  0.93217321  0.18637280  1
  Zn  Zn142  1  0.49223580  0.95501958  0.70453726  1
  Zn  Zn143  1  0.93564442  0.43582263  0.18569290  1
  Zn  Zn144  1  0.94142409  0.43782957  0.68329098  1
  Zn  Zn145  1  0.93887397  0.93984606  0.19065535  1
  Zn  Zn146  1  0.93265802  0.93755027  0.68985015  1
  Zn  Zn147  1  0.06237151  0.06247437  0.31097488  1
  Zn  Zn148  1  0.05736760  0.06179626  0.81560794  1
  Zn  Zn149  1  0.06532971  0.56700049  0.31085620  1
  Zn  Zn150  1  0.06173618  0.56502733  0.80860776  1
  Zn  Zn151  1  0.55700700  0.06140334  0.31018326  1
  Zn  Zn152  1  0.57415987  0.06372654  0.81125049  1
  Zn  Zn153  1  0.56350221  0.56305209  0.31186669  1
  Zn  Zn154  1  0.56251065  0.55999567  0.81404396  1
  Zn  Zn155  1  0.44126105  0.18136307  0.43469382  1
  Zn  Zn156  1  0.43709996  0.18688711  0.93928934  1
  Zn  Zn157  1  0.43269381  0.68355814  0.43686303  1
  Zn  Zn158  1  0.43981417  0.68313627  0.94423525  1
  Zn  Zn159  1  0.93657897  0.18381993  0.43778966  1
  Zn  Zn160  1  0.93836719  0.18868710  0.93651316  1
  Zn  Zn161  1  0.94149816  0.68784035  0.43636669  1
  Zn  Zn162  1  0.93261439  0.68699027  0.93832780  1
  Zn  Zn163  1  0.05832624  0.31068731  0.06100295  1
  Zn  Zn164  1  0.06467487  0.31156371  0.56158282  1
  Zn  Zn165  1  0.06298245  0.81283005  0.06158551  1
  Zn  Zn166  1  0.06745208  0.82077547  0.56343204  1
  Zn  Zn167  1  0.55553415  0.31478243  0.06330841  1
  Zn  Zn168  1  0.56646535  0.31101733  0.56318403  1
  Zn  Zn169  1  0.56214312  0.80687080  0.06573741  1
  Zn  Zn170  1  0.57834669  0.81675503  0.56637440  1
  O  O171  1  0.11325184  0.12582570  0.11504445  1
  O  O172  1  0.12350969  0.11393806  0.61946758  1
  O  O173  1  0.11323725  0.61765899  0.11610291  1
  O  O174  1  0.12644310  0.61853053  0.61787239  1
  O  O175  1  0.61610538  0.11326442  0.12341088  1
  O  O176  1  0.60963536  0.13709808  0.62782376  1
  O  O177  1  0.62330305  0.62870207  0.12474727  1
  O  O178  1  0.61614306  0.62392581  0.61856801  1
  O  O179  1  0.38083071  0.39050681  0.36888848  1
  O  O180  1  0.37741789  0.38352316  0.87652897  1
  O  O181  1  0.38782291  0.88790246  0.37260123  1
  O  O182  1  0.38746620  0.86011765  0.89147723  1
  O  O183  1  0.87987407  0.38324721  0.37797438  1
  O  O184  1  0.88125282  0.37933328  0.87512172  1
  O  O185  1  0.87639530  0.89005218  0.37069144  1
  O  O186  1  0.88826427  0.87144070  0.87519944  1
  O  O187  1  0.26214052  -0.00352459  0.36604194  1
  O  O188  1  0.26458098  0.01412471  0.91957055  1
  O  O189  1  0.24436392  0.50235517  0.35670641  1
  O  O190  1  0.25652918  0.51281256  0.87632133  1
  O  O191  1  0.75919113  0.00100969  0.36500148  1
  O  O192  1  0.74548975  0.01883751  0.88034186  1
  O  O193  1  0.75693257  0.50434415  0.36813912  1
  O  O194  1  0.76307888  0.49696229  0.86672216  1
  O  O195  1  0.23118712  0.50660457  0.13028159  1
  O  O196  1  0.24007494  0.49312755  0.61897791  1
  O  O197  1  0.24889093  0.99114257  0.12817021  1
  O  O198  1  0.23989671  0.99199735  0.62414110  1
  O  O199  1  0.74822314  0.48982947  0.13566055  1
  O  O200  1  0.74949104  0.49282949  0.63019292  1
  O  O201  1  0.73883339  1.00363079  0.13355139  1
  O  O202  1  0.73621366  1.01700990  0.64424586  1
  O  O203  1  0.00668629  0.36998194  0.25466840  1
  O  O204  1  0.00974860  0.36663302  0.74992700  1
  O  O205  1  0.01063121  0.86643619  0.24744071  1
  O  O206  1  -0.00584750  0.86123115  0.75860848  1
  O  O207  1  0.50986163  0.36572814  0.24485323  1
  O  O208  1  0.50442778  0.36849616  0.75309606  1
  O  O209  1  0.50758175  0.87486702  0.26266198  1
  O  O210  1  0.48565670  0.85635529  0.76451555  1
  O  O211  1  0.50198176  0.13371488  0.23942244  1
  O  O212  1  0.49428515  0.13610615  0.74067052  1
  O  O213  1  0.50748053  0.62656511  0.23492459  1
  O  O214  1  0.49565145  0.63066266  0.74268198  1
  O  O215  1  0.99296658  0.12995153  0.24332655  1
  O  O216  1  0.99659748  0.13294106  0.74337913  1
  O  O217  1  1.00836739  0.63972227  0.23979060  1
  O  O218  1  0.99343309  0.63539151  0.74865508  1
  O  O219  1  0.36721863  0.25828178  0.00037108  1
  O  O220  1  0.37953246  0.24484277  0.51204728  1
  O  O221  1  0.37042866  0.75251318  0.01168656  1
  O  O222  1  0.36120231  0.74458982  0.50611474  1
  O  O223  1  0.88129382  0.25622064  0.01236590  1
  O  O224  1  0.86716008  0.25704202  0.49794490  1
  O  O225  1  0.87046338  0.75256663  0.01141203  1
  O  O226  1  0.86418853  0.74083053  0.50020593  1
  O  O227  1  0.12503881  0.24361777  0.48742715  1
  O  O228  1  0.12804789  0.24594271  0.99704715  1
  O  O229  1  0.13218827  0.74498749  0.49630876  1
  O  O230  1  0.12904233  0.74381821  0.99157545  1
  O  O231  1  0.63369072  0.25708345  0.48776266  1
  O  O232  1  0.61360439  0.25053488  0.98500778  1
  O  O233  1  0.63685520  0.73719453  0.49737155  1
  O  O234  1  0.63807071  0.75197347  0.99791106  1
  O  O235  1  0.49726862  0.23926919  0.13116395  1
  O  O236  1  0.49446811  0.24766851  0.62986972  1
  O  O237  1  0.48807072  0.73756476  0.12685590  1
  O  O238  1  0.50468320  0.74564672  0.63219498  1
  O  O239  1  0.98772652  0.24597960  0.13072873  1
  O  O240  1  1.00285435  0.23987195  0.63257773  1
  O  O241  1  0.99059015  0.74646087  0.12718265  1
  O  O242  1  1.00837564  0.75198541  0.64218427  1
  O  O243  1  0.00707359  0.25386120  0.36928811  1
  O  O244  1  0.00237936  0.25538866  0.86268184  1
  O  O245  1  0.00478407  0.75158176  0.36334703  1
  O  O246  1  0.00646557  0.75569089  0.87290075  1
  O  O247  1  0.50573796  0.24897823  0.36638890  1
  O  O248  1  0.50485313  0.25501820  0.86507653  1
  O  O249  1  0.50061649  0.75968033  0.37851635  1
  O  O250  1  0.50693562  0.74966668  0.87303155  1
  O  O251  1  0.24054759  0.13080373  0.49515083  1
  O  O252  1  0.23345608  0.13904137  1.00781431  1
  O  O253  1  0.24009821  0.63599284  0.50211715  1
  O  O254  1  0.24319530  0.62908879  0.98899661  1
  O  O255  1  0.75527346  0.14057612  0.50024900  1
  O  O256  1  0.74846232  0.13038932  0.98903028  1
  O  O257  1  0.74551147  0.62750949  0.49073529  1
  O  O258  1  0.75618326  0.64531590  0.99671319  1
  O  O259  1  0.25801484  0.36685207  -0.00875847  1
  O  O260  1  0.24476106  0.37145135  0.51072205  1
  O  O261  1  0.25827415  0.86598826  0.00515988  1
  O  O262  1  0.24253714  0.86730501  0.50924560  1
  O  O263  1  0.75731006  0.37667547  0.01153192  1
  O  O264  1  0.75459753  0.36836044  0.50286910  1
  O  O265  1  0.75207259  0.85954808  -0.01027470  1
  O  O266  1  0.75610362  0.85198247  0.49143599  1
  O  O267  1  0.12568615  0.49301765  0.24161873  1
  O  O268  1  0.11916103  0.49111443  0.73833096  1
  O  O269  1  0.13083959  0.98979908  0.24816313  1
  O  O270  1  0.13152700  1.00654013  0.74509557  1
  O  O271  1  0.63528880  0.48552739  0.25947781  1
  O  O272  1  0.63275432  0.49297170  0.75019709  1
  O  O273  1  0.62958576  0.99384876  0.24487953  1
  O  O274  1  0.59378271  0.98280652  0.74329948  1
  O  O275  1  0.36554650  -0.00727459  0.25356421  1
  O  O276  1  0.39253265  0.01341401  0.74123141  1
  O  O277  1  0.35075303  0.49714582  0.23573418  1
  O  O278  1  0.38020795  0.51325213  0.76034724  1
  O  O279  1  0.86598330  0.00400508  0.25373465  1
  O  O280  1  0.88690984  0.01645981  0.76383014  1
  O  O281  1  0.86397551  0.49177883  0.25931881  1
  O  O282  1  0.87517538  0.50338975  0.75680320  1
  O  O283  1  0.11946724  0.36693155  0.36636375  1
  O  O284  1  0.12029872  0.37597038  0.86330406  1
  O  O285  1  0.12146942  0.87132234  0.36582073  1
  O  O286  1  0.11761335  0.86302444  0.87892839  1
  O  O287  1  0.62003359  0.36338968  0.36411388  1
  O  O288  1  0.61923603  0.36730718  0.86711601  1
  O  O289  1  0.61515700  0.87487293  0.36715063  1
  O  O290  1  0.61095628  0.85843774  0.88127404  1
  O  O291  1  0.38476200  0.12237201  0.11428648  1
  O  O292  1  0.38488678  0.13485595  0.63294252  1
  O  O293  1  0.37073947  0.63487510  0.12435234  1
  O  O294  1  0.38603575  0.62658170  0.63330576  1
  O  O295  1  0.87597386  0.13242157  0.13006557  1
  O  O296  1  0.88608469  0.12275070  0.63317082  1
  O  O297  1  0.88607631  0.63579381  0.12683868  1
  O  O298  1  0.88102766  0.61495691  0.63832970  1
  O  O299  1  0.25023187  0.25191650  0.11317204  1
  O  O300  1  0.25946447  0.25797683  0.62091779  1
  O  O301  1  0.25768764  0.75155677  0.12086915  1
  O  O302  1  0.24791005  0.76734928  0.62098092  1
  O  O303  1  0.75907244  0.25685330  0.13339418  1
  O  O304  1  0.75178817  0.25594672  0.61607736  1
  O  O305  1  0.76366797  0.75256180  0.11743812  1
  O  O306  1  0.75128562  0.73686679  0.61022471  1
  O  O307  1  0.23981372  0.25066731  0.37125446  1
  O  O308  1  0.24955945  0.23946380  0.88700732  1
  O  O309  1  0.24479854  0.75481449  0.38361412  1
  O  O310  1  0.24295100  0.74276586  0.87857653  1
  O  O311  1  0.74211535  0.24851283  0.38050540  1
  O  O312  1  0.73834758  0.24376077  0.87093252  1
  O  O313  1  0.75265397  0.73636023  0.37761390  1
  O  O314  1  0.74236512  0.74706898  0.88333597  1
  O  O315  1  0.00498920  0.12009491  0.00286923  1
  O  O316  1  0.00940361  0.13097447  0.51349828  1
  O  O317  1  0.00192186  0.61874100  0.00556151  1
  O  O318  1  0.01321741  0.62137322  0.50134993  1
  O  O319  1  0.50260674  0.11379480  0.00534750  1
  O  O320  1  0.50202680  0.11098736  0.50301242  1
  O  O321  1  0.49789369  0.62234031  0.02028906  1
  O  O322  1  0.50851741  0.62041390  0.50818223  1
  O  O323  1  0.50788572  0.39152127  0.50347147  1
  O  O324  1  0.48887706  0.37866144  0.99176943  1
  O  O325  1  0.51526985  0.88963437  0.49380929  1
  O  O326  1  0.49611943  0.87551983  0.99655404  1
  O  O327  1  0.99729288  0.38014460  0.49268394  1
  O  O328  1  0.99349903  0.37964854  0.99197217  1
  O  O329  1  0.98619153  0.86562996  0.50331782  1
  O  O330  1  1.00528595  0.88478226  0.99357262  1
  O  O331  1  0.50455004  0.50226591  0.39230278  1
  O  O332  1  0.48879404  0.49556007  0.87699382  1
  O  O333  1  0.49269987  0.99700807  0.38770404  1
  O  O334  1  0.50826908  0.98757596  0.89025593  1
  O  O335  1  0.99438798  0.49730621  0.37611702  1
  O  O336  1  0.99502905  0.49422736  0.87661105  1
  O  O337  1  0.98416097  1.00027841  0.37040190  1
  O  O338  1  1.00127545  0.98796133  0.88288425  1
  O  O339  1  -0.00131469  0.00713146  0.11701135  1
  O  O340  1  0.01470688  0.00820446  0.63567072  1
  O  O341  1  0.00273841  0.50702991  0.12043168  1
  O  O342  1  0.01460131  0.49989533  0.61537798  1
  O  O343  1  0.50728190  0.00483383  0.12155844  1
  O  O344  1  0.50072840  0.00798566  0.60282243  1
  O  O345  1  0.50154253  0.51356314  0.12713965  1
  O  O346  1  0.50335943  0.50971892  0.61754363  1
  O  O347  1  0.23301595  0.38548764  0.24818296  1
  O  O348  1  0.23850413  0.36744369  0.74115785  1
  O  O349  1  0.24159854  0.88267683  0.24460123  1
  O  O350  1  0.25321495  0.87090343  0.74202725  1
  O  O351  1  0.74262671  0.38009546  0.24167438  1
  O  O352  1  0.74758067  0.37816867  0.74355707  1
  O  O353  1  0.73751032  0.88558167  0.25673113  1
  O  O354  1  0.74870036  0.89293707  0.76650652  1
  O  O355  1  0.24101411  0.11022190  0.25007421  1
  O  O356  1  0.26967414  0.12620418  0.74793482  1
  O  O357  1  0.23598294  0.61281328  0.24953257  1
  O  O358  1  0.25909945  0.63523593  0.75877357  1
  O  O359  1  0.75362876  0.11286192  0.25220065  1
  O  O360  1  0.76238279  0.13375203  0.76218493  1
  O  O361  1  0.74229442  0.61369499  0.25981340  1
  O  O362  1  0.76021382  0.61784677  0.75462208  1
  O  O363  1  0.37541686  0.10724798  0.37377755  1
  O  O364  1  0.38334039  0.12784681  0.85608856  1
  O  O365  1  0.37317387  0.61525539  0.37250221  1
  O  O366  1  0.36840680  0.62006405  0.87042997  1
  O  O367  1  0.87310454  0.11359716  0.36905830  1
  O  O368  1  0.86189008  0.13212926  0.87095363  1
  O  O369  1  0.86789156  0.61223836  0.37835553  1
  O  O370  1  0.87795473  0.61255484  0.86520231  1
  O  O371  1  0.11156553  0.38608074  0.13247163  1
  O  O372  1  0.13310530  0.38166052  0.62908412  1
  O  O373  1  0.13218569  0.87329511  0.13356724  1
  O  O374  1  0.13089752  0.89219027  0.62932638  1
  O  O375  1  0.63438957  0.36380265  0.13440415  1
  O  O376  1  0.63346266  0.37564618  0.63226620  1
  O  O377  1  0.61346082  0.88535798  0.13701797  1
  O  O378  1  0.65818169  0.87070772  0.62580945  1
  O  O379  1  0.11931868  0.25578036  0.25504286  1
  O  O380  1  0.11839421  0.25648922  0.74816283  1
  O  O381  1  0.11905983  0.75987758  0.25366978  1
  O  O382  1  0.11029439  0.74174322  0.76251792  1
  O  O383  1  0.61691796  0.25618895  0.25639804  1
  O  O384  1  0.61516695  0.25455218  0.75705897  1
  O  O385  1  0.62389934  0.76214487  0.25254413  1
  O  O386  1  0.61528536  0.74368578  0.76074068  1
  O  O387  1  0.38687785  0.25805206  0.24751081  1
  O  O388  1  0.38660328  0.24923369  0.74049727  1
  O  O389  1  0.37371128  0.75473445  0.23670300  1
  O  O390  1  0.38711386  0.73628256  0.74874884  1
  O  O391  1  0.87830294  0.24578085  0.24332398  1
  O  O392  1  0.88768568  0.24179991  0.74532381  1
  O  O393  1  0.88447836  0.75858694  0.23639218  1
  O  O394  1  0.88762653  0.73922502  0.75776191  1
  O  O395  1  0.39144102  0.50503317  0.50514038  1
  O  O396  1  0.37166657  0.49266977  0.98799500  1
  O  O397  1  0.36718180  0.99918466  0.48906780  1
  O  O398  1  0.39257420  0.98123604  1.01412770  1
  O  O399  1  0.88185798  0.49450845  0.48879403  1
  O  O400  1  0.88142098  0.48935101  0.98392312  1
  O  O401  1  0.86382605  0.99875885  0.48618319  1
  O  O402  1  0.88679372  1.00808560  0.99333348  1
  O  O403  1  0.11160069  0.01007350  0.00288970  1
  O  O404  1  0.12624585  0.01185898  0.49943218  1
  O  O405  1  0.11746445  0.50254540  0.00511331  1
  O  O406  1  0.12379876  0.50895684  0.50383837  1
  O  O407  1  0.61704362  -0.00443450  0.01041966  1
  O  O408  1  0.62640293  0.00555509  0.49125711  1
  O  O409  1  0.62918990  0.49892516  -0.00410988  1
  O  O410  1  0.62052129  0.51118046  0.50173650  1
  O  O411  1  0.37973029  0.37603410  0.10919227  1
  O  O412  1  0.36488807  0.36809740  0.63226707  1
  O  O413  1  0.37273498  0.86059675  0.11704494  1
  O  O414  1  0.36092656  0.88029408  0.62699874  1
  O  O415  1  0.86614447  0.36781064  0.12034130  1
  O  O416  1  0.87092304  0.37346791  0.61641711  1
  O  O417  1  0.87928297  0.86768661  0.12224608  1
  O  O418  1  0.84094261  0.89504195  0.63352882  1
  O  O419  1  0.12385895  0.13336508  0.38020616  1
  O  O420  1  0.12371560  0.12691981  0.88575390  1
  O  O421  1  0.12887158  0.63285496  0.38464556  1
  O  O422  1  0.13067197  0.63071411  0.87843264  1
  O  O423  1  0.62559370  0.13741919  0.36705824  1
  O  O424  1  0.63524803  0.13375054  0.87586756  1
  O  O425  1  0.63504724  0.62579413  0.38308414  1
  O  O426  1  0.62517305  0.63478978  0.87525678  1
