# generated using pymatgen
data_V85Zn86O256
_symmetry_space_group_name_H-M   'P 1'
_cell_length_a   16.95983321
_cell_length_b   16.98099334
_cell_length_c   16.96637098
_cell_angle_alpha   90.05150019
_cell_angle_beta   89.85361826
_cell_angle_gamma   89.96729721
_symmetry_Int_Tables_number   1
_chemical_formula_structural   V85Zn86O256
_chemical_formula_sum   'V85 Zn86 O256'
_cell_volume   4886.20814524
_cell_formula_units_Z   1
loop_
 _symmetry_equiv_pos_site_id
 _symmetry_equiv_pos_as_xyz
  1  'x, y, z'
loop_
 _atom_site_type_symbol
 _atom_site_label
 _atom_site_symmetry_multiplicity
 _atom_site_fract_x
 _atom_site_fract_y
 _atom_site_fract_z
 _atom_site_occupancy
  V  V0  1  0.49479446  0.24701672  0.75109262  1
  V  V1  1  0.75083171  0.74827742  0.50161181  1
  V  V2  1  0.36854747  0.00465002  0.37578998  1
  V  V3  1  -0.00159553  0.12320003  0.12483408  1
  V  V4  1  0.49187865  0.74919466  0.74522760  1
  V  V5  1  0.75304693  0.87813047  0.62608798  1
  V  V6  1  0.36787233  0.12561096  0.25291182  1
  V  V7  1  0.13520376  0.49225146  0.12490686  1
  V  V8  1  0.13122927  0.49902600  0.62628582  1
  V  V9  1  0.13194164  0.62308346  0.48974169  1
  V  V10  1  0.11815431  0.24779363  0.86770660  1
  V  V11  1  0.36932475  0.25996578  0.12316819  1
  V  V12  1  0.25072573  0.24165908  0.49656843  1
  V  V13  1  -0.00216249  0.24845392  0.25032884  1
  V  V14  1  0.62430346  0.37381657  0.75121503  1
  V  V15  1  0.74904228  0.12360185  0.86306201  1
  V  V16  1  0.12123301  0.61909544  -0.00268519  1
  V  V17  1  0.49705149  -0.00030242  -0.00048126  1
  V  V18  1  0.62983125  0.87879728  0.74801405  1
  V  V19  1  0.49210158  0.62787577  0.62174876  1
  V  V20  1  0.36660505  0.60863676  0.75595389  1
  V  V21  1  0.62650827  0.12451496  -0.00184548  1
  V  V22  1  0.12744545  -0.00213869  0.12410114  1
  V  V23  1  -0.00265038  0.37388937  0.37599593  1
  V  V24  1  0.62297858  0.75087349  0.36976568  1
  V  V25  1  0.63193828  0.87972129  0.25069831  1
  V  V26  1  0.62419991  0.50133669  0.62339711  1
  V  V27  1  0.87170846  -0.00034922  0.86571049  1
  V  V28  1  0.49731436  0.50032167  0.49531431  1
  V  V29  1  0.13770095  0.87328748  0.74463806  1
  V  V30  1  0.12769508  0.12474068  -0.00450998  1
  V  V31  1  0.87367073  0.25404743  0.12080190  1
  V  V32  1  0.49374482  0.50141551  -0.00352809  1
  V  V33  1  0.88134255  0.49504588  0.88769985  1
  V  V34  1  0.25184224  0.87043177  0.12551520  1
  V  V35  1  0.62922480  0.74720345  0.87254402  1
  V  V36  1  0.25514613  0.75315417  0.51044209  1
  V  V37  1  0.49562915  0.63620581  0.13390505  1
  V  V38  1  0.62816207  0.00316388  0.62192529  1
  V  V39  1  0.00184630  0.87256938  0.87259812  1
  V  V40  1  0.24957066  0.37466718  0.62941813  1
  V  V41  1  0.50110287  0.12482064  0.62469002  1
  V  V42  1  0.24725377  0.25682177  0.00215893  1
  V  V43  1  0.88420943  0.87325273  0.49450506  1
  V  V44  1  0.75159688  0.74976354  -0.00028073  1
  V  V45  1  0.87628296  0.87445861  -0.00202208  1
  V  V46  1  0.75454627  0.49998417  0.74990214  1
  V  V47  1  0.00062074  -0.00167007  -0.00267108  1
  V  V48  1  0.49873705  0.12574468  0.12373006  1
  V  V49  1  0.86522790  0.11926995  0.25063068  1
  V  V50  1  0.87531765  0.49913176  0.37368516  1
  V  V51  1  0.62370619  0.49957677  0.12269842  1
  V  V52  1  0.00106075  0.62345814  0.62687830  1
  V  V53  1  0.49945647  0.87373717  0.36923119  1
  V  V54  1  0.12541978  -0.00286917  0.62445334  1
  V  V55  1  0.87567766  0.74852724  0.13042248  1
  V  V56  1  0.75452872  0.37354703  0.61685192  1
  V  V57  1  0.11515369  0.12495232  0.50475178  1
  V  V58  1  -0.00883907  0.37137750  0.89078923  1
  V  V59  1  0.50476447  0.00450274  0.49786496  1
  V  V60  1  0.13438954  0.37686525  0.24654385  1
  V  V61  1  0.12761715  0.75993925  0.37613830  1
  V  V62  1  0.62547699  0.37245092  0.25166996  1
  V  V63  1  0.37594781  0.86555663  0.00599993  1
  V  V64  1  0.74590056  0.23783108  0.49921891  1
  V  V65  1  0.13505134  0.74555081  0.87768092  1
  V  V66  1  0.63229827  0.00042613  0.12892772  1
  V  V67  1  0.88714405  0.24960110  0.62279025  1
  V  V68  1  0.48958006  0.37976551  0.87529604  1
  V  V69  1  -0.00554046  0.61606524  0.12815534  1
  V  V70  1  0.00252628  0.74533411  0.75012485  1
  V  V71  1  0.49991764  0.25253704  0.24977123  1
  V  V72  1  0.75347186  0.25504110  -0.00258510  1
  V  V73  1  0.11321352  0.37475924  0.74838698  1
  V  V74  1  -0.00266512  0.49694171  0.49823639  1
  V  V75  1  0.50120987  0.87538342  0.87584560  1
  V  V76  1  0.75347713  0.62433865  0.37221874  1
  V  V77  1  0.87611964  -0.00306287  0.37265200  1
  V  V78  1  0.89403669  0.12692361  0.74357859  1
  V  V79  1  0.12975289  0.24229447  0.37264955  1
  V  V80  1  0.37251294  0.24373637  0.62809130  1
  V  V81  1  -0.00330812  0.75471465  0.25679837  1
  V  V82  1  0.37345968  0.87372568  0.50890784  1
  V  V83  1  0.35531043  0.50145026  0.36535270  1
  V  V84  1  0.75278940  0.50164303  0.24954389  1
  Zn  Zn85  1  0.62465368  0.24947623  0.87606606  1
  Zn  Zn86  1  0.75498686  0.62163063  0.87478886  1
  Zn  Zn87  1  0.75601071  0.37913598  0.11779813  1
  Zn  Zn88  1  0.37264608  0.00467414  0.86585046  1
  Zn  Zn89  1  0.36230837  0.38488651  0.00151051  1
  Zn  Zn90  1  0.49783838  0.37649214  0.37640766  1
  Zn  Zn91  1  0.26185337  0.00868957  0.74121219  1
  Zn  Zn92  1  0.24536069  0.00381651  0.25494882  1
  Zn  Zn93  1  0.37362740  0.37483995  0.49907175  1
  Zn  Zn94  1  0.62503065  0.62493909  -0.00084915  1
  Zn  Zn95  1  0.30990461  0.55904003  0.93190905  1
  Zn  Zn96  1  0.87659397  0.74860575  0.62614678  1
  Zn  Zn97  1  0.00050252  -0.00064758  0.49953289  1
  Zn  Zn98  1  0.12042414  0.88358227  0.25813301  1
  Zn  Zn99  1  0.75504589  0.88070253  0.13003328  1
  Zn  Zn100  1  0.26480291  0.12919325  0.85998966  1
  Zn  Zn101  1  0.62197957  0.62524756  0.49926908  1
  Zn  Zn102  1  0.36071352  0.64475480  0.25487509  1
  Zn  Zn103  1  0.25575392  0.74060841  0.00385320  1
  Zn  Zn104  1  0.87846945  0.62142180  0.75136645  1
  Zn  Zn105  1  0.73869865  0.11199278  0.37251189  1
  Zn  Zn106  1  0.61758483  0.24274359  0.38705331  1
  Zn  Zn107  1  0.18654791  0.18839679  0.18535630  1
  Zn  Zn108  1  0.18153133  0.18502141  0.68506753  1
  Zn  Zn109  1  0.17955712  0.68891774  0.19360419  1
  Zn  Zn110  1  0.18979038  0.68867344  0.68392532  1
  Zn  Zn111  1  0.68674719  0.18765852  0.18393411  1
  Zn  Zn112  1  0.68761642  0.18873430  0.68388236  1
  Zn  Zn113  1  0.68433781  0.68763648  0.18760795  1
  Zn  Zn114  1  0.68505446  0.68574200  0.68654259  1
  Zn  Zn115  1  0.31541544  0.31745207  0.31417797  1
  Zn  Zn116  1  0.30521709  0.31446279  0.81340980  1
  Zn  Zn117  1  0.30626428  0.81849977  0.31024641  1
  Zn  Zn118  1  0.31765775  0.81645894  0.81721938  1
  Zn  Zn119  1  0.81256952  0.31221388  0.31210975  1
  Zn  Zn120  1  0.81486093  0.30839852  0.80758684  1
  Zn  Zn121  1  0.81184498  0.81436526  0.31374835  1
  Zn  Zn122  1  0.81496801  0.81083057  0.81000129  1
  Zn  Zn123  1  0.18461080  0.42861415  0.43982604  1
  Zn  Zn124  1  0.17220536  0.43464304  0.94219272  1
  Zn  Zn125  1  0.18847561  0.93733496  0.44362506  1
  Zn  Zn126  1  0.19439449  0.93629456  0.93205579  1
  Zn  Zn127  1  0.68405625  0.43370731  0.43728002  1
  Zn  Zn128  1  0.68557320  0.43724974  0.93450555  1
  Zn  Zn129  1  0.69207011  0.93634774  0.43882891  1
  Zn  Zn130  1  0.68891009  0.93795840  0.93871893  1
  Zn  Zn131  1  0.31306314  0.06580005  0.05970582  1
  Zn  Zn132  1  0.31055182  0.06107672  0.56471455  1
  Zn  Zn133  1  0.28975612  0.58722872  0.10919062  1
  Zn  Zn134  1  0.31577264  0.56580607  0.55865465  1
  Zn  Zn135  1  0.81337852  0.06703644  0.05621355  1
  Zn  Zn136  1  0.81745136  0.06045189  0.56195112  1
  Zn  Zn137  1  0.81168440  0.56523613  0.06261586  1
  Zn  Zn138  1  0.81378135  0.56175333  0.56070303  1
  Zn  Zn139  1  0.43696384  0.44264201  0.18701539  1
  Zn  Zn140  1  0.43587842  0.43612666  0.68403678  1
  Zn  Zn141  1  0.43794618  0.93698161  0.18800084  1
  Zn  Zn142  1  0.44169941  0.93549775  0.68803228  1
  Zn  Zn143  1  0.93884301  0.43308303  0.19183975  1
  Zn  Zn144  1  0.93756128  0.43617221  0.68726222  1
  Zn  Zn145  1  0.93813878  0.93601614  0.18854965  1
  Zn  Zn146  1  0.94413796  0.93644954  0.68388712  1
  Zn  Zn147  1  0.05519846  0.06226254  0.31400446  1
  Zn  Zn148  1  0.06832490  0.05781692  0.80959615  1
  Zn  Zn149  1  0.06497153  0.56489419  0.30653024  1
  Zn  Zn150  1  0.18135885  0.56109280  0.81012250  1
  Zn  Zn151  1  0.56073094  0.06512936  0.31108099  1
  Zn  Zn152  1  0.56080299  0.06274813  0.81075943  1
  Zn  Zn153  1  0.56237015  0.56485923  0.31235947  1
  Zn  Zn154  1  0.56060342  0.56353553  0.80938201  1
  Zn  Zn155  1  0.43732922  0.18693982  0.43810319  1
  Zn  Zn156  1  0.43710582  0.19183061  0.93786369  1
  Zn  Zn157  1  0.41555107  0.70456324  0.40169663  1
  Zn  Zn158  1  0.44341873  0.68639264  0.93606443  1
  Zn  Zn159  1  0.93204351  0.18698219  0.43621083  1
  Zn  Zn160  1  0.93719019  0.18453543  0.93570545  1
  Zn  Zn161  1  0.93879565  0.68437097  0.43726069  1
  Zn  Zn162  1  0.94143579  0.68192121  0.93771226  1
  Zn  Zn163  1  0.06021954  0.30985278  0.06294307  1
  Zn  Zn164  1  0.06540552  0.31240706  0.55844113  1
  Zn  Zn165  1  0.06267029  0.80878109  0.06279845  1
  Zn  Zn166  1  0.06711449  0.81133069  0.56526914  1
  Zn  Zn167  1  0.56211994  0.31409236  0.06080772  1
  Zn  Zn168  1  0.56325697  0.31549018  0.56432412  1
  Zn  Zn169  1  0.56615403  0.81532862  0.06329045  1
  Zn  Zn170  1  0.56069531  0.81369171  0.55898400  1
  O  O171  1  0.11935637  0.11779691  0.11604641  1
  O  O172  1  0.12289777  0.11827731  0.61234891  1
  O  O173  1  0.11371031  0.61127935  0.12022238  1
  O  O174  1  0.12023418  0.61642917  0.61530424  1
  O  O175  1  0.61952120  0.11776286  0.11987868  1
  O  O176  1  0.61728739  0.11265412  0.63033871  1
  O  O177  1  0.61963019  0.61200072  0.12533951  1
  O  O178  1  0.61409770  0.61784098  0.62470956  1
  O  O179  1  0.37867678  0.38651477  0.38011463  1
  O  O180  1  0.38620548  0.37173554  0.87563619  1
  O  O181  1  0.38481044  0.88700237  0.38387225  1
  O  O182  1  0.38481953  0.87872963  0.88869016  1
  O  O183  1  0.88795158  0.38372154  0.37001818  1
  O  O184  1  0.88398615  0.37804499  0.86910460  1
  O  O185  1  0.86961165  0.88084505  0.38513207  1
  O  O186  1  0.87979603  0.88224487  0.87592138  1
  O  O187  1  0.26469303  -0.00532459  0.37577246  1
  O  O188  1  0.25111996  0.00638402  0.86725077  1
  O  O189  1  0.25612665  0.49324638  0.38060724  1
  O  O190  1  0.24061827  0.49236867  0.87580942  1
  O  O191  1  0.76670084  0.00047008  0.38340025  1
  O  O192  1  0.76270607  0.00826673  0.88027571  1
  O  O193  1  0.75474565  0.50387710  0.37104482  1
  O  O194  1  0.75910403  0.49612602  0.86514638  1
  O  O195  1  0.23289751  0.48481634  0.11752534  1
  O  O196  1  0.23974678  0.48856075  0.61080911  1
  O  O197  1  0.23965210  0.99546006  0.12307908  1
  O  O198  1  0.23350101  1.00102118  0.62273548  1
  O  O199  1  0.74435653  0.50016931  0.13230068  1
  O  O200  1  0.74859006  0.49273601  0.63055838  1
  O  O201  1  0.73664029  1.00001578  0.11311675  1
  O  O202  1  0.74102339  0.98789913  0.61575305  1
  O  O203  1  0.00771450  0.36802878  0.25961071  1
  O  O204  1  0.01027073  0.37620311  0.75316341  1
  O  O205  1  0.00459140  0.86042328  0.24437578  1
  O  O206  1  0.00743000  0.86134085  0.75300640  1
  O  O207  1  0.50852400  0.36783484  0.24796732  1
  O  O208  1  0.50620068  0.37026800  0.75397909  1
  O  O209  1  0.50984555  0.88062043  0.26333571  1
  O  O210  1  0.51170614  0.86542635  0.75320437  1
  O  O211  1  0.49031534  0.13543077  0.24291101  1
  O  O212  1  0.50596691  0.13777202  0.74016916  1
  O  O213  1  0.49893103  0.61944695  0.23620471  1
  O  O214  1  0.49018458  0.62967264  0.74348626  1
  O  O215  1  0.98994599  0.13099255  0.24375832  1
  O  O216  1  0.99223621  0.12669750  0.75163589  1
  O  O217  1  1.00571127  0.63757307  0.23509572  1
  O  O218  1  1.00487764  0.63315490  0.73660395  1
  O  O219  1  0.36494688  0.25433630  0.00760942  1
  O  O220  1  0.36796069  0.25067285  0.50811552  1
  O  O221  1  0.37600158  0.76095237  -0.00347731  1
  O  O222  1  0.36096532  0.75567512  0.49228049  1
  O  O223  1  0.86620040  0.23927382  0.00941105  1
  O  O224  1  0.86447486  0.24285437  0.51637376  1
  O  O225  1  0.87006209  0.75381653  0.00543168  1
  O  O226  1  0.86502836  0.75348188  0.49913300  1
  O  O227  1  0.13027042  0.24317799  0.49231973  1
  O  O228  1  0.12762959  0.24299554  0.99364226  1
  O  O229  1  0.13114999  0.74407845  0.49257505  1
  O  O230  1  0.12582449  0.73973418  0.99291468  1
  O  O231  1  0.64012926  0.25440372  0.50398950  1
  O  O232  1  0.63297300  0.24228881  0.99991307  1
  O  O233  1  0.63858365  0.75230333  0.49208085  1
  O  O234  1  0.63500306  0.75331977  0.98850867  1
  O  O235  1  0.49113051  0.24639587  0.13033202  1
  O  O236  1  0.49344321  0.24454332  0.62980089  1
  O  O237  1  0.51576244  0.73389732  0.12196528  1
  O  O238  1  0.50927780  0.74004945  0.63345668  1
  O  O239  1  0.99234475  0.24278085  0.12900089  1
  O  O240  1  0.98582808  0.25578599  0.61790143  1
  O  O241  1  0.99244274  0.74378047  0.13234152  1
  O  O242  1  1.00280583  0.73976806  0.63161325  1
  O  O243  1  0.00573728  0.25745924  0.37203703  1
  O  O244  1  0.00500716  0.26005217  0.87899663  1
  O  O245  1  0.00806278  0.74140809  0.36645988  1
  O  O246  1  0.00851324  0.75160474  0.86747575  1
  O  O247  1  0.49759029  0.25328927  0.36196217  1
  O  O248  1  0.50305295  0.25947655  0.86640571  1
  O  O249  1  0.51710082  0.76315668  0.39207096  1
  O  O250  1  0.51174292  0.75550944  0.86706555  1
  O  O251  1  0.24152277  0.13727843  0.50229341  1
  O  O252  1  0.23572776  0.13366649  1.00045428  1
  O  O253  1  0.24176234  0.63837966  0.50419360  1
  O  O254  1  0.23938981  0.62310824  1.00855151  1
  O  O255  1  0.74993954  0.13578578  0.50274164  1
  O  O256  1  0.74595738  0.13352745  0.98702831  1
  O  O257  1  0.74812581  0.63144064  0.49233907  1
  O  O258  1  0.74708516  0.63781766  0.99665424  1
  O  O259  1  0.24462855  0.36063858  -0.00287630  1
  O  O260  1  0.24515139  0.35965424  0.51291236  1
  O  O261  1  0.26091185  0.87518362  0.00743680  1
  O  O262  1  0.25830034  0.86214100  0.49532431  1
  O  O263  1  0.74391504  0.35972542  -0.00184886  1
  O  O264  1  0.74884935  0.37154116  0.51322036  1
  O  O265  1  0.75672130  0.86377769  0.00032745  1
  O  O266  1  0.75816485  0.86496202  0.50828013  1
  O  O267  1  0.11853651  0.49157751  0.23573287  1
  O  O268  1  0.12563266  0.49238937  0.73325774  1
  O  O269  1  0.12338298  1.00361341  0.23905264  1
  O  O270  1  0.12348947  0.98664648  0.74132049  1
  O  O271  1  0.63205629  0.49135182  0.24422564  1
  O  O272  1  0.63318435  0.49221427  0.74531467  1
  O  O273  1  0.61875445  0.99318306  0.23862130  1
  O  O274  1  0.61778285  0.98653892  0.73865951  1
  O  O275  1  0.37724570  0.00965849  0.25811426  1
  O  O276  1  0.37498527  -0.00814394  0.75209498  1
  O  O277  1  0.37321685  0.49466152  0.26393081  1
  O  O278  1  0.37719693  0.50997017  0.75192727  1
  O  O279  1  0.88012439  0.00861606  0.25590069  1
  O  O280  1  0.88250873  0.01076234  0.75635851  1
  O  O281  1  0.86264431  0.49398601  0.25945376  1
  O  O282  1  0.86633583  0.49778699  0.75554934  1
  O  O283  1  0.11557220  0.36613214  0.36655204  1
  O  O284  1  0.10803430  0.36785368  0.86916861  1
  O  O285  1  0.12091620  0.86363102  0.38001835  1
  O  O286  1  0.11941783  0.86577536  0.86771256  1
  O  O287  1  0.62364130  0.36731967  0.36226335  1
  O  O288  1  0.61710088  0.37303598  0.86275643  1
  O  O289  1  0.62083687  0.87203247  0.36940540  1
  O  O290  1  0.62489475  0.86793071  0.86639459  1
  O  O291  1  0.38002676  0.13393745  0.13146423  1
  O  O292  1  0.38523943  0.13538099  0.62090849  1
  O  O293  1  0.39525564  0.62823597  0.12149369  1
  O  O294  1  0.38328709  0.62112836  0.63898196  1
  O  O295  1  0.87928575  0.13013465  0.13048062  1
  O  O296  1  0.87367661  0.13087761  0.63689647  1
  O  O297  1  0.88600551  0.63512318  0.11852403  1
  O  O298  1  0.88907069  0.62406090  0.62470411  1
  O  O299  1  0.25758944  0.24501334  0.11484135  1
  O  O300  1  0.25622125  0.25438185  0.61844853  1
  O  O301  1  0.23545516  0.76810316  0.12240754  1
  O  O302  1  0.24578786  0.75354253  0.60929088  1
  O  O303  1  0.75771127  0.24991284  0.11482774  1
  O  O304  1  0.75496798  0.25567606  0.61687419  1
  O  O305  1  0.75784881  0.74879820  0.11753671  1
  O  O306  1  0.75051371  0.75604839  0.61706240  1
  O  O307  1  0.23973752  0.25868002  0.38440013  1
  O  O308  1  0.23579163  0.24914688  0.88286667  1
  O  O309  1  0.23080856  0.75068020  0.38156637  1
  O  O310  1  0.23792537  0.75390267  0.87905967  1
  O  O311  1  0.75678088  0.25408036  0.39533000  1
  O  O312  1  0.74960094  0.24189083  0.87952280  1
  O  O313  1  0.74513173  0.74243651  0.38107100  1
  O  O314  1  0.74611382  0.74814708  0.88058530  1
  O  O315  1  0.00765088  0.11894063  0.00426158  1
  O  O316  1  0.01187397  0.12622767  0.49380889  1
  O  O317  1  0.01001980  0.63157117  0.01625040  1
  O  O318  1  0.00918232  0.61668203  0.50693441  1
  O  O319  1  0.50707599  0.11828721  0.00483326  1
  O  O320  1  0.49815522  0.11487777  0.50932889  1
  O  O321  1  0.50604516  0.61631312  0.00567403  1
  O  O322  1  0.49946581  0.61611959  0.51126013  1
  O  O323  1  0.49868303  0.38625787  0.50136660  1
  O  O324  1  0.49981984  0.38329837  0.99089377  1
  O  O325  1  0.49500089  0.88483246  0.49100216  1
  O  O326  1  0.49616721  0.88092503  0.99809047  1
  O  O327  1  1.01016793  0.38660036  0.48766779  1
  O  O328  1  0.99760151  0.37247701  0.98941790  1
  O  O329  1  0.98582444  0.86690097  0.50529224  1
  O  O330  1  0.99543276  0.87793943  0.99283324  1
  O  O331  1  0.50213229  0.49909319  0.38608821  1
  O  O332  1  0.50906642  0.49172518  0.88405084  1
  O  O333  1  0.49492110  0.99446549  0.38259363  1
  O  O334  1  0.50668796  0.99257562  0.88680133  1
  O  O335  1  0.99503223  0.49590683  0.37747988  1
  O  O336  1  0.98502188  0.48259744  0.87716091  1
  O  O337  1  0.98413073  1.00201178  0.37942336  1
  O  O338  1  0.99203703  0.99360026  0.87757449  1
  O  O339  1  0.00775747  0.00291307  0.11771310  1
  O  O340  1  0.01626676  -0.00510868  0.61844042  1
  O  O341  1  -0.00819910  0.51468556  0.13151443  1
  O  O342  1  0.00752290  0.50281494  0.61616028  1
  O  O343  1  0.50923573  0.00443330  0.11726858  1
  O  O344  1  0.50790789  0.00628555  0.61695709  1
  O  O345  1  0.50812814  0.50483620  0.11608171  1
  O  O346  1  0.50320243  0.50662299  0.61829847  1
  O  O347  1  0.23308406  0.36588177  0.24945082  1
  O  O348  1  0.23729138  0.36909358  0.73575891  1
  O  O349  1  0.24244564  0.88332159  0.24110571  1
  O  O350  1  0.23848273  0.86976453  0.75323784  1
  O  O351  1  0.74196861  0.38291479  0.24788202  1
  O  O352  1  0.74243054  0.38000224  0.74250160  1
  O  O353  1  0.73698876  0.87546346  0.24949474  1
  O  O354  1  0.74175306  0.86696880  0.73829628  1
  O  O355  1  0.26371821  0.12487718  0.24547183  1
  O  O356  1  0.24396979  0.12308359  0.74965360  1
  O  O357  1  0.25975905  0.61809470  0.21523793  1
  O  O358  1  0.26125431  0.62394280  0.74617478  1
  O  O359  1  0.76253422  0.13123444  0.24838344  1
  O  O360  1  0.75217136  0.12820997  0.76022943  1
  O  O361  1  0.74211593  0.61295174  0.26032626  1
  O  O362  1  0.75226687  0.61191242  0.74917075  1
  O  O363  1  0.38257190  0.11594956  0.36553674  1
  O  O364  1  0.37304624  0.11677188  0.89142099  1
  O  O365  1  0.37477634  0.60245319  0.37515412  1
  O  O366  1  0.37619600  0.62622667  0.86209570  1
  O  O367  1  0.87000075  0.11835881  0.36588351  1
  O  O368  1  0.87123403  0.11973839  0.86153795  1
  O  O369  1  0.86378622  0.61413215  0.37786818  1
  O  O370  1  0.87805513  0.60770322  0.87246534  1
  O  O371  1  0.10942554  0.38668905  0.13173684  1
  O  O372  1  0.12826512  0.37943113  0.62962959  1
  O  O373  1  0.12976400  0.88752223  0.12035836  1
  O  O374  1  0.12433677  0.87951912  0.63442318  1
  O  O375  1  0.62673268  0.38548298  0.13223919  1
  O  O376  1  0.63262377  0.38109993  0.63479469  1
  O  O377  1  0.62707416  0.88289525  0.13413085  1
  O  O378  1  0.63185333  0.88073162  0.62954109  1
  O  O379  1  0.11828742  0.25347624  0.25461026  1
  O  O380  1  0.12577424  0.25921036  0.76057576  1
  O  O381  1  0.11742375  0.75271804  0.26473958  1
  O  O382  1  0.12032181  0.75179960  0.75617757  1
  O  O383  1  0.61420255  0.25933816  0.24023888  1
  O  O384  1  0.61491230  0.26035619  0.74621201  1
  O  O385  1  0.62995821  0.75960197  0.26283639  1
  O  O386  1  0.62034438  0.75730688  0.75617182  1
  O  O387  1  0.38033577  0.24637583  0.24385892  1
  O  O388  1  0.38507859  0.25822457  0.74047587  1
  O  O389  1  0.38728135  0.74584628  0.29576406  1
  O  O390  1  0.38920536  0.74682175  0.75596152  1
  O  O391  1  0.87882041  0.24183825  0.24283399  1
  O  O392  1  0.87323944  0.23510646  0.73848214  1
  O  O393  1  0.87903765  0.75496860  0.23933014  1
  O  O394  1  0.88846008  0.74450459  0.74913963  1
  O  O395  1  0.38250316  0.49755244  0.49228816  1
  O  O396  1  0.38689025  0.50038329  1.00160994  1
  O  O397  1  0.38296216  0.99601064  0.49466816  1
  O  O398  1  0.38974679  0.99116744  1.00667609  1
  O  O399  1  0.88778441  0.50278761  0.48983154  1
  O  O400  1  0.86439142  0.49663934  0.98603024  1
  O  O401  1  0.87929171  0.98976741  0.49542614  1
  O  O402  1  0.88143656  0.99619069  0.98905443  1
  O  O403  1  0.12066524  0.00706271  0.00392895  1
  O  O404  1  0.12354144  0.00862701  0.50284387  1
  O  O405  1  0.11620056  0.50579720  0.01547491  1
  O  O406  1  0.11720816  0.50542812  0.50413099  1
  O  O407  1  0.61590821  0.00241900  0.00691921  1
  O  O408  1  0.61478166  -0.00908306  0.50914651  1
  O  O409  1  0.62017814  0.50011718  0.00831109  1
  O  O410  1  0.61729028  0.50107361  0.50575915  1
  O  O411  1  0.37932264  0.36314992  0.12366223  1
  O  O412  1  0.36591856  0.36490299  0.62331797  1
  O  O413  1  0.36535219  0.87995426  0.11918363  1
  O  O414  1  0.38623023  0.87549354  0.60717786  1
  O  O415  1  0.87506611  0.35856102  0.13114972  1
  O  O416  1  0.86626706  0.35891334  0.63579259  1
  O  O417  1  0.87404156  0.86635028  0.11756414  1
  O  O418  1  0.86663353  0.87315468  0.61893208  1
  O  O419  1  0.12155941  0.13795481  0.37812212  1
  O  O420  1  0.11555035  0.13387095  0.88421526  1
  O  O421  1  0.11964970  0.63113532  0.38572285  1
  O  O422  1  0.12368456  0.63157918  0.88575242  1
  O  O423  1  0.62942776  0.13376443  0.36374458  1
  O  O424  1  0.63316384  0.12470107  0.87825861  1
  O  O425  1  0.63390158  0.63380488  0.37710704  1
  O  O426  1  0.62794457  0.63770652  0.87247700  1
