# generated using pymatgen
data_V85Zn86O256
_symmetry_space_group_name_H-M   'P 1'
_cell_length_a   17.00847035
_cell_length_b   17.02631878
_cell_length_c   17.01463451
_cell_angle_alpha   90.04428046
_cell_angle_beta   90.24655202
_cell_angle_gamma   90.01912020
_symmetry_Int_Tables_number   1
_chemical_formula_structural   V85Zn86O256
_chemical_formula_sum   'V85 Zn86 O256'
_cell_volume   4927.24850803
_cell_formula_units_Z   1
loop_
 _symmetry_equiv_pos_site_id
 _symmetry_equiv_pos_as_xyz
  1  'x, y, z'
loop_
 _atom_site_type_symbol
 _atom_site_label
 _atom_site_symmetry_multiplicity
 _atom_site_fract_x
 _atom_site_fract_y
 _atom_site_fract_z
 _atom_site_occupancy
  V  V0  1  0.37604067  0.87433706  0.50210463  1
  V  V1  1  0.50168470  0.62424888  0.61638722  1
  V  V2  1  0.12639545  0.00825777  0.12422884  1
  V  V3  1  0.12546944  0.74468740  0.38175339  1
  V  V4  1  0.24753640  0.12408737  0.87889073  1
  V  V5  1  0.00637985  0.00670867  0.00326834  1
  V  V6  1  0.49892093  0.75106760  0.24949588  1
  V  V7  1  -0.00662121  0.36972389  0.89049069  1
  V  V8  1  0.00540092  0.26109128  0.25643958  1
  V  V9  1  0.90025246  0.49573456  0.38045496  1
  V  V10  1  0.00096736  0.12461549  0.62532631  1
  V  V11  1  0.12340021  0.24318145  0.88065897  1
  V  V12  1  0.49692396  0.50022441  0.00471011  1
  V  V13  1  0.24869429  0.87591044  0.12637576  1
  V  V14  1  0.62576939  0.12514609  0.50113059  1
  V  V15  1  0.12756971  0.26098269  0.37400105  1
  V  V16  1  0.49578303  0.37498310  0.87171918  1
  V  V17  1  0.38276572  0.25014344  0.12598511  1
  V  V18  1  0.49861029  0.12728949  0.62600029  1
  V  V19  1  0.12202495  0.87162163  0.75046982  1
  V  V20  1  -0.00075828  0.74782872  0.25223686  1
  V  V21  1  0.62325650  0.50543640  0.61520386  1
  V  V22  1  0.61858824  0.25010879  0.36852768  1
  V  V23  1  0.37499883  0.00071793  0.37489896  1
  V  V24  1  0.36860711  0.49989440  0.86916394  1
  V  V25  1  0.62440685  0.87189094  0.25340994  1
  V  V26  1  0.87636403  0.00424929  0.87818069  1
  V  V27  1  0.62698933  0.12886167  -0.00020961  1
  V  V28  1  0.75020119  0.87814763  0.12449251  1
  V  V29  1  0.38534415  0.63074419  0.75567262  1
  V  V30  1  0.12759366  0.12355304  0.49811352  1
  V  V31  1  0.87810824  0.00115618  0.37934709  1
  V  V32  1  0.38304703  0.75049494  0.62945619  1
  V  V33  1  0.74932376  0.13016284  0.87721216  1
  V  V34  1  0.89119524  0.37645824  0.49751488  1
  V  V35  1  0.12552486  0.87507097  0.25180340  1
  V  V36  1  0.75436170  0.50612726  0.74624045  1
  V  V37  1  0.75028340  0.37721329  0.62183838  1
  V  V38  1  0.24362686  0.74908445  0.00103149  1
  V  V39  1  0.12191296  0.75129371  0.87394723  1
  V  V40  1  0.75014592  0.25202178  0.50007591  1
  V  V41  1  0.62797108  0.25383616  0.87753881  1
  V  V42  1  0.62433335  0.00228700  0.12520435  1
  V  V43  1  0.24981389  -0.00240453  0.74919688  1
  V  V44  1  0.75124793  0.12643597  0.37727668  1
  V  V45  1  0.50003364  -0.00071544  0.50135957  1
  V  V46  1  0.13701403  0.38338035  0.75140152  1
  V  V47  1  0.37670954  0.49600771  0.37955599  1
  V  V48  1  0.50166025  0.87401508  0.37489023  1
  V  V49  1  0.89181035  0.62117843  0.75216502  1
  V  V50  1  0.37358807  0.36598773  0.50940593  1
  V  V51  1  -0.00024729  0.87347483  0.87393714  1
  V  V52  1  0.61773726  0.87129768  0.76634118  1
  V  V53  1  0.37027599  0.61438492  0.24580464  1
  V  V54  1  0.88126143  0.12475605  0.25116523  1
  V  V55  1  0.24599238  0.24489590  0.00081550  1
  V  V56  1  0.49530538  0.25159348  0.74413763  1
  V  V57  1  0.88137198  0.75167418  0.63563569  1
  V  V58  1  0.75130209  0.00043252  0.25335438  1
  V  V59  1  0.62666268  -0.00396344  0.62731247  1
  V  V60  1  0.37151922  0.37235654  -0.00351217  1
  V  V61  1  0.86275186  0.62379796  0.25505557  1
  V  V62  1  0.87431445  0.12711774  0.75049694  1
  V  V63  1  0.00501775  0.62543390  0.59730954  1
  V  V64  1  0.00120567  0.87596350  0.37961345  1
  V  V65  1  0.25097812  0.61989309  0.36930927  1
  V  V66  1  0.87268686  0.87663436  0.00310709  1
  V  V67  1  0.86758284  0.25662907  0.12440218  1
  V  V68  1  0.64239318  0.49820445  0.11868810  1
  V  V69  1  0.38253462  0.12898410  0.24962571  1
  V  V70  1  0.87183665  0.75407572  0.13031528  1
  V  V71  1  0.86960626  0.49342344  0.89197761  1
  V  V72  1  0.49647290  0.37206475  0.36864403  1
  V  V73  1  -0.00161627  0.25441353  0.75111843  1
  V  V74  1  0.37474753  0.75021991  0.12598768  1
  V  V75  1  0.25229834  0.00039173  0.25144495  1
  V  V76  1  0.37275495  0.12984848  0.74648554  1
  V  V77  1  0.87515220  0.87505076  0.50571517  1
  V  V78  1  0.74567946  0.49068657  0.26720586  1
  V  V79  1  0.37719273  0.87656003  -0.00664933  1
  V  V80  1  0.25645798  0.74392067  0.49961756  1
  V  V81  1  0.49901909  -0.00031672  -0.00478469  1
  V  V82  1  0.23902019  0.38558726  0.13339126  1
  V  V83  1  0.24777730  0.62555507  0.87109117  1
  V  V84  1  0.75062538  0.00124609  0.75201430  1
  Zn  Zn85  1  0.37954794  -0.00228292  0.87284379  1
  Zn  Zn86  1  0.87503217  0.25310214  0.62338409  1
  Zn  Zn87  1  0.62365736  0.63495180  -0.01531369  1
  Zn  Zn88  1  0.49796028  0.62206074  0.12215284  1
  Zn  Zn89  1  0.25490062  0.24752018  0.51929354  1
  Zn  Zn90  1  0.00464637  0.12870166  0.12336401  1
  Zn  Zn91  1  0.75044518  0.87141068  0.62906909  1
  Zn  Zn92  1  0.25308667  0.12704209  0.37741002  1
  Zn  Zn93  1  0.83445077  0.36154558  0.00524644  1
  Zn  Zn94  1  0.56146439  0.71444450  0.81451671  1
  Zn  Zn95  1  0.50392226  0.13207420  0.12708502  1
  Zn  Zn96  1  0.00342463  0.00010303  0.50199285  1
  Zn  Zn97  1  0.62354868  0.37492156  0.74409870  1
  Zn  Zn98  1  -0.00482580  0.62410646  0.11277314  1
  Zn  Zn99  1  0.24776668  0.86641351  0.62719608  1
  Zn  Zn100  1  0.12608198  -0.00535453  0.62288331  1
  Zn  Zn101  1  0.64643297  0.63175219  0.46598487  1
  Zn  Zn102  1  0.12333644  0.49536842  0.61313097  1
  Zn  Zn103  1  0.62225471  0.36540154  0.24277059  1
  Zn  Zn104  1  0.10588864  0.59762592  0.01083654  1
  Zn  Zn105  1  0.74499604  0.64873656  0.88141544  1
  Zn  Zn106  1  0.74708698  0.74839942  0.49231850  1
  Zn  Zn107  1  0.19472061  0.19091814  0.19157542  1
  Zn  Zn108  1  0.18134741  0.18543885  0.69279216  1
  Zn  Zn109  1  0.18320083  0.68213785  0.18619423  1
  Zn  Zn110  1  0.20662315  0.64810916  0.66519044  1
  Zn  Zn111  1  0.69071884  0.18494376  0.18852402  1
  Zn  Zn112  1  0.68507905  0.19013927  0.68908770  1
  Zn  Zn113  1  0.65499320  0.71546807  0.13384540  1
  Zn  Zn114  1  0.69508880  0.68797715  0.67560924  1
  Zn  Zn115  1  0.30929088  0.31269706  0.30927305  1
  Zn  Zn116  1  0.30888242  0.31805354  0.68940305  1
  Zn  Zn117  1  0.31392501  0.81199770  0.31417044  1
  Zn  Zn118  1  0.31171765  0.80997433  0.81177820  1
  Zn  Zn119  1  0.81508776  0.31283490  0.31562195  1
  Zn  Zn120  1  0.81170635  0.31576010  0.80995181  1
  Zn  Zn121  1  0.80843819  0.81354101  0.31702387  1
  Zn  Zn122  1  0.80940653  0.81163144  0.81207309  1
  Zn  Zn123  1  0.19201341  0.43243136  0.43084717  1
  Zn  Zn124  1  0.18597796  0.43123555  0.93824058  1
  Zn  Zn125  1  0.19017377  0.93519918  0.43893055  1
  Zn  Zn126  1  0.18875593  0.93775544  0.93908351  1
  Zn  Zn127  1  0.68244422  0.43350364  0.44050543  1
  Zn  Zn128  1  0.68777586  0.44232672  0.93710891  1
  Zn  Zn129  1  0.68975100  0.93542389  0.43916312  1
  Zn  Zn130  1  0.68982175  0.94291716  0.93833775  1
  Zn  Zn131  1  0.31418922  0.06300289  0.06527631  1
  Zn  Zn132  1  0.31083079  0.06225358  0.56492838  1
  Zn  Zn133  1  0.30955250  0.56214721  0.05732842  1
  Zn  Zn134  1  0.27223572  0.53220404  0.54073512  1
  Zn  Zn135  1  0.81355947  0.06607560  0.06492181  1
  Zn  Zn136  1  0.81332686  0.06237087  0.56442089  1
  Zn  Zn137  1  0.80991386  0.57460806  0.06203079  1
  Zn  Zn138  1  0.81954880  0.56362746  0.55984364  1
  Zn  Zn139  1  0.43172278  0.42951175  0.18671491  1
  Zn  Zn140  1  0.43744355  0.44557709  0.68607529  1
  Zn  Zn141  1  0.43911723  0.94012120  0.18239519  1
  Zn  Zn142  1  0.43813067  0.93776826  0.69014636  1
  Zn  Zn143  1  0.93249644  0.43404021  0.19228697  1
  Zn  Zn144  1  0.94355552  0.44319718  0.68077579  1
  Zn  Zn145  1  0.94192282  0.93936487  0.19120035  1
  Zn  Zn146  1  0.93868915  0.94132167  0.69007831  1
  Zn  Zn147  1  0.06515292  0.06305776  0.31439203  1
  Zn  Zn148  1  0.06218751  0.05966981  0.81173134  1
  Zn  Zn149  1  0.06231436  0.56569310  0.30859079  1
  Zn  Zn150  1  0.06427483  0.54910200  0.84615189  1
  Zn  Zn151  1  0.56266062  0.06109446  0.31366003  1
  Zn  Zn152  1  0.56279452  0.06340072  0.81268057  1
  Zn  Zn153  1  0.56035949  0.55560102  0.30156734  1
  Zn  Zn154  1  0.56792137  0.55182408  0.81060400  1
  Zn  Zn155  1  0.43837261  0.18825523  0.43803806  1
  Zn  Zn156  1  0.43723232  0.18697494  0.93596096  1
  Zn  Zn157  1  0.47371993  0.66083457  0.41283895  1
  Zn  Zn158  1  0.43378126  0.68547586  0.94287878  1
  Zn  Zn159  1  0.94031247  0.19198988  0.43921613  1
  Zn  Zn160  1  0.93568573  0.18840821  0.94146498  1
  Zn  Zn161  1  0.90734931  0.69574752  0.42913130  1
  Zn  Zn162  1  0.91662874  0.69193234  0.93308564  1
  Zn  Zn163  1  0.06104109  0.30754674  0.06980818  1
  Zn  Zn164  1  0.07444660  0.30874022  0.56800169  1
  Zn  Zn165  1  0.05969575  0.81262283  0.06367082  1
  Zn  Zn166  1  0.06185663  0.80573384  0.56553143  1
  Zn  Zn167  1  0.57277136  0.32108991  0.05677955  1
  Zn  Zn168  1  0.55952370  0.31655126  0.55609122  1
  Zn  Zn169  1  0.56192153  0.80779181  -0.03008579  1
  Zn  Zn170  1  0.56648289  0.80742170  0.56011273  1
  O  O171  1  0.12707823  0.11123512  0.13341762  1
  O  O172  1  0.11589041  0.12444069  0.61664151  1
  O  O173  1  0.11091812  0.64528612  0.11185430  1
  O  O174  1  0.10282925  0.64457938  0.61648319  1
  O  O175  1  0.62570738  0.12246719  0.11715803  1
  O  O176  1  0.62034976  0.11532148  0.62214243  1
  O  O177  1  0.61621047  0.60204945  0.13010512  1
  O  O178  1  0.60987349  0.62206494  0.63263868  1
  O  O179  1  0.37890193  0.37752660  0.37636510  1
  O  O180  1  0.38611538  0.38450561  0.87745074  1
  O  O181  1  0.38093535  0.88210801  0.38126600  1
  O  O182  1  0.36450136  0.87772304  0.89055615  1
  O  O183  1  0.87373235  0.38744987  0.38306694  1
  O  O184  1  0.87517347  0.37201744  0.88726006  1
  O  O185  1  0.88253388  0.88358604  0.38611489  1
  O  O186  1  0.88266510  0.88626970  0.88440838  1
  O  O187  1  0.25804955  0.00032892  0.36936925  1
  O  O188  1  0.24898007  0.00902356  0.86802334  1
  O  O189  1  0.26043214  0.51187366  0.36956864  1
  O  O190  1  0.26308809  0.51071337  0.88187640  1
  O  O191  1  0.75690671  0.00679956  0.37240171  1
  O  O192  1  0.75697443  0.00982985  0.87124652  1
  O  O193  1  0.74186823  0.50091946  0.36655937  1
  O  O194  1  0.76258001  0.48225538  0.85713409  1
  O  O195  1  0.25015435  0.48380070  0.11058103  1
  O  O196  1  0.22953775  0.53791415  0.64334089  1
  O  O197  1  0.24400702  0.99515228  0.13008742  1
  O  O198  1  0.24851995  0.99642717  0.63912204  1
  O  O199  1  0.74278578  0.49942008  0.13070850  1
  O  O200  1  0.74459657  0.49403549  0.62896270  1
  O  O201  1  0.74701694  0.99621866  0.13395147  1
  O  O202  1  0.74062159  1.00195527  0.63306953  1
  O  O203  1  -0.00117297  0.35849410  0.25247229  1
  O  O204  1  -0.00666571  0.36092321  0.75742574  1
  O  O205  1  0.00388905  0.86822210  0.26032100  1
  O  O206  1  0.00908935  0.88702120  0.76445640  1
  O  O207  1  0.49977018  0.37520127  0.26298970  1
  O  O208  1  0.49682482  0.36824808  0.75481235  1
  O  O209  1  0.50615195  0.87208829  0.25215624  1
  O  O210  1  0.51903326  0.88340787  0.75197139  1
  O  O211  1  0.48754534  0.11904427  0.24725067  1
  O  O212  1  0.49201470  0.13214529  0.74799486  1
  O  O213  1  0.48534732  0.63403995  0.24282925  1
  O  O214  1  0.49381522  0.63092182  0.75582041  1
  O  O215  1  0.98925754  0.12685306  0.25152048  1
  O  O216  1  0.99601092  0.13302597  0.74566226  1
  O  O217  1  0.98876094  0.64098704  0.25229929  1
  O  O218  1  0.98911659  0.61610083  0.76907910  1
  O  O219  1  0.36601183  0.25235814  0.00406102  1
  O  O220  1  0.37634664  0.25996412  0.50108878  1
  O  O221  1  0.36370903  0.75732773  0.00880037  1
  O  O222  1  0.36972159  0.75785475  0.51068391  1
  O  O223  1  0.87716330  0.24442727  0.02088064  1
  O  O224  1  0.86760902  0.25895238  0.49947841  1
  O  O225  1  0.88727935  0.77196907  0.02162893  1
  O  O226  1  0.88286878  0.76856749  0.51704529  1
  O  O227  1  0.12575579  0.24285244  0.48766868  1
  O  O228  1  0.13190919  0.24948045  0.99053616  1
  O  O229  1  0.13714385  0.75590163  0.48759618  1
  O  O230  1  0.13545219  0.76374611  0.98919573  1
  O  O231  1  0.63023123  0.24418806  0.49114751  1
  O  O232  1  0.61330037  0.23919290  0.98740128  1
  O  O233  1  0.63202686  0.74924931  0.49507129  1
  O  O234  1  0.62661808  0.74068849  1.02760419  1
  O  O235  1  0.48552459  0.25433767  0.11554272  1
  O  O236  1  0.51201765  0.24372837  0.63651285  1
  O  O237  1  0.48114883  0.74832396  0.13315958  1
  O  O238  1  0.49268521  0.73989542  0.62308310  1
  O  O239  1  0.99531130  0.24412755  0.14153030  1
  O  O240  1  1.00068988  0.23990358  0.63559574  1
  O  O241  1  0.98758227  0.76280322  0.14084415  1
  O  O242  1  0.98958411  0.73939259  0.62506012  1
  O  O243  1  0.01140029  0.24449930  0.36468056  1
  O  O244  1  0.00338814  0.25024639  0.87018758  1
  O  O245  1  0.00647007  0.75582613  0.36959646  1
  O  O246  1  0.00712008  0.76842791  0.88344306  1
  O  O247  1  0.51083204  0.25507247  0.37834872  1
  O  O248  1  0.50442313  0.25697538  0.86573706  1
  O  O249  1  0.48651898  0.76160877  0.35558461  1
  O  O250  1  0.49591449  0.76036414  0.89040153  1
  O  O251  1  0.24147578  0.12837957  0.50003577  1
  O  O252  1  0.25707075  0.13178308  0.99025705  1
  O  O253  1  0.26236179  0.63869130  0.48136511  1
  O  O254  1  0.25169522  0.63846800  0.98855105  1
  O  O255  1  0.74535261  0.13068995  0.49651367  1
  O  O256  1  0.73554036  0.11851940  0.99422788  1
  O  O257  1  0.74622721  0.63150884  0.51472160  1
  O  O258  1  0.73499284  0.60156275  0.98656612  1
  O  O259  1  0.25419718  0.36102887  -0.00130613  1
  O  O260  1  0.26963689  0.36443981  0.49094398  1
  O  O261  1  0.25672711  0.86873682  0.00681191  1
  O  O262  1  0.25752500  0.86391700  0.50332875  1
  O  O263  1  0.72462291  0.36379712  0.00373147  1
  O  O264  1  0.75598027  0.37165999  0.50797139  1
  O  O265  1  0.76163623  0.88853112  0.01314284  1
  O  O266  1  0.76489949  0.87871022  0.50502536  1
  O  O267  1  0.08104329  0.50317014  0.21038821  1
  O  O268  1  0.11624284  0.48053418  0.76564422  1
  O  O269  1  0.13112511  0.99422798  0.24485695  1
  O  O270  1  0.13428937  0.99121630  0.75051896  1
  O  O271  1  0.63729884  0.49631278  0.24138583  1
  O  O272  1  0.63742316  0.49472716  0.73834258  1
  O  O273  1  0.63079742  0.99463340  0.24535402  1
  O  O274  1  0.63028259  0.99372948  0.74641382  1
  O  O275  1  0.37165380  0.00590419  0.25392323  1
  O  O276  1  0.36696340  0.00661134  0.75399854  1
  O  O277  1  0.37669934  0.51067863  0.25196105  1
  O  O278  1  0.38306994  0.51352957  0.76268487  1
  O  O279  1  0.87204557  0.00722679  0.25750407  1
  O  O280  1  0.87102446  0.00831723  0.75840757  1
  O  O281  1  0.86559054  0.49946185  0.26282123  1
  O  O282  1  0.86672285  0.50548983  0.74252753  1
  O  O283  1  0.12670921  0.35941620  0.37513489  1
  O  O284  1  0.11347232  0.35923268  0.86654040  1
  O  O285  1  0.12163959  0.86632694  0.37100390  1
  O  O286  1  0.11817849  0.87339350  0.87089629  1
  O  O287  1  0.61378928  0.36606852  0.37645117  1
  O  O288  1  0.60950661  0.37007647  0.87047948  1
  O  O289  1  0.62083854  0.88187536  0.36023846  1
  O  O290  1  0.62878900  0.87354095  0.86981577  1
  O  O291  1  0.37742352  0.13327040  0.13180514  1
  O  O292  1  0.38232300  0.11749383  0.63897636  1
  O  O293  1  0.36823875  0.63383073  0.12968693  1
  O  O294  1  0.39063932  0.63229727  0.64117979  1
  O  O295  1  0.87704135  0.13238670  0.13836971  1
  O  O296  1  0.88397331  0.12827903  0.63088695  1
  O  O297  1  0.87640661  0.63614682  0.13469161  1
  O  O298  1  0.89066717  0.63005595  0.63300743  1
  O  O299  1  0.25684617  0.25315281  0.11439800  1
  O  O300  1  0.24488815  0.24932524  0.63057596  1
  O  O301  1  0.25519688  0.75573355  0.11850799  1
  O  O302  1  0.26235229  0.74226793  0.61514997  1
  O  O303  1  0.76933712  0.24971501  0.13991990  1
  O  O304  1  0.74815783  0.26016645  0.61954986  1
  O  O305  1  0.76283435  0.76605818  0.13459628  1
  O  O306  1  0.76855451  0.75552759  0.62214055  1
  O  O307  1  0.23377211  0.24502357  0.36769065  1
  O  O308  1  0.23888277  0.23787248  0.88471009  1
  O  O309  1  0.24496193  0.74491811  0.37992808  1
  O  O310  1  0.24344432  0.74695229  0.88430992  1
  O  O311  1  0.74296904  0.24545922  0.38109504  1
  O  O312  1  0.73496219  0.24658045  0.86518791  1
  O  O313  1  0.80058374  0.73426390  0.39083714  1
  O  O314  1  0.81303247  0.73665667  0.89191238  1
  O  O315  1  -0.00341946  0.11065423  0.00308245  1
  O  O316  1  0.00811986  0.12635033  0.50926352  1
  O  O317  1  -0.00931977  0.63365779  -0.00305800  1
  O  O318  1  -0.01217839  0.63387644  0.49999590  1
  O  O319  1  0.50964008  0.11917385  0.00183937  1
  O  O320  1  0.50602921  0.11889035  0.50582958  1
  O  O321  1  0.50027187  0.61075686  0.00166822  1
  O  O322  1  0.48884784  0.62130097  0.51967301  1
  O  O323  1  0.48405510  0.37206649  0.48698094  1
  O  O324  1  0.49260514  0.38021721  0.98943419  1
  O  O325  1  0.49581228  0.88072588  0.49550092  1
  O  O326  1  0.48811222  0.88858006  1.00561937  1
  O  O327  1  0.98879630  0.36467406  0.51028957  1
  O  O328  1  1.00093370  0.36356122  0.98942733  1
  O  O329  1  0.99534483  0.87836471  0.49712331  1
  O  O330  1  0.99275450  0.88782121  0.99511637  1
  O  O331  1  0.48396613  0.48811000  0.36932625  1
  O  O332  1  0.49535234  0.49209984  0.88191601  1
  O  O333  1  0.49538176  0.99387937  0.38235618  1
  O  O334  1  0.49821198  1.00785531  0.88969499  1
  O  O335  1  0.99824342  0.49212004  0.37085090  1
  O  O336  1  0.97199845  0.47832333  0.86722714  1
  O  O337  1  0.99583033  0.99362702  0.37721428  1
  O  O338  1  0.99713137  0.99549108  0.88465000  1
  O  O339  1  0.00968696  0.00050624  0.12049219  1
  O  O340  1  0.00357615  0.01469252  0.62741813  1
  O  O341  1  0.01719281  0.50762509  0.15988066  1
  O  O342  1  0.00694530  0.52037661  0.62327835  1
  O  O343  1  0.50751513  0.00507608  0.11459453  1
  O  O344  1  0.50838557  0.00653505  0.62129978  1
  O  O345  1  0.49015911  0.49664100  0.11111445  1
  O  O346  1  0.51027646  0.51547743  0.63481871  1
  O  O347  1  0.25391676  0.37625032  0.23258207  1
  O  O348  1  0.23612967  0.37438059  0.75824878  1
  O  O349  1  0.24617677  0.88043899  0.24609132  1
  O  O350  1  0.24278505  0.88355395  0.75149752  1
  O  O351  1  0.74882392  0.38768398  0.25582315  1
  O  O352  1  0.75093979  0.38082717  0.73353181  1
  O  O353  1  0.74502650  0.88097463  0.24763258  1
  O  O354  1  0.74196804  0.88429426  0.75183981  1
  O  O355  1  0.26304082  0.11682947  0.25168682  1
  O  O356  1  0.25522324  0.11733731  0.75789332  1
  O  O357  1  0.26092792  0.63591630  0.25835532  1
  O  O358  1  0.26568952  0.63638857  0.76773100  1
  O  O359  1  0.76131636  0.11957902  0.25807983  1
  O  O360  1  0.75435459  0.12157365  0.75624312  1
  O  O361  1  0.76314523  0.60775321  0.24724284  1
  O  O362  1  0.75912888  0.61375560  0.74734099  1
  O  O363  1  0.37559835  0.11960611  0.36755706  1
  O  O364  1  0.36536415  0.12527794  0.86334866  1
  O  O365  1  0.37303386  0.61524650  0.36453926  1
  O  O366  1  0.36909096  0.61926084  0.87253414  1
  O  O367  1  0.87149467  0.12212943  0.37007163  1
  O  O368  1  0.86920302  0.12307609  0.87165045  1
  O  O369  1  0.88426453  0.60068224  0.36521618  1
  O  O370  1  0.87045423  0.59591380  0.86802099  1
  O  O371  1  0.14107662  0.36722541  0.11942555  1
  O  O372  1  0.11475399  0.37838295  0.64737528  1
  O  O373  1  0.12991508  0.88261116  0.13307585  1
  O  O374  1  0.12572772  0.87390177  0.63631962  1
  O  O375  1  0.61315186  0.39496294  0.13162670  1
  O  O376  1  0.63235978  0.38478082  0.62095488  1
  O  O377  1  0.63988034  0.88540360  0.13708772  1
  O  O378  1  0.62599768  0.88858917  0.63094856  1
  O  O379  1  0.11371755  0.24028422  0.26079789  1
  O  O380  1  0.11388965  0.25545876  0.76103849  1
  O  O381  1  0.11739402  0.75611003  0.25964570  1
  O  O382  1  0.13146737  0.76747545  0.76494425  1
  O  O383  1  0.63223693  0.24893142  0.26374261  1
  O  O384  1  0.61368654  0.25154115  0.76009338  1
  O  O385  1  0.60995935  0.76287958  0.23268278  1
  O  O386  1  0.63351399  0.76912598  0.74316329  1
  O  O387  1  0.36798357  0.23930568  0.23868615  1
  O  O388  1  0.38564108  0.24238214  0.74755422  1
  O  O389  1  0.37799498  0.74641782  0.24123845  1
  O  O390  1  0.37348405  0.74554921  0.74063372  1
  O  O391  1  0.88729767  0.24407406  0.24924753  1
  O  O392  1  0.88210260  0.24391337  0.74842054  1
  O  O393  1  0.88041955  0.74510154  0.24612532  1
  O  O394  1  0.87389925  0.73754371  0.74172816  1
  O  O395  1  0.36517675  0.48480689  0.48720620  1
  O  O396  1  0.38043887  0.49419657  0.98857284  1
  O  O397  1  0.38039758  0.99519162  0.49695666  1
  O  O398  1  0.38112473  0.99351258  1.00080329  1
  O  O399  1  0.87770358  0.49265128  0.48596842  1
  O  O400  1  0.86480418  0.49103771  0.99236583  1
  O  O401  1  0.87979264  0.99386219  0.49811324  1
  O  O402  1  0.88361027  0.99494179  0.99939441  1
  O  O403  1  0.11789126  -0.00757444  0.01247473  1
  O  O404  1  0.12535595  0.00911262  0.50288952  1
  O  O405  1  0.10995595  0.50892808  -0.05205979  1
  O  O406  1  0.16202211  0.50463823  0.50665407  1
  O  O407  1  0.61803133  0.00796572  0.00451916  1
  O  O408  1  0.62123493  0.00442092  0.50803559  1
  O  O409  1  0.61258398  0.49710068  0.01118738  1
  O  O410  1  0.62922521  0.50519886  0.51360575  1
  O  O411  1  0.36395756  0.36564481  0.11584657  1
  O  O412  1  0.37603637  0.38074889  0.61452286  1
  O  O413  1  0.36799403  0.86871056  0.11825849  1
  O  O414  1  0.37537761  0.86617209  0.62291461  1
  O  O415  1  0.88187231  0.36052335  0.12230297  1
  O  O416  1  0.86628665  0.37676572  0.61519559  1
  O  O417  1  0.86705970  0.87675892  0.12516379  1
  O  O418  1  0.87811086  0.87138776  0.62410696  1
  O  O419  1  0.12667671  0.12869376  0.38726151  1
  O  O420  1  0.13387022  0.13271633  0.86705817  1
  O  O421  1  0.13662958  0.63513706  0.36268433  1
  O  O422  1  0.13403273  0.64353228  0.86836435  1
  O  O423  1  0.63001578  0.13033765  0.38086320  1
  O  O424  1  0.62872947  0.13387269  0.88086837  1
  O  O425  1  0.57869824  0.62811924  0.38099718  1
  O  O426  1  0.62897553  0.63219502  0.86512134  1
