# generated using pymatgen
data_V85Zn86O256
_symmetry_space_group_name_H-M   'P 1'
_cell_length_a   16.97657524
_cell_length_b   16.96863861
_cell_length_c   16.97490270
_cell_angle_alpha   89.88649829
_cell_angle_beta   89.94464550
_cell_angle_gamma   89.73628135
_symmetry_Int_Tables_number   1
_chemical_formula_structural   V85Zn86O256
_chemical_formula_sum   'V85 Zn86 O256'
_cell_volume   4889.88589391
_cell_formula_units_Z   1
loop_
 _symmetry_equiv_pos_site_id
 _symmetry_equiv_pos_as_xyz
  1  'x, y, z'
loop_
 _atom_site_type_symbol
 _atom_site_label
 _atom_site_symmetry_multiplicity
 _atom_site_fract_x
 _atom_site_fract_y
 _atom_site_fract_z
 _atom_site_occupancy
  V  V0  1  0.73898313  0.63972498  0.38355106  1
  V  V1  1  0.12623769  0.74991815  0.37272183  1
  V  V2  1  0.13060136  0.88351392  0.23976823  1
  V  V3  1  0.38516685  0.12144338  0.23749018  1
  V  V4  1  0.36942600  0.49962617  0.87138243  1
  V  V5  1  0.00555831  0.26097353  0.75148166  1
  V  V6  1  0.87854787  0.49138023  0.87369199  1
  V  V7  1  0.25321551  0.49802530  0.25314161  1
  V  V8  1  0.50116360  0.00404735  0.00052541  1
  V  V9  1  0.49106475  0.38036324  0.37453709  1
  V  V10  1  0.87221794  0.87314870  0.49954246  1
  V  V11  1  0.87417820  0.25612239  0.62532537  1
  V  V12  1  0.12327439  0.62446848  0.49874732  1
  V  V13  1  0.24958516  0.87384300  0.62511626  1
  V  V14  1  0.49355253  0.87864236  0.87709147  1
  V  V15  1  0.00415238  0.12226086  0.12277573  1
  V  V16  1  0.24541795  0.37870978  0.64399330  1
  V  V17  1  0.75496249  0.49856011  0.26142352  1
  V  V18  1  0.74973574  -0.00777356  0.24920529  1
  V  V19  1  0.62793572  0.37331569  0.74517651  1
  V  V20  1  0.61862528  0.00581431  0.62824601  1
  V  V21  1  0.74670220  0.38344879  0.12409092  1
  V  V22  1  0.49128222  0.00965568  0.49412267  1
  V  V23  1  0.74642410  0.24385263  0.00099716  1
  V  V24  1  -0.00290006  0.49792042  0.49188509  1
  V  V25  1  0.75010285  0.75210817  0.00899118  1
  V  V26  1  0.24725220  0.73972515  -0.00238179  1
  V  V27  1  0.12180008  0.25594852  0.86765507  1
  V  V28  1  0.62587648  0.24159428  0.87829564  1
  V  V29  1  0.37193635  0.62186894  0.75050562  1
  V  V30  1  0.50394964  0.61983876  0.12337087  1
  V  V31  1  0.62542392  0.62210136  0.00108439  1
  V  V32  1  -0.00030043  0.62508263  0.12078407  1
  V  V33  1  0.87709722  -0.00163498  0.87578206  1
  V  V34  1  0.63108582  0.00017059  0.12120161  1
  V  V35  1  0.26709973  0.11830534  0.37538052  1
  V  V36  1  0.87818962  0.00089197  0.38107371  1
  V  V37  1  0.25567518  0.11407892  0.87209238  1
  V  V38  1  0.74857490  0.49606043  0.74337420  1
  V  V39  1  0.12766846  0.50496483  0.11741205  1
  V  V40  1  0.49440137  0.23896049  0.74371537  1
  V  V41  1  0.87517135  0.37721993  0.49309856  1
  V  V42  1  0.12544102  0.49752073  0.63590959  1
  V  V43  1  0.00278125  0.87899849  0.38068537  1
  V  V44  1  0.25684798  0.36421932  0.12341023  1
  V  V45  1  0.00151843  0.12368039  0.62028561  1
  V  V46  1  0.87136767  0.87333334  0.01026630  1
  V  V47  1  0.74906979  0.62307752  0.87631869  1
  V  V48  1  0.12456801  0.37075033  0.24744886  1
  V  V49  1  0.61869611  0.49640273  0.62146528  1
  V  V50  1  0.62545650  0.38114695  0.24881141  1
  V  V51  1  0.37127397  0.75287196  0.12457104  1
  V  V52  1  0.00208261  0.24992240  0.24823592  1
  V  V53  1  -0.00177897  0.62451680  0.62295031  1
  V  V54  1  0.87804420  0.61999131  0.25828492  1
  V  V55  1  0.49412153  0.49862722  0.49935479  1
  V  V56  1  0.00086317  0.49387257  -0.00354517  1
  V  V57  1  0.24857937  0.75040340  0.49965784  1
  V  V58  1  0.12340540  0.12296754  0.49484983  1
  V  V59  1  0.50667188  0.75039980  0.25352481  1
  V  V60  1  0.37402060  0.61961466  0.25326921  1
  V  V61  1  0.49777542  0.25194804  0.24518335  1
  V  V62  1  0.12224409  -0.00022792  0.62217447  1
  V  V63  1  0.00464349  -0.00151240  0.00521638  1
  V  V64  1  -0.00155204  0.74903397  0.75019861  1
  V  V65  1  0.12165220  0.87155915  0.75338344  1
  V  V66  1  0.62555129  0.87583908  0.75252675  1
  V  V67  1  0.74964859  0.12512488  0.37521757  1
  V  V68  1  0.87081364  0.75006367  0.62239088  1
  V  V69  1  0.62453451  0.75009492  0.87777252  1
  V  V70  1  0.49979906  0.37472464  0.87271477  1
  V  V71  1  0.49971420  0.74702168  0.75202500  1
  V  V72  1  0.25036888  0.25643799  0.49761692  1
  V  V73  1  0.87361890  0.62430837  0.74847347  1
  V  V74  1  0.37232504  0.74542732  0.62202040  1
  V  V75  1  0.74933445  0.87372671  0.62157082  1
  V  V76  1  0.62223020  0.12732403  0.50596832  1
  V  V77  1  0.74995374  0.25682182  0.50467050  1
  V  V78  1  0.37028858  0.87700706  0.00220027  1
  V  V79  1  0.87356860  0.25153529  0.12453779  1
  V  V80  1  0.87590850  0.12444502  0.75154828  1
  V  V81  1  0.25929731  -0.00268353  0.75450825  1
  V  V82  1  0.50508663  0.49851911  0.00121936  1
  V  V83  1  0.25430754  0.24675289  -0.00103417  1
  V  V84  1  0.55518597  0.67356792  0.56812345  1
  Zn  Zn85  1  0.37893117  0.36997873  0.00373723  1
  Zn  Zn86  1  0.24146394  0.61384026  0.87359574  1
  Zn  Zn87  1  0.87582192  0.12418990  0.25130429  1
  Zn  Zn88  1  -0.00143837  0.86999732  0.87780523  1
  Zn  Zn89  1  0.37793611  0.24356515  0.62501489  1
  Zn  Zn90  1  0.11793230  0.73960827  0.88484809  1
  Zn  Zn91  1  0.12702258  0.11869960  -0.00056556  1
  Zn  Zn92  1  0.87805330  0.37155915  -0.00563587  1
  Zn  Zn93  1  0.50894643  0.13801265  0.10606593  1
  Zn  Zn94  1  0.87224197  0.75042101  0.12957597  1
  Zn  Zn95  1  0.36874465  0.38089184  0.49931615  1
  Zn  Zn96  1  0.74803511  0.12153320  0.88045718  1
  Zn  Zn97  1  0.25277150  0.61889491  0.37746515  1
  Zn  Zn98  1  0.00031059  0.75087615  0.24733519  1
  Zn  Zn99  1  0.63352699  0.86695318  0.25428128  1
  Zn  Zn100  1  0.74972426  0.00092179  0.75188660  1
  Zn  Zn101  1  -0.00350677  0.37725362  0.36918660  1
  Zn  Zn102  1  0.26159647  -0.01055671  0.23791465  1
  Zn  Zn103  1  0.36877596  0.88688996  0.48949670  1
  Zn  Zn104  1  0.49866017  0.87767209  0.37283641  1
  Zn  Zn105  1  0.62487358  0.25281067  0.37629642  1
  Zn  Zn106  1  0.12525435  0.24715322  0.37122529  1
  Zn  Zn107  1  0.20848838  0.15451607  0.16881054  1
  Zn  Zn108  1  0.20659921  0.18228020  0.68099441  1
  Zn  Zn109  1  0.18794448  0.68899442  0.18662681  1
  Zn  Zn110  1  0.18647819  0.68312986  0.68921148  1
  Zn  Zn111  1  0.68266489  0.18661662  0.18759655  1
  Zn  Zn112  1  0.68897067  0.18928720  0.68949497  1
  Zn  Zn113  1  0.68795908  0.67763090  0.18983661  1
  Zn  Zn114  1  0.69124092  0.68921125  0.69148275  1
  Zn  Zn115  1  0.31198390  0.30607100  0.31133739  1
  Zn  Zn116  1  0.31223231  0.30789908  0.81882515  1
  Zn  Zn117  1  0.31570080  0.81360683  0.31236560  1
  Zn  Zn118  1  0.31174749  0.81009402  0.81340272  1
  Zn  Zn119  1  0.81215535  0.31099653  0.31308066  1
  Zn  Zn120  1  0.81166849  0.30991984  0.81089900  1
  Zn  Zn121  1  0.81625416  0.80794810  0.31313310  1
  Zn  Zn122  1  0.81136885  0.81338249  0.81488963  1
  Zn  Zn123  1  0.17925173  0.43831835  0.43572018  1
  Zn  Zn124  1  0.18570408  0.43205286  0.93769802  1
  Zn  Zn125  1  0.19031006  0.93993372  0.43364972  1
  Zn  Zn126  1  0.18680347  0.92981579  0.93897455  1
  Zn  Zn127  1  0.68274961  0.44011325  0.43579622  1
  Zn  Zn128  1  0.68957174  0.43295607  0.93465402  1
  Zn  Zn129  1  0.68200570  0.93345532  0.43498135  1
  Zn  Zn130  1  0.68852245  0.93653859  0.93886519  1
  Zn  Zn131  1  0.31528815  0.05901743  0.06123252  1
  Zn  Zn132  1  0.31084691  0.06997551  0.57227009  1
  Zn  Zn133  1  0.31785993  0.55812904  0.06369015  1
  Zn  Zn134  1  0.30916551  0.56265159  0.56564005  1
  Zn  Zn135  1  0.81635830  0.06229491  0.06498284  1
  Zn  Zn136  1  0.80974624  0.06226187  0.56372670  1
  Zn  Zn137  1  0.81702245  0.56256332  0.06313036  1
  Zn  Zn138  1  0.81036350  0.56147898  0.55944484  1
  Zn  Zn139  1  0.43678291  0.43619575  0.18651733  1
  Zn  Zn140  1  0.43333632  0.43353441  0.68552919  1
  Zn  Zn141  1  0.44253065  0.93837375  0.18202776  1
  Zn  Zn142  1  0.43833037  0.93418969  0.68339999  1
  Zn  Zn143  1  0.93601569  0.43914454  0.18376015  1
  Zn  Zn144  1  0.93849999  0.43954931  0.68220314  1
  Zn  Zn145  1  0.94010016  0.93793303  0.19346151  1
  Zn  Zn146  1  0.93838922  0.93793224  0.68645488  1
  Zn  Zn147  1  0.06260851  0.06308688  0.31053407  1
  Zn  Zn148  1  0.06662900  0.06684240  0.81382195  1
  Zn  Zn149  1  0.06592968  0.56125453  0.30789317  1
  Zn  Zn150  1  0.06080705  0.56366279  0.81597687  1
  Zn  Zn151  1  0.56729989  0.06104564  0.31326189  1
  Zn  Zn152  1  0.55870503  0.06067870  0.81346461  1
  Zn  Zn153  1  0.56471824  0.56250914  0.31435266  1
  Zn  Zn154  1  0.55948478  0.56309496  0.81183349  1
  Zn  Zn155  1  0.43988777  0.19609177  0.43710148  1
  Zn  Zn156  1  0.43416417  0.18472576  0.92637656  1
  Zn  Zn157  1  0.43175368  0.69096597  0.43114450  1
  Zn  Zn158  1  0.43485292  0.68649440  0.93588014  1
  Zn  Zn159  1  0.93756834  0.18977676  0.43658703  1
  Zn  Zn160  1  0.93848410  0.18751344  0.93742599  1
  Zn  Zn161  1  0.93542878  0.68942807  0.43612234  1
  Zn  Zn162  1  0.93535891  0.68263634  0.93759085  1
  Zn  Zn163  1  0.06872280  0.31037654  0.05965498  1
  Zn  Zn164  1  0.06531293  0.31278473  0.56415208  1
  Zn  Zn165  1  0.06105411  0.81314727  0.06233334  1
  Zn  Zn166  1  0.05984203  0.81278095  0.56204375  1
  Zn  Zn167  1  0.56707624  0.31549015  0.06278830  1
  Zn  Zn168  1  0.56033182  0.31514868  0.56259825  1
  Zn  Zn169  1  0.56406119  0.81585984  0.06904894  1
  Zn  Zn170  1  0.56254912  0.83461893  0.55817118  1
  O  O171  1  0.10577758  0.13581591  0.11719905  1
  O  O172  1  0.12053291  0.11882897  0.61752115  1
  O  O173  1  0.11650955  0.61272937  0.13232863  1
  O  O174  1  0.11895940  0.61873712  0.61805314  1
  O  O175  1  0.62045624  0.11005567  0.12918076  1
  O  O176  1  0.63553825  0.11711252  0.61669721  1
  O  O177  1  0.61129828  0.62506760  0.11799860  1
  O  O178  1  0.61848434  0.61817657  0.63003751  1
  O  O179  1  0.38792395  0.37409624  0.37139732  1
  O  O180  1  0.38700767  0.38085710  0.87428716  1
  O  O181  1  0.38569795  0.86646152  0.37985467  1
  O  O182  1  0.38718990  0.86856601  0.88361539  1
  O  O183  1  0.87836927  0.36892747  0.38812813  1
  O  O184  1  0.86999112  0.38744442  0.87292951  1
  O  O185  1  0.88168220  0.88042324  0.38165303  1
  O  O186  1  0.87593627  0.88380488  0.88335067  1
  O  O187  1  0.24864151  0.01659147  0.36791611  1
  O  O188  1  0.24380543  0.00605398  0.87175246  1
  O  O189  1  0.24029972  0.49986750  0.35705458  1
  O  O190  1  0.26589900  0.49445752  0.88368627  1
  O  O191  1  0.75705634  0.00769245  0.37059186  1
  O  O192  1  0.76190003  0.00275034  0.87525120  1
  O  O193  1  0.74978416  0.50350941  0.36440900  1
  O  O194  1  0.75517808  0.50346312  0.86482279  1
  O  O195  1  0.24408319  0.49075291  0.12952455  1
  O  O196  1  0.24094196  0.48683392  0.62014472  1
  O  O197  1  0.24067868  1.04545665  0.14173872  1
  O  O198  1  0.23815206  0.99326989  0.63466344  1
  O  O199  1  0.75673853  0.48799441  0.13277022  1
  O  O200  1  0.73836484  0.50702531  0.63722774  1
  O  O201  1  0.74107890  1.00662286  0.13340567  1
  O  O202  1  0.74121853  0.99153067  0.62791024  1
  O  O203  1  0.00693505  0.36840778  0.24495128  1
  O  O204  1  -0.00353350  0.35992531  0.74245693  1
  O  O205  1  0.00919835  0.87271272  0.26268924  1
  O  O206  1  0.00645416  0.86863219  0.74965776  1
  O  O207  1  0.50647263  0.37324310  0.25365039  1
  O  O208  1  0.51006295  0.37041772  0.75794063  1
  O  O209  1  0.49374784  0.85467725  0.24537488  1
  O  O210  1  0.50458067  0.86917370  0.75751958  1
  O  O211  1  0.49287529  0.13380355  0.25827964  1
  O  O212  1  0.50228224  0.13977465  0.75420706  1
  O  O213  1  0.49436671  0.62648977  0.24118226  1
  O  O214  1  0.48719595  0.63435915  0.75737269  1
  O  O215  1  0.99840421  0.13307027  0.24137115  1
  O  O216  1  0.99178323  0.13229605  0.74102456  1
  O  O217  1  0.99336757  0.62200147  0.24133275  1
  O  O218  1  0.99139067  0.62871178  0.74156016  1
  O  O219  1  0.35962701  0.25175730  -0.01322591  1
  O  O220  1  0.36272567  0.25272937  0.50386693  1
  O  O221  1  0.36964795  0.75538882  0.00646135  1
  O  O222  1  0.36761040  0.74564600  0.50936589  1
  O  O223  1  0.86848364  0.25315454  0.00706064  1
  O  O224  1  0.86991625  0.25560096  0.50712370  1
  O  O225  1  0.86693523  0.75589709  0.00097176  1
  O  O226  1  0.87852220  0.76444068  0.50608161  1
  O  O227  1  0.13159341  0.23995366  0.49673507  1
  O  O228  1  0.13448930  0.24743142  0.98693215  1
  O  O229  1  0.12815910  0.74532768  0.49356638  1
  O  O230  1  0.14422074  0.75795342  1.00351537  1
  O  O231  1  0.63339268  0.24457654  0.50343569  1
  O  O232  1  0.63330608  0.25496459  0.98956875  1
  O  O233  1  0.61073207  0.73756936  0.51660582  1
  O  O234  1  0.63124331  0.74526060  0.99744385  1
  O  O235  1  0.50871574  0.25127353  0.13806639  1
  O  O236  1  0.49773538  0.25504410  0.63898376  1
  O  O237  1  0.49066407  0.73841926  0.12842316  1
  O  O238  1  0.49568240  0.74428586  0.62525579  1
  O  O239  1  0.99121652  0.24655408  0.12859877  1
  O  O240  1  0.99502997  0.24121843  0.63126113  1
  O  O241  1  1.00062438  0.73547730  0.12408652  1
  O  O242  1  0.99157643  0.74410011  0.62908199  1
  O  O243  1  0.00067152  0.24963674  0.35941223  1
  O  O244  1  0.01266985  0.24421933  0.86782786  1
  O  O245  1  0.01064678  0.75940049  0.37509903  1
  O  O246  1  -0.00158091  0.74887333  0.86670133  1
  O  O247  1  0.50500043  0.26198921  0.36742065  1
  O  O248  1  0.50776314  0.25680046  0.86811565  1
  O  O249  1  0.50110574  0.73955079  0.35436295  1
  O  O250  1  0.50556147  0.75862877  0.87345480  1
  O  O251  1  0.24268686  0.13222000  0.48811173  1
  O  O252  1  0.24883903  0.12828901  0.98883489  1
  O  O253  1  0.24190967  0.63005044  0.49735644  1
  O  O254  1  0.25793281  0.63661983  0.99996966  1
  O  O255  1  0.74407351  0.13288352  0.49406347  1
  O  O256  1  0.75627572  0.13989479  1.00065323  1
  O  O257  1  0.75515211  0.61983338  0.48203963  1
  O  O258  1  0.74569942  0.62940058  0.99557672  1
  O  O259  1  0.25146352  0.36463906  0.00819030  1
  O  O260  1  0.25006043  0.36544421  0.48790966  1
  O  O261  1  0.26459653  0.86591110  -0.00467630  1
  O  O262  1  0.25041767  0.87052315  0.50666131  1
  O  O263  1  0.75045029  0.36609096  0.00892670  1
  O  O264  1  0.75620129  0.36367197  0.49337026  1
  O  O265  1  0.75880800  0.86317921  -0.00425787  1
  O  O266  1  0.75667066  0.88080524  0.51077185  1
  O  O267  1  0.13181451  0.49007959  0.23804548  1
  O  O268  1  0.11654123  0.50384868  0.73459329  1
  O  O269  1  0.12467693  0.98496663  0.25539034  1
  O  O270  1  0.12747944  0.98843972  0.74292833  1
  O  O271  1  0.63513344  0.48833307  0.25110788  1
  O  O272  1  0.62866415  0.49332850  0.74446868  1
  O  O273  1  0.63491918  1.00143180  0.24166320  1
  O  O274  1  0.62601425  0.99582949  0.74419613  1
  O  O275  1  0.38187699  0.01612003  0.24623267  1
  O  O276  1  0.35845607  -0.00995170  0.74423224  1
  O  O277  1  0.36466504  0.50781753  0.24110961  1
  O  O278  1  0.38418508  0.50862760  0.75964710  1
  O  O279  1  0.86728843  0.00284177  0.26107958  1
  O  O280  1  0.87744508  0.00762671  0.75790656  1
  O  O281  1  0.86744461  0.50698813  0.24731482  1
  O  O282  1  0.86765600  0.50271012  0.75199880  1
  O  O283  1  0.12109746  0.37145456  0.35772353  1
  O  O284  1  0.13238526  0.35541670  0.87249221  1
  O  O285  1  0.11859248  0.86897302  0.37321826  1
  O  O286  1  0.12169500  0.86675661  0.86340404  1
  O  O287  1  0.61620626  0.37415833  0.36520760  1
  O  O288  1  0.61747001  0.36656011  0.86575319  1
  O  O289  1  0.61148997  0.88452100  0.36550353  1
  O  O290  1  0.61767363  0.86915281  0.87158522  1
  O  O291  1  0.38791119  0.13031559  0.13666893  1
  O  O292  1  0.31693773  0.15182789  0.64406875  1
  O  O293  1  0.38499754  0.63051882  0.13106030  1
  O  O294  1  0.37047016  0.63649879  0.63352921  1
  O  O295  1  0.88188643  0.13760731  0.12768230  1
  O  O296  1  0.88313866  0.13132508  0.62919444  1
  O  O297  1  0.88419866  0.62401170  0.13520219  1
  O  O298  1  0.87707783  0.62959511  0.62864956  1
  O  O299  1  0.24199317  0.25347335  0.11247097  1
  O  O300  1  0.23356917  0.27465553  0.61189631  1
  O  O301  1  0.26270100  0.74325900  0.11473110  1
  O  O302  1  0.25452458  0.75424449  0.61996302  1
  O  O303  1  0.75573842  0.25582729  0.12058741  1
  O  O304  1  0.76225435  0.24333382  0.61536830  1
  O  O305  1  0.74972936  0.74049915  0.11202431  1
  O  O306  1  0.75473809  0.76404337  0.63112818  1
  O  O307  1  0.24676977  0.23896328  0.38192705  1
  O  O308  1  0.23978204  0.23697524  0.87615876  1
  O  O309  1  0.23856777  0.74895382  0.38059767  1
  O  O310  1  0.25314709  0.74701968  0.89048439  1
  O  O311  1  0.75084873  0.24045098  0.38515940  1
  O  O312  1  0.74293974  0.25053466  0.88315611  1
  O  O313  1  0.74856155  0.73969590  0.37212599  1
  O  O314  1  0.74453113  0.74295145  0.88353912  1
  O  O315  1  -0.00415297  0.11448221  0.00702296  1
  O  O316  1  0.00908642  0.13296286  0.51024230  1
  O  O317  1  -0.00804448  0.61051787  0.01121784  1
  O  O318  1  0.00141700  0.61809812  0.50389628  1
  O  O319  1  0.49161218  0.11023985  -0.00778001  1
  O  O320  1  0.51166822  0.12336215  0.50019785  1
  O  O321  1  0.50409154  0.61801554  0.00437280  1
  O  O322  1  0.49968997  0.61914864  0.50027220  1
  O  O323  1  0.49570520  0.38064953  0.49170619  1
  O  O324  1  0.50170552  0.37982961  0.99069505  1
  O  O325  1  0.49382704  0.89817243  0.49943190  1
  O  O326  1  0.49406915  0.88012560  0.99405991  1
  O  O327  1  0.99432999  0.38020766  0.49738584  1
  O  O328  1  0.99732650  0.38856319  1.00851744  1
  O  O329  1  0.99104499  0.87540221  0.48973488  1
  O  O330  1  0.99008384  0.88066346  0.99827961  1
  O  O331  1  0.50818091  0.49254426  0.38734683  1
  O  O332  1  0.49464743  0.49096982  0.88050762  1
  O  O333  1  0.49824241  1.01040302  0.39290152  1
  O  O334  1  0.50838755  0.98685007  0.88479364  1
  O  O335  1  1.00609574  0.49936957  0.38785535  1
  O  O336  1  0.98897092  0.50448216  0.88330096  1
  O  O337  1  0.98810216  0.99302634  0.36978756  1
  O  O338  1  0.98908756  1.00020562  0.88347059  1
  O  O339  1  -0.01176176  0.01105688  0.11721661  1
  O  O340  1  0.01044991  0.01179584  0.63069168  1
  O  O341  1  0.00812472  0.50531848  0.11832376  1
  O  O342  1  0.00638647  0.50521529  0.61440263  1
  O  O343  1  0.51132118  0.00438130  0.11539432  1
  O  O344  1  0.51307537  -0.00159570  0.62067511  1
  O  O345  1  0.49289232  0.50724982  0.11257141  1
  O  O346  1  0.50886722  0.49423373  0.61783576  1
  O  O347  1  0.24448436  0.37630957  0.24250822  1
  O  O348  1  0.24902992  0.36993370  0.74199651  1
  O  O349  1  0.23705691  0.87579296  0.25349916  1
  O  O350  1  0.24019166  0.87747809  0.74662609  1
  O  O351  1  0.74548211  0.37973134  0.24601586  1
  O  O352  1  0.73893179  0.38363605  0.75505179  1
  O  O353  1  0.75387850  0.88857037  0.25623270  1
  O  O354  1  0.74409853  0.87789074  0.74249675  1
  O  O355  1  0.27324334  0.13877177  0.26605432  1
  O  O356  1  0.23339102  0.10869250  0.76727966  1
  O  O357  1  0.25716108  0.61506296  0.24666802  1
  O  O358  1  0.26677790  0.63187458  0.75380098  1
  O  O359  1  0.75116738  0.12022023  0.26276061  1
  O  O360  1  0.76624243  0.12515524  0.75078989  1
  O  O361  1  0.75771193  0.61611369  0.25696389  1
  O  O362  1  0.75365823  0.61575961  0.75610686  1
  O  O363  1  0.36826442  0.12391851  0.37991796  1
  O  O364  1  0.35454719  0.12482215  0.87020737  1
  O  O365  1  0.37070756  0.62744186  0.35800862  1
  O  O366  1  0.37266968  0.61533333  0.86934240  1
  O  O367  1  0.86719525  0.11729064  0.37858763  1
  O  O368  1  0.87588200  0.11781059  0.86659639  1
  O  O369  1  0.86875437  0.62956692  0.36296839  1
  O  O370  1  0.86816151  0.61336038  0.86769514  1
  O  O371  1  0.13477571  0.38108277  0.13137944  1
  O  O372  1  0.13403036  0.38572967  0.62056073  1
  O  O373  1  0.11755464  0.87229536  0.14192519  1
  O  O374  1  0.12703216  0.88201838  0.63010880  1
  O  O375  1  0.63697931  0.37120974  0.13579409  1
  O  O376  1  0.62301397  0.38167200  0.63652540  1
  O  O377  1  0.61996815  0.89266758  0.13527610  1
  O  O378  1  0.63207075  0.88510591  0.63172077  1
  O  O379  1  0.11461342  0.25773766  0.24402985  1
  O  O380  1  0.11960503  0.23948023  0.75980632  1
  O  O381  1  0.12509623  0.75862374  0.25898397  1
  O  O382  1  0.11731018  0.76039591  0.74300451  1
  O  O383  1  0.61894429  0.26059566  0.25428185  1
  O  O384  1  0.61898649  0.25661444  0.75509683  1
  O  O385  1  0.60947686  0.74846540  0.23601828  1
  O  O386  1  0.61926168  0.75498539  0.75655905  1
  O  O387  1  0.38967132  0.24013213  0.25578214  1
  O  O388  1  0.39380690  0.25727338  0.75527809  1
  O  O389  1  0.38120150  0.73928016  0.24004654  1
  O  O390  1  0.38098995  0.74631988  0.74118975  1
  O  O391  1  0.88328949  0.25005428  0.24126431  1
  O  O392  1  0.88185051  0.24375232  0.74386121  1
  O  O393  1  0.88015790  0.73919813  0.24594529  1
  O  O394  1  0.87758629  0.74431125  0.74407797  1
  O  O395  1  0.38940041  0.50089810  0.50806706  1
  O  O396  1  0.38877017  0.49667350  0.99049484  1
  O  O397  1  0.38865024  1.00995095  0.51546385  1
  O  O398  1  0.38668190  0.98705087  1.00981368  1
  O  O399  1  0.88484301  0.48662683  0.51090322  1
  O  O400  1  0.87991273  0.49595690  0.98993379  1
  O  O401  1  0.86921683  0.99024337  0.49009305  1
  O  O402  1  0.87949247  0.99210007  0.99474968  1
  O  O403  1  0.10779144  -0.00568378  -0.00460538  1
  O  O404  1  0.13267125  0.01033920  0.51112063  1
  O  O405  1  0.11830340  0.49346697  0.00957604  1
  O  O406  1  0.11534373  0.50585207  0.50612668  1
  O  O407  1  0.61972136  -0.00579513  0.01257191  1
  O  O408  1  0.61598865  0.00973179  0.50867191  1
  O  O409  1  0.61282582  0.50414016  -0.01022630  1
  O  O410  1  0.61635309  0.49407193  0.51356358  1
  O  O411  1  0.36119693  0.37540851  0.12381036  1
  O  O412  1  0.35601268  0.37185188  0.62327362  1
  O  O413  1  0.38180589  0.86282063  0.11586940  1
  O  O414  1  0.36943414  0.85997821  0.62260879  1
  O  O415  1  0.86541344  0.36448617  0.12510215  1
  O  O416  1  0.87960168  0.36123614  0.61542643  1
  O  O417  1  0.88044595  0.87284111  0.11414050  1
  O  O418  1  0.86873254  0.87370800  0.61831044  1
  O  O419  1  0.12923240  0.12459568  0.38287792  1
  O  O420  1  0.13166738  0.13223119  0.88183304  1
  O  O421  1  0.12463048  0.63532382  0.37811678  1
  O  O422  1  0.13074798  0.62872777  0.86947178  1
  O  O423  1  0.63546326  0.12568534  0.38750085  1
  O  O424  1  0.62882049  0.13799789  0.86769758  1
  O  O425  1  0.64006580  0.62422836  0.37020981  1
  O  O426  1  0.62893317  0.63026034  0.88055249  1
