# generated using pymatgen
data_V85Zn86O256
_symmetry_space_group_name_H-M   'P 1'
_cell_length_a   16.97475730
_cell_length_b   16.95305905
_cell_length_c   16.98715292
_cell_angle_alpha   89.98857496
_cell_angle_beta   90.07903547
_cell_angle_gamma   90.02777351
_symmetry_Int_Tables_number   1
_chemical_formula_structural   V85Zn86O256
_chemical_formula_sum   'V85 Zn86 O256'
_cell_volume   4888.45668987
_cell_formula_units_Z   1
loop_
 _symmetry_equiv_pos_site_id
 _symmetry_equiv_pos_as_xyz
  1  'x, y, z'
loop_
 _atom_site_type_symbol
 _atom_site_label
 _atom_site_symmetry_multiplicity
 _atom_site_fract_x
 _atom_site_fract_y
 _atom_site_fract_z
 _atom_site_occupancy
  V  V0  1  0.12439830  0.62291975  0.00333054  1
  V  V1  1  0.24315937  0.49960083  0.24573888  1
  V  V2  1  0.61651180  0.36762832  0.74799513  1
  V  V3  1  0.00038224  0.49810983  0.00198103  1
  V  V4  1  0.50650753  0.75059234  0.75211894  1
  V  V5  1  0.49611722  0.12711173  0.12559447  1
  V  V6  1  -0.00469520  -0.00443365  0.00668805  1
  V  V7  1  0.87552888  0.24915283  0.62552420  1
  V  V8  1  0.49888139  0.49990995  -0.00150265  1
  V  V9  1  0.37499268  0.37786984  0.50169029  1
  V  V10  1  0.00402984  0.11114213  0.62354087  1
  V  V11  1  0.37506004  0.62536591  0.24897614  1
  V  V12  1  0.74988453  0.13089532  0.88395990  1
  V  V13  1  0.13276088  0.87749282  0.74072063  1
  V  V14  1  0.00195411  0.24821777  0.74863209  1
  V  V15  1  0.13844053  0.24536082  0.87750193  1
  V  V16  1  0.00018739  0.50088841  0.50019711  1
  V  V17  1  0.24779119  0.88062753  0.12501871  1
  V  V18  1  0.37396539  0.87241309  0.00029745  1
  V  V19  1  0.24874405  0.62590974  0.87523878  1
  V  V20  1  0.87411882  0.75368889  0.12122549  1
  V  V21  1  0.24891238  0.49996729  0.74735907  1
  V  V22  1  0.38017903  0.87612787  0.49219982  1
  V  V23  1  0.50087608  -0.00220060  0.49060757  1
  V  V24  1  0.37419176  0.25031152  0.13324494  1
  V  V25  1  0.88083239  0.63073268  0.74577096  1
  V  V26  1  0.00040796  0.37260673  0.87528975  1
  V  V27  1  0.37100959  0.75812494  0.62491708  1
  V  V28  1  0.12093318  0.11292481  0.50451791  1
  V  V29  1  0.36686592  0.25627449  0.62966834  1
  V  V30  1  0.62789743  0.12543641  0.49773216  1
  V  V31  1  0.49682129  0.13395382  0.63246436  1
  V  V32  1  0.62648301  0.49168192  0.12812341  1
  V  V33  1  0.36903232  0.36835590  -0.00103202  1
  V  V34  1  0.38294857  0.50139809  0.38014345  1
  V  V35  1  0.74894351  0.62488519  0.37385651  1
  V  V36  1  0.49795950  0.62178308  0.62026233  1
  V  V37  1  0.37509638  0.50044997  0.87504585  1
  V  V38  1  0.50660436  0.87200910  0.87360731  1
  V  V39  1  0.75527365  0.75553541  0.50479852  1
  V  V40  1  0.00435482  0.37257697  0.37427101  1
  V  V41  1  -0.00150928  0.88190969  0.39252353  1
  V  V42  1  0.50493958  0.00317173  -0.00103858  1
  V  V43  1  0.24959607  0.75734296  0.50117255  1
  V  V44  1  0.11838352  0.88110728  0.24173646  1
  V  V45  1  0.87655964  0.12195427  0.75230055  1
  V  V46  1  0.62042776  0.62074007  0.49866192  1
  V  V47  1  0.87365000  0.50028672  0.37450626  1
  V  V48  1  0.36661950  0.00431811  0.87446374  1
  V  V49  1  0.87373566  0.49639905  0.87682283  1
  V  V50  1  0.49963755  0.62545330  0.12544513  1
  V  V51  1  0.87462463  0.37420222  0.50071928  1
  V  V52  1  0.00070894  0.62193239  0.12532106  1
  V  V53  1  0.13820854  0.12112678  -0.00406861  1
  V  V54  1  0.61765648  0.24583452  0.87641963  1
  V  V55  1  0.74837699  0.49824137  0.74969207  1
  V  V56  1  0.74853192  0.37399604  0.62497831  1
  V  V57  1  0.25188078  0.00249186  0.73309801  1
  V  V58  1  0.62066972  -0.00381488  0.62985061  1
  V  V59  1  0.74827367  0.87552779  0.13285231  1
  V  V60  1  0.24953391  0.62596317  0.37426423  1
  V  V61  1  0.62115477  0.49841597  0.62254203  1
  V  V62  1  0.62100271  0.75746599  0.37416894  1
  V  V63  1  0.74810923  -0.00040209  0.75160641  1
  V  V64  1  0.87267119  0.62476669  0.24853465  1
  V  V65  1  0.74949732  0.24518749  0.49287380  1
  V  V66  1  0.50077832  0.75790487  0.25262467  1
  V  V67  1  0.00960190  0.12206752  0.12732731  1
  V  V68  1  0.75013801  0.75506639  -0.00078235  1
  V  V69  1  0.74499122  0.48746518  0.24847548  1
  V  V70  1  0.74575539  0.62953489  0.87439206  1
  V  V71  1  0.37372277  0.62653870  0.74948771  1
  V  V72  1  0.86656598  -0.00180288  0.38654187  1
  V  V73  1  0.24282828  0.37415297  0.12300379  1
  V  V74  1  0.63252699  0.00209951  0.12733818  1
  V  V75  1  0.50015147  0.36479852  0.36436551  1
  V  V76  1  0.87052333  0.11257953  0.25191547  1
  V  V77  1  0.12218685  0.75121954  0.86997361  1
  V  V78  1  -0.00171476  0.87666807  0.87398756  1
  V  V79  1  0.12941710  0.37325410  0.74604891  1
  V  V80  1  0.12908697  0.49588168  0.62356221  1
  V  V81  1  -0.00212100  0.24813865  0.24567817  1
  V  V82  1  0.12534254  0.62557971  0.49981629  1
  V  V83  1  0.25274118  0.12384104  0.37681393  1
  V  V84  1  0.62494714  0.62845317  -0.00274184  1
  Zn  Zn85  1  -0.00083901  0.75067249  0.25274588  1
  Zn  Zn86  1  0.62936724  0.86804734  0.75445833  1
  Zn  Zn87  1  0.12649357  0.24894292  0.37630169  1
  Zn  Zn88  1  0.62154654  0.88785821  0.25868730  1
  Zn  Zn89  1  0.38067878  -0.00455669  0.36803749  1
  Zn  Zn90  1  0.62794863  0.25912768  0.36828763  1
  Zn  Zn91  1  0.86859769  -0.00536678  0.88283454  1
  Zn  Zn92  1  0.37328389  0.12487375  0.25279815  1
  Zn  Zn93  1  0.87085469  0.35646202  0.00881111  1
  Zn  Zn94  1  0.24771988  0.00290797  0.24702904  1
  Zn  Zn95  1  0.12032067  0.37717160  0.24169640  1
  Zn  Zn96  1  0.74927109  0.35712365  0.11562587  1
  Zn  Zn97  1  0.37449910  0.75009780  0.12601921  1
  Zn  Zn98  1  0.37052495  0.13557106  0.76079083  1
  Zn  Zn99  1  0.24423780  0.25695909  0.50270330  1
  Zn  Zn100  1  0.12194291  0.75232409  0.37440468  1
  Zn  Zn101  1  0.75626320  0.87956593  0.62202174  1
  Zn  Zn102  1  0.88942525  0.76487176  0.62285197  1
  Zn  Zn103  1  0.24955680  0.74945530  0.00191159  1
  Zn  Zn104  1  0.49520062  0.36826386  0.87107285  1
  Zn  Zn105  1  0.67164859  0.17434100  0.04003096  1
  Zn  Zn106  1  0.00289646  0.62784248  0.62873013  1
  Zn  Zn107  1  0.18604103  0.19332022  0.18754555  1
  Zn  Zn108  1  0.18789599  0.18326427  0.68868111  1
  Zn  Zn109  1  0.18743671  0.69532407  0.18869564  1
  Zn  Zn110  1  0.18570406  0.68829098  0.68566138  1
  Zn  Zn111  1  0.69271062  0.19503943  0.20580212  1
  Zn  Zn112  1  0.68738280  0.18702142  0.68777141  1
  Zn  Zn113  1  0.68542720  0.68478337  0.18772535  1
  Zn  Zn114  1  0.68896513  0.68376512  0.68563142  1
  Zn  Zn115  1  0.31170771  0.31327025  0.31309471  1
  Zn  Zn116  1  0.31298228  0.31444140  0.81016633  1
  Zn  Zn117  1  0.30986161  0.81243859  0.31072264  1
  Zn  Zn118  1  0.31207974  0.81486116  0.81388779  1
  Zn  Zn119  1  0.82052753  0.30897586  0.30941434  1
  Zn  Zn120  1  0.80899872  0.31036979  0.81559265  1
  Zn  Zn121  1  0.81414671  0.81459408  0.31431136  1
  Zn  Zn122  1  0.81386319  0.81213468  0.81122965  1
  Zn  Zn123  1  0.19241552  0.44002554  0.43661408  1
  Zn  Zn124  1  0.18660490  0.43689350  0.93580091  1
  Zn  Zn125  1  0.18596046  0.93695140  0.43562005  1
  Zn  Zn126  1  0.18542886  0.93884229  0.93751371  1
  Zn  Zn127  1  0.68502277  0.43601322  0.43644317  1
  Zn  Zn128  1  0.68628542  0.43314266  0.93773112  1
  Zn  Zn129  1  0.68735495  0.94138903  0.43894145  1
  Zn  Zn130  1  0.68921194  0.94051267  0.94080291  1
  Zn  Zn131  1  0.31503760  0.06049118  0.06072424  1
  Zn  Zn132  1  0.31424348  0.06442210  0.55795315  1
  Zn  Zn133  1  0.31187714  0.55951785  0.06318035  1
  Zn  Zn134  1  0.31105273  0.56478122  0.56112188  1
  Zn  Zn135  1  0.83782678  0.19420624  0.07715642  1
  Zn  Zn136  1  0.81361009  0.06111987  0.56587483  1
  Zn  Zn137  1  0.81078829  0.55860227  0.06283171  1
  Zn  Zn138  1  0.80848392  0.56291070  0.56096453  1
  Zn  Zn139  1  0.43442208  0.43866486  0.18765702  1
  Zn  Zn140  1  0.43600147  0.43835405  0.68701037  1
  Zn  Zn141  1  0.43504287  0.94272733  0.18772317  1
  Zn  Zn142  1  0.43692832  0.93866886  0.68691379  1
  Zn  Zn143  1  0.92908030  0.43313889  0.18475897  1
  Zn  Zn144  1  0.93969862  0.43941305  0.68786450  1
  Zn  Zn145  1  0.93439357  0.93911165  0.18439153  1
  Zn  Zn146  1  0.94005885  0.93187351  0.69209739  1
  Zn  Zn147  1  0.06315472  0.05935908  0.31785351  1
  Zn  Zn148  1  0.06807289  0.05817272  0.81435714  1
  Zn  Zn149  1  0.06206963  0.56304259  0.31345925  1
  Zn  Zn150  1  0.06231447  0.56043043  0.81431327  1
  Zn  Zn151  1  0.57972352  0.09314416  0.29659057  1
  Zn  Zn152  1  0.55906083  0.06366046  0.81529298  1
  Zn  Zn153  1  0.56196304  0.56344767  0.31109756  1
  Zn  Zn154  1  0.56126131  0.56007876  0.81019293  1
  Zn  Zn155  1  0.43683630  0.18854055  0.44607859  1
  Zn  Zn156  1  0.43754473  0.18744405  0.93999289  1
  Zn  Zn157  1  0.43631537  0.68990295  0.43529561  1
  Zn  Zn158  1  0.43849904  0.68805069  0.93624275  1
  Zn  Zn159  1  0.93835608  0.18349964  0.43604921  1
  Zn  Zn160  1  0.95109317  0.18055649  0.93252278  1
  Zn  Zn161  1  0.93988317  0.69015521  0.43659986  1
  Zn  Zn162  1  0.93575268  0.68849367  0.93600132  1
  Zn  Zn163  1  0.06021944  0.30590066  0.05897262  1
  Zn  Zn164  1  0.06323530  0.30611889  0.56101047  1
  Zn  Zn165  1  0.06257725  0.80929131  0.06009951  1
  Zn  Zn166  1  0.06244837  0.80990179  0.56515993  1
  Zn  Zn167  1  0.55469580  0.31503304  0.06192924  1
  Zn  Zn168  1  0.55819589  0.31420594  0.55424357  1
  Zn  Zn169  1  0.56244734  0.81412356  0.06484563  1
  Zn  Zn170  1  0.56286772  0.81203219  0.56232361  1
  O  O171  1  0.11904960  0.13136465  0.11065394  1
  O  O172  1  0.11819091  0.12907564  0.61399935  1
  O  O173  1  0.11337693  0.63426220  0.11414167  1
  O  O174  1  0.12434236  0.61420001  0.61955127  1
  O  O175  1  0.61542852  0.11210989  0.11988673  1
  O  O176  1  0.61386422  0.11890644  0.62203078  1
  O  O177  1  0.61982124  0.61595823  0.11550388  1
  O  O178  1  0.61674415  0.62007993  0.61783107  1
  O  O179  1  0.38217817  0.38229438  0.37976907  1
  O  O180  1  0.37421163  0.38109092  0.88130576  1
  O  O181  1  0.37265998  0.87515894  0.38810603  1
  O  O182  1  0.38383859  0.88187536  0.88249079  1
  O  O183  1  0.88435968  0.38040724  0.38059267  1
  O  O184  1  0.88104600  0.38539041  0.87001858  1
  O  O185  1  0.88841908  0.88474271  0.37003993  1
  O  O186  1  0.89411832  0.87450610  0.86769955  1
  O  O187  1  0.25184702  0.01426636  0.37682691  1
  O  O188  1  0.26415762  -0.00633159  0.87260906  1
  O  O189  1  0.25941842  0.50638262  0.36560234  1
  O  O190  1  0.25426652  0.50646966  0.86749848  1
  O  O191  1  0.76675407  -0.01129302  0.37307797  1
  O  O192  1  0.74917296  0.00875917  0.86798293  1
  O  O193  1  0.75288584  0.50370900  0.36826908  1
  O  O194  1  0.75714338  0.50877175  0.87046440  1
  O  O195  1  0.25837148  0.48899711  0.13673806  1
  O  O196  1  0.23787917  0.50517163  0.63093039  1
  O  O197  1  0.25392631  0.98505444  0.12490977  1
  O  O198  1  0.25855961  0.99698781  0.63448191  1
  O  O199  1  0.74080666  0.50378703  0.13528154  1
  O  O200  1  0.74172733  0.49338015  0.62901197  1
  O  O201  1  0.73347643  0.99064559  0.11841274  1
  O  O202  1  0.73884568  1.00305851  0.63552202  1
  O  O203  1  -0.00212084  0.36887084  0.25739882  1
  O  O204  1  0.01006080  0.37018437  0.75455815  1
  O  O205  1  0.01197467  0.87378260  0.24445878  1
  O  O206  1  0.01960524  0.88697772  0.76680630  1
  O  O207  1  0.49195198  0.37610638  0.26470163  1
  O  O208  1  0.51223860  0.38131899  0.75164443  1
  O  O209  1  0.50064032  0.86148194  0.24332984  1
  O  O210  1  0.50021122  0.86765705  0.75659058  1
  O  O211  1  0.48819939  0.11047101  0.22754400  1
  O  O212  1  0.49409003  0.11817394  0.73456983  1
  O  O213  1  0.49414002  0.63203730  0.24408750  1
  O  O214  1  0.49428647  0.63243503  0.74276226  1
  O  O215  1  1.00628476  0.12903347  0.24354460  1
  O  O216  1  0.99525469  0.12719389  0.74567848  1
  O  O217  1  0.99394509  0.62426272  0.24034015  1
  O  O218  1  0.98376496  0.61926574  0.75362083  1
  O  O219  1  0.37732677  0.26362168  0.00358851  1
  O  O220  1  0.37190407  0.25724892  0.51435800  1
  O  O221  1  0.37453301  0.76166946  -0.00074321  1
  O  O222  1  0.37069468  0.75660221  0.50577539  1
  O  O223  1  0.88575091  0.24586239  -0.00726928  1
  O  O224  1  0.86907905  0.25281823  0.50524699  1
  O  O225  1  0.86267128  0.74182855  0.01022902  1
  O  O226  1  0.85681019  0.74027645  0.50047959  1
  O  O227  1  0.12852750  0.24031940  0.49646394  1
  O  O228  1  0.11785897  0.23536450  0.98800480  1
  O  O229  1  0.13649423  0.74524161  0.49966255  1
  O  O230  1  0.12603041  0.73852145  0.98952323  1
  O  O231  1  0.63183587  0.24250951  0.49636376  1
  O  O232  1  0.61887613  0.25620963  0.98171218  1
  O  O233  1  0.63022700  0.74105933  0.49337334  1
  O  O234  1  0.63295435  0.73621546  1.00670900  1
  O  O235  1  0.49002657  0.23798731  0.11571469  1
  O  O236  1  0.49497864  0.23801392  0.62172988  1
  O  O237  1  0.50007962  0.74252190  0.13361413  1
  O  O238  1  0.49150079  0.74218218  0.63201852  1
  O  O239  1  1.00409765  0.23913260  0.13575133  1
  O  O240  1  0.99347022  0.24153314  0.63153906  1
  O  O241  1  0.98900868  0.74016900  0.12103317  1
  O  O242  1  0.99698152  0.73856952  0.61803139  1
  O  O243  1  -0.00034538  0.26021404  0.36966456  1
  O  O244  1  0.01148435  0.25438155  0.86445832  1
  O  O245  1  -0.00183092  0.76594976  0.37259701  1
  O  O246  1  0.00913567  0.76372043  0.88301608  1
  O  O247  1  0.49446687  0.26237525  0.37841580  1
  O  O248  1  0.51243067  0.24649188  0.87040524  1
  O  O249  1  0.51003722  0.74366559  0.36550782  1
  O  O250  1  0.49272928  0.75835847  0.86252244  1
  O  O251  1  0.24056996  0.12745269  0.49254659  1
  O  O252  1  0.23691936  0.12004392  1.00201547  1
  O  O253  1  0.24542861  0.63360006  0.49354744  1
  O  O254  1  0.23960930  0.62197297  0.99524059  1
  O  O255  1  0.74168651  0.13741769  0.51467477  1
  O  O256  1  0.75681788  0.12050917  0.98488860  1
  O  O257  1  0.73889690  0.63249718  0.49481346  1
  O  O258  1  0.74321018  0.63013083  0.99327528  1
  O  O259  1  0.26015329  0.38691306  0.00915866  1
  O  O260  1  0.26658439  0.37327307  0.49229852  1
  O  O261  1  0.25800013  0.87510360  0.00535501  1
  O  O262  1  0.25758928  0.86379729  0.49615550  1
  O  O263  1  0.75984182  0.38548125  0.00311009  1
  O  O264  1  0.75437072  0.36786431  0.50608295  1
  O  O265  1  0.74164461  0.86149304  0.00885623  1
  O  O266  1  0.74330513  0.85825661  0.50086536  1
  O  O267  1  0.13845231  0.49880384  0.25439570  1
  O  O268  1  0.12734624  0.49321212  0.74368983  1
  O  O269  1  0.12742815  0.98441409  0.25247847  1
  O  O270  1  0.14218636  0.99024079  0.75540406  1
  O  O271  1  0.63348600  0.50727340  0.23994697  1
  O  O272  1  0.62974106  0.49229005  0.74301722  1
  O  O273  1  0.61750549  1.00226766  0.23176780  1
  O  O274  1  0.63153912  1.00305247  0.74391670  1
  O  O275  1  0.36644480  0.00389488  0.25395273  1
  O  O276  1  0.36365779  -0.00472428  0.75664174  1
  O  O277  1  0.36616461  0.50681610  0.25852739  1
  O  O278  1  0.36879101  0.50617313  0.75364987  1
  O  O279  1  0.88292306  0.00824977  0.25783275  1
  O  O280  1  0.86529659  0.00897493  0.75229421  1
  O  O281  1  0.86470690  0.50542860  0.25506554  1
  O  O282  1  0.86896217  0.50553300  0.75919679  1
  O  O283  1  0.11104177  0.37839873  0.37605960  1
  O  O284  1  0.11999876  0.36829816  0.86728787  1
  O  O285  1  0.11281444  0.87566424  0.36571037  1
  O  O286  1  0.12083081  0.86635391  0.87083291  1
  O  O287  1  0.60536032  0.37585276  0.38211221  1
  O  O288  1  0.62346317  0.36398540  0.86539368  1
  O  O289  1  0.62927568  0.86237370  0.37406576  1
  O  O290  1  0.61026910  0.87994739  0.87533910  1
  O  O291  1  0.37745518  0.13577447  0.12039884  1
  O  O292  1  0.38591408  0.13594848  0.62171150  1
  O  O293  1  0.38181223  0.62550100  0.12998855  1
  O  O294  1  0.38165112  0.63296201  0.62834340  1
  O  O295  1  0.89563645  0.12043633  0.14236400  1
  O  O296  1  0.88242358  0.12848024  0.63489052  1
  O  O297  1  0.88099546  0.63181403  0.12840988  1
  O  O298  1  0.87179613  0.61776016  0.64122014  1
  O  O299  1  0.26022874  0.26265749  0.12813450  1
  O  O300  1  0.26460294  0.24453630  0.62475985  1
  O  O301  1  0.25460214  0.76230180  0.12099539  1
  O  O302  1  0.26154486  0.74193910  0.61419807  1
  O  O303  1  0.73807278  0.23816567  0.11510850  1
  O  O304  1  0.75598835  0.25584086  0.61882817  1
  O  O305  1  0.75461800  0.75380225  0.11828416  1
  O  O306  1  0.74682382  0.74868700  0.61097859  1
  O  O307  1  0.24851252  0.23756549  0.37653401  1
  O  O308  1  0.23790605  0.25134095  0.86915663  1
  O  O309  1  0.25045625  0.74336132  0.38530615  1
  O  O310  1  0.24147776  0.74379751  0.87803631  1
  O  O311  1  0.75123684  0.25782299  0.38974838  1
  O  O312  1  0.73676513  0.24017371  0.86870261  1
  O  O313  1  0.74228817  0.74467309  0.38329816  1
  O  O314  1  0.75666712  0.73893655  0.88416166  1
  O  O315  1  0.00778028  0.11134749  0.00796521  1
  O  O316  1  0.01241333  0.12761983  0.50786848  1
  O  O317  1  0.00527104  0.61909568  0.00449088  1
  O  O318  1  0.00768172  0.61565190  0.49537905  1
  O  O319  1  0.49420994  0.11120894  0.00759816  1
  O  O320  1  0.50723529  0.11791787  0.51260306  1
  O  O321  1  0.50700953  0.62164582  0.00322615  1
  O  O322  1  0.50825527  0.63457244  0.51000789  1
  O  O323  1  0.48352619  0.37492250  0.48984717  1
  O  O324  1  0.48728029  0.38333507  0.99554095  1
  O  O325  1  0.49260919  0.88408104  0.50489253  1
  O  O326  1  0.49295989  0.87941512  0.99336628  1
  O  O327  1  0.99397409  0.37963416  0.49379507  1
  O  O328  1  0.99994159  0.38540312  0.99483324  1
  O  O329  1  1.00666930  0.87765428  0.49061413  1
  O  O330  1  1.01370545  0.88713430  0.98923382  1
  O  O331  1  0.48745873  0.49527576  0.37019903  1
  O  O332  1  0.49194803  0.50009289  0.88042958  1
  O  O333  1  0.50106778  1.01034747  0.39045463  1
  O  O334  1  0.49311351  0.99154635  0.88064951  1
  O  O335  1  0.99332484  0.49241148  0.37901122  1
  O  O336  1  0.99244801  0.49434362  0.88150167  1
  O  O337  1  0.99453403  0.98573074  0.37408766  1
  O  O338  1  1.00153570  0.98998744  0.88363625  1
  O  O339  1  0.00293583  0.00354851  0.11392316  1
  O  O340  1  -0.00207459  0.01285206  0.63275558  1
  O  O341  1  -0.00912682  0.51167057  0.11469246  1
  O  O342  1  0.01019639  0.50358887  0.61907906  1
  O  O343  1  0.50401270  0.00280999  0.11337611  1
  O  O344  1  0.50567606  0.00845059  0.61955860  1
  O  O345  1  0.50628945  0.50529244  0.12002666  1
  O  O346  1  0.50289006  0.51524495  0.62974501  1
  O  O347  1  0.24797221  0.38271678  0.24255181  1
  O  O348  1  0.23605963  0.38288545  0.75371571  1
  O  O349  1  0.23834808  0.87393913  0.24315073  1
  O  O350  1  0.24132261  0.88375202  0.75246361  1
  O  O351  1  0.75182731  0.38492308  0.25184300  1
  O  O352  1  0.74090071  0.37918233  0.74377362  1
  O  O353  1  0.74285972  0.86677646  0.23655630  1
  O  O354  1  0.74601624  0.88819062  0.75643668  1
  O  O355  1  0.24456003  0.12479574  0.26495677  1
  O  O356  1  0.25348765  0.10782662  0.74662482  1
  O  O357  1  0.25445733  0.62045373  0.25295034  1
  O  O358  1  0.25435860  0.62074449  0.75524978  1
  O  O359  1  0.77307340  0.12215784  0.24727813  1
  O  O360  1  0.75795496  0.11768570  0.75489770  1
  O  O361  1  0.75436596  0.61791429  0.25597206  1
  O  O362  1  0.75423288  0.61890355  0.75772287  1
  O  O363  1  0.36177499  0.12536943  0.37983429  1
  O  O364  1  0.38470883  0.11064394  0.87315203  1
  O  O365  1  0.37019771  0.61896261  0.37076214  1
  O  O366  1  0.36905205  0.62090418  0.86948948  1
  O  O367  1  0.88777319  0.10831346  0.36443310  1
  O  O368  1  0.87057346  0.12293562  0.86280751  1
  O  O369  1  0.86966255  0.61940577  0.36910758  1
  O  O370  1  0.86711777  0.61744697  0.86604513  1
  O  O371  1  0.13785725  0.36919405  0.12090120  1
  O  O372  1  0.11773226  0.38352857  0.63449284  1
  O  O373  1  0.13138561  0.86844807  0.13438743  1
  O  O374  1  0.12092509  0.87207681  0.64309424  1
  O  O375  1  0.62506733  0.38843221  0.11862535  1
  O  O376  1  0.62662587  0.37818992  0.62814866  1
  O  O377  1  0.62906369  0.88502912  0.12784881  1
  O  O378  1  0.62719027  0.88629958  0.62975810  1
  O  O379  1  0.11197527  0.25514952  0.25596560  1
  O  O380  1  0.12253698  0.25605285  0.75335022  1
  O  O381  1  0.12083820  0.76200917  0.25510347  1
  O  O382  1  0.13287820  0.76238970  0.75978405  1
  O  O383  1  0.61169366  0.20330191  0.27472461  1
  O  O384  1  0.62784668  0.25936024  0.75636923  1
  O  O385  1  0.61708877  0.74690915  0.25907241  1
  O  O386  1  0.61115050  0.74906235  0.74237771  1
  O  O387  1  0.37368840  0.24715375  0.23708549  1
  O  O388  1  0.37405392  0.25119419  0.73621848  1
  O  O389  1  0.38360580  0.74347441  0.25112820  1
  O  O390  1  0.38003309  0.74661083  0.74191777  1
  O  O391  1  0.89011387  0.23154134  0.26063852  1
  O  O392  1  0.87959171  0.24086942  0.74620903  1
  O  O393  1  0.87466506  0.74263149  0.23908110  1
  O  O394  1  0.86746283  0.73225626  0.74851854  1
  O  O395  1  0.36841096  0.49566514  0.48924716  1
  O  O396  1  0.38005918  0.49413241  0.99388451  1
  O  O397  1  0.38401771  0.99118751  0.50052761  1
  O  O398  1  0.38303722  0.99042542  0.99269677  1
  O  O399  1  0.87792431  0.49485902  0.49467272  1
  O  O400  1  0.88608795  0.50887809  0.98740080  1
  O  O401  1  0.87316883  1.00685985  0.48655095  1
  O  O402  1  0.89613128  0.99740053  0.99655373  1
  O  O403  1  0.11789621  0.01479487  -0.00866661  1
  O  O404  1  0.12993091  0.01384872  0.50195866  1
  O  O405  1  0.11215538  0.51204089  -0.00945678  1
  O  O406  1  0.12250719  0.50322997  0.50735487  1
  O  O407  1  0.61312762  -0.00524551  0.00960556  1
  O  O408  1  0.62049510  0.00318812  0.51318227  1
  O  O409  1  0.61949159  0.50967245  0.00620625  1
  O  O410  1  0.62997583  0.51364191  0.50528390  1
  O  O411  1  0.37027370  0.36826747  0.11768040  1
  O  O412  1  0.38219239  0.36323958  0.61953197  1
  O  O413  1  0.36957056  0.87438531  0.11393583  1
  O  O414  1  0.37998571  0.86310846  0.61572192  1
  O  O415  1  0.86620059  0.36462972  0.12553359  1
  O  O416  1  0.87063401  0.37034482  0.62088880  1
  O  O417  1  0.86556496  0.86269938  0.12933726  1
  O  O418  1  0.86719287  0.87308005  0.63545008  1
  O  O419  1  0.13188262  0.12419947  0.38827115  1
  O  O420  1  0.12074241  0.13239935  0.88504328  1
  O  O421  1  0.13151858  0.62670457  0.38200510  1
  O  O422  1  0.12712562  0.63228876  0.87968270  1
  O  O423  1  0.62841720  0.10933263  0.39987871  1
  O  O424  1  0.63182849  0.13728746  0.86899361  1
  O  O425  1  0.62805478  0.63128586  0.38260123  1
  O  O426  1  0.63554343  0.61708062  0.88348959  1
