# generated using pymatgen
data_V85Zn86O256
_symmetry_space_group_name_H-M   'P 1'
_cell_length_a   16.96216888
_cell_length_b   16.94735099
_cell_length_c   16.95315015
_cell_angle_alpha   90.05933447
_cell_angle_beta   90.02659071
_cell_angle_gamma   89.94926717
_symmetry_Int_Tables_number   1
_chemical_formula_structural   V85Zn86O256
_chemical_formula_sum   'V85 Zn86 O256'
_cell_volume   4873.41241874
_cell_formula_units_Z   1
loop_
 _symmetry_equiv_pos_site_id
 _symmetry_equiv_pos_as_xyz
  1  'x, y, z'
loop_
 _atom_site_type_symbol
 _atom_site_label
 _atom_site_symmetry_multiplicity
 _atom_site_fract_x
 _atom_site_fract_y
 _atom_site_fract_z
 _atom_site_occupancy
  V  V0  1  0.74887393  0.50059665  0.75014243  1
  V  V1  1  0.37758452  0.63228658  0.74537581  1
  V  V2  1  0.12329893  0.74844879  0.88132454  1
  V  V3  1  0.62491659  0.24559364  0.88794949  1
  V  V4  1  0.86723825  0.50057887  0.37114792  1
  V  V5  1  0.50033289  0.37314483  0.87611828  1
  V  V6  1  -0.01170759  0.12562601  0.62785570  1
  V  V7  1  0.38127024  0.86728504  0.50709964  1
  V  V8  1  0.25140760  0.11854760  0.36684380  1
  V  V9  1  0.37761778  0.88144065  0.00089569  1
  V  V10  1  0.50065419  -0.00498676  0.49372085  1
  V  V11  1  0.24690362  0.62585725  0.88021535  1
  V  V12  1  0.37339139  -0.00863245  0.37129290  1
  V  V13  1  0.25501959  0.87034063  0.62939753  1
  V  V14  1  0.87349231  0.75694333  0.12245380  1
  V  V15  1  0.74725300  0.13013378  0.88984666  1
  V  V16  1  0.36925513  0.12409287  0.74706956  1
  V  V17  1  0.37143967  0.00155780  0.87318597  1
  V  V18  1  0.12809450  -0.01106245  0.13071128  1
  V  V19  1  0.25078175  0.74616888  0.50122001  1
  V  V20  1  0.75231318  0.75795487  -0.00306118  1
  V  V21  1  0.00269014  -0.00340132  0.49938012  1
  V  V22  1  0.75208101  0.36880016  0.62742263  1
  V  V23  1  0.37020126  0.37080539  0.00205664  1
  V  V24  1  0.12413786  0.50952206  0.12214482  1
  V  V25  1  0.37289552  0.50110639  0.37514618  1
  V  V26  1  0.63023256  0.38663515  0.24439576  1
  V  V27  1  0.24763700  0.12421997  0.87720357  1
  V  V28  1  0.00055668  0.37388525  0.37570653  1
  V  V29  1  0.01510187  0.87125171  0.37217208  1
  V  V30  1  0.12474072  0.49873825  0.62687699  1
  V  V31  1  0.49444095  0.12867291  0.62206090  1
  V  V32  1  -0.01080754  0.24569498  0.74617623  1
  V  V33  1  0.62746789  0.62212810  0.50160949  1
  V  V34  1  0.62406168  0.12718961  0.49093706  1
  V  V35  1  0.87651917  0.36733507  0.50651975  1
  V  V36  1  0.12951364  0.87972537  0.75284389  1
  V  V37  1  0.37755660  0.75380450  0.12454693  1
  V  V38  1  0.12681358  0.25029107  0.87994511  1
  V  V39  1  0.24837815  0.37393426  0.12393131  1
  V  V40  1  -0.00209949  0.62852865  0.62621867  1
  V  V41  1  0.13157552  0.00017794  0.62942427  1
  V  V42  1  0.25053408  0.75483187  0.00280041  1
  V  V43  1  0.00225220  0.50128871  -0.00163279  1
  V  V44  1  0.00315637  0.75360128  0.25357021  1
  V  V45  1  -0.00447115  0.75260849  0.74744114  1
  V  V46  1  0.62834404  0.87750716  0.74802947  1
  V  V47  1  0.36935356  0.24804003  0.12731944  1
  V  V48  1  0.12544619  0.62770871  0.49387325  1
  V  V49  1  0.75009273  0.87712146  0.12667416  1
  V  V50  1  0.61886448  0.75763406  0.37448209  1
  V  V51  1  0.87938077  0.86894720  0.49572710  1
  V  V52  1  0.50096029  0.36938628  0.37177640  1
  V  V53  1  0.24795625  0.50696130  0.24988607  1
  V  V54  1  -0.00313279  0.00394571  0.00434266  1
  V  V55  1  0.87379656  0.62685092  0.74907468  1
  V  V56  1  0.74960453  0.24714857  0.49587001  1
  V  V57  1  0.12341812  0.37271665  0.75149347  1
  V  V58  1  0.62257067  0.00447163  0.11047257  1
  V  V59  1  0.37432748  0.50023587  0.87740039  1
  V  V60  1  0.50239422  0.88356611  0.87628082  1
  V  V61  1  0.75450041  0.74834113  0.50231298  1
  V  V62  1  0.25576107  0.36852686  0.62533955  1
  V  V63  1  0.75144467  0.01961390  0.25428217  1
  V  V64  1  0.62733225  0.62625575  0.00132833  1
  V  V65  1  0.00029990  0.62798368  0.11987949  1
  V  V66  1  0.49765818  0.24948791  0.74710761  1
  V  V67  1  0.87605907  0.00863187  0.87210971  1
  V  V68  1  -0.00693308  0.87781586  0.88010792  1
  V  V69  1  0.86705358  0.37350390  0.00326434  1
  V  V70  1  0.25667246  0.24830999  0.50275443  1
  V  V71  1  0.50120035  0.62629526  0.12651764  1
  V  V72  1  0.24908673  0.49872514  0.75148057  1
  V  V73  1  0.12507323  0.24763181  0.37395881  1
  V  V74  1  0.86619193  0.24223768  0.12478196  1
  V  V75  1  0.75597089  0.01325256  0.74316090  1
  V  V76  1  0.12140015  0.12759361  0.00667802  1
  V  V77  1  0.76136170  0.87650253  0.62562675  1
  V  V78  1  0.50050323  0.49814091  0.50260231  1
  V  V79  1  0.50462757  0.50084388  0.00542331  1
  V  V80  1  0.50384547  0.12348608  0.11093269  1
  V  V81  1  0.00056953  0.49850238  0.50114826  1
  V  V82  1  0.12321483  0.37606536  0.24926537  1
  V  V83  1  -0.00560597  0.23799290  0.24272392  1
  V  V84  1  0.12820377  0.12241212  0.50225775  1
  Zn  Zn85  1  0.49890716  0.75585810  0.25747526  1
  Zn  Zn86  1  0.49303735  0.76194133  0.74249983  1
  Zn  Zn87  1  0.62201679  0.49912020  0.62845357  1
  Zn  Zn88  1  0.74643083  0.39382621  0.12978972  1
  Zn  Zn89  1  0.49510743  0.63332622  0.62210206  1
  Zn  Zn90  1  0.87548570  0.49902114  0.87595995  1
  Zn  Zn91  1  0.50144466  0.24165234  0.24986133  1
  Zn  Zn92  1  0.74740994  0.62299428  0.36850049  1
  Zn  Zn93  1  0.62924239  0.00271926  0.62055975  1
  Zn  Zn94  1  0.62459147  0.37419324  0.75071730  1
  Zn  Zn95  1  0.74874628  0.62823580  0.87344016  1
  Zn  Zn96  1  0.62185401  0.88460054  0.25639249  1
  Zn  Zn97  1  0.27945267  -0.07514565  0.19447224  1
  Zn  Zn98  1  0.37354990  0.11003693  0.24270091  1
  Zn  Zn99  1  0.87883014  0.00742470  0.36117421  1
  Zn  Zn100  1  -0.00206540  0.37276234  0.87489034  1
  Zn  Zn101  1  0.37949650  0.36881743  0.50417581  1
  Zn  Zn102  1  0.63347501  0.24577912  0.36595079  1
  Zn  Zn103  1  0.62254363  0.75263737  0.87361253  1
  Zn  Zn104  1  0.86578163  0.61249621  0.23726441  1
  Zn  Zn105  1  0.37470788  0.62678557  0.25038147  1
  Zn  Zn106  1  0.24486688  0.62692383  0.37293064  1
  Zn  Zn107  1  0.18536600  0.18708289  0.18578225  1
  Zn  Zn108  1  0.18396206  0.18862340  0.69104608  1
  Zn  Zn109  1  0.21055592  0.73368281  0.21578355  1
  Zn  Zn110  1  0.18626551  0.68873340  0.68938580  1
  Zn  Zn111  1  0.68357730  0.19627716  0.18378848  1
  Zn  Zn112  1  0.68103437  0.18934773  0.68334090  1
  Zn  Zn113  1  0.68923402  0.68064611  0.18781537  1
  Zn  Zn114  1  0.68543483  0.69071672  0.68363765  1
  Zn  Zn115  1  0.31189320  0.31277186  0.31095645  1
  Zn  Zn116  1  0.31168490  0.30908636  0.81433646  1
  Zn  Zn117  1  0.32196814  0.80934707  0.32239713  1
  Zn  Zn118  1  0.31185387  0.81381210  0.81650700  1
  Zn  Zn119  1  0.81363864  0.31362723  0.31225869  1
  Zn  Zn120  1  0.81088384  0.31208751  0.81681045  1
  Zn  Zn121  1  0.81261683  0.81287949  0.31106924  1
  Zn  Zn122  1  0.81318091  0.81666800  0.81245162  1
  Zn  Zn123  1  0.18733326  0.43651875  0.43874317  1
  Zn  Zn124  1  0.18581731  0.43723300  0.93877125  1
  Zn  Zn125  1  0.19248043  0.93357423  0.44078376  1
  Zn  Zn126  1  0.18729911  0.94046735  0.94052158  1
  Zn  Zn127  1  0.68567576  0.43156873  0.43610132  1
  Zn  Zn128  1  0.68604299  0.43756203  0.93455795  1
  Zn  Zn129  1  0.69085710  0.93924353  0.43781468  1
  Zn  Zn130  1  0.69198997  0.94074455  0.93418440  1
  Zn  Zn131  1  0.30788621  0.06499914  0.05849814  1
  Zn  Zn132  1  0.31349821  0.05829770  0.56051819  1
  Zn  Zn133  1  0.31348828  0.56433566  0.06328777  1
  Zn  Zn134  1  0.31161272  0.55740820  0.56366127  1
  Zn  Zn135  1  0.81369253  0.05916431  0.06216387  1
  Zn  Zn136  1  0.82569374  0.07291981  0.52678283  1
  Zn  Zn137  1  0.81196404  0.56368043  0.06077151  1
  Zn  Zn138  1  0.81341417  0.55863811  0.56288047  1
  Zn  Zn139  1  0.43820142  0.43782498  0.19017837  1
  Zn  Zn140  1  0.43567823  0.43968062  0.69013182  1
  Zn  Zn141  1  0.44962640  0.93544841  0.18794510  1
  Zn  Zn142  1  0.44012862  0.94525801  0.68630416  1
  Zn  Zn143  1  0.93795289  0.43318690  0.18603656  1
  Zn  Zn144  1  0.93748290  0.43670491  0.68934487  1
  Zn  Zn145  1  0.93606605  0.93852734  0.18710679  1
  Zn  Zn146  1  0.93789687  0.94089859  0.68673671  1
  Zn  Zn147  1  0.06277115  0.05941819  0.31380641  1
  Zn  Zn148  1  0.06156685  0.06578791  0.81177807  1
  Zn  Zn149  1  0.05443241  0.56488063  0.30841700  1
  Zn  Zn150  1  0.06239560  0.56259833  0.81415839  1
  Zn  Zn151  1  0.56010746  0.06127961  0.30391600  1
  Zn  Zn152  1  0.56420842  0.06250589  0.81258347  1
  Zn  Zn153  1  0.56219488  0.56546366  0.31487780  1
  Zn  Zn154  1  0.56269882  0.56254970  0.81702769  1
  Zn  Zn155  1  0.43462755  0.18141383  0.43291620  1
  Zn  Zn156  1  0.43631985  0.18882125  0.93634814  1
  Zn  Zn157  1  0.43732188  0.68610752  0.44258033  1
  Zn  Zn158  1  0.43978400  0.69267005  0.93247362  1
  Zn  Zn159  1  0.93968104  0.18416247  0.43428784  1
  Zn  Zn160  1  0.93717247  0.18908060  0.93618436  1
  Zn  Zn161  1  0.93833637  0.68607863  0.43698363  1
  Zn  Zn162  1  0.93462686  0.68739818  0.93720553  1
  Zn  Zn163  1  0.05804589  0.31486593  0.06369942  1
  Zn  Zn164  1  0.06570443  0.30809625  0.56456421  1
  Zn  Zn165  1  0.06113606  0.81554884  0.06281601  1
  Zn  Zn166  1  0.06688874  0.81141764  0.56267196  1
  Zn  Zn167  1  0.55971309  0.31304670  0.06788569  1
  Zn  Zn168  1  0.56661752  0.31228869  0.56342264  1
  Zn  Zn169  1  0.56417275  0.81581652  0.06136659  1
  Zn  Zn170  1  0.56760645  0.81065780  0.56743637  1
  O  O171  1  0.12955510  0.11894404  0.11105931  1
  O  O172  1  0.12696582  0.11329665  0.62228242  1
  O  O173  1  0.11193613  0.61405715  0.12751775  1
  O  O174  1  0.11591050  0.61888757  0.62216190  1
  O  O175  1  0.61319084  0.11943142  0.12361991  1
  O  O176  1  0.61038301  0.12362857  0.61409788  1
  O  O177  1  0.61340533  0.63507166  0.11178805  1
  O  O178  1  0.62488263  0.62093026  0.61179292  1
  O  O179  1  0.38134636  0.38525134  0.37546270  1
  O  O180  1  0.37835200  0.37816396  0.88371452  1
  O  O181  1  0.37313589  0.88203600  0.39338210  1
  O  O182  1  0.38107328  0.88403374  0.87765015  1
  O  O183  1  0.88053950  0.38246967  0.38545747  1
  O  O184  1  0.87740373  0.37408720  0.89079149  1
  O  O185  1  0.88210532  0.87882722  0.38403785  1
  O  O186  1  0.88647117  0.88730575  0.86978074  1
  O  O187  1  0.26020324  0.00668254  0.38322595  1
  O  O188  1  0.25900148  0.00938460  0.87534833  1
  O  O189  1  0.25721542  0.50036560  0.37065734  1
  O  O190  1  0.25183894  0.50811795  0.87232206  1
  O  O191  1  0.74771259  -0.00469000  0.35567248  1
  O  O192  1  0.75657340  0.01230709  0.86709986  1
  O  O193  1  0.76490807  0.49712041  0.38279972  1
  O  O194  1  0.75223109  0.50330680  0.86214396  1
  O  O195  1  0.24205210  0.49825563  0.12898588  1
  O  O196  1  0.24343089  0.48993722  0.63164153  1
  O  O197  1  0.23651361  1.00080213  0.12280971  1
  O  O198  1  0.23899390  0.98756028  0.61903547  1
  O  O199  1  0.76173859  0.50423278  0.13664234  1
  O  O200  1  0.74947985  0.49113341  0.63481923  1
  O  O201  1  0.74174971  0.99794227  0.13062467  1
  O  O202  1  0.75276665  0.99094199  0.63002759  1
  O  O203  1  0.00621663  0.36696780  0.25662134  1
  O  O204  1  0.00710521  0.36730486  0.75007091  1
  O  O205  1  -0.00577705  0.86324088  0.25680993  1
  O  O206  1  0.00767141  0.86919659  0.75690467  1
  O  O207  1  0.50675527  0.37410058  0.25797337  1
  O  O208  1  0.49695346  0.36660937  0.75665407  1
  O  O209  1  0.51171129  0.86732973  0.24718181  1
  O  O210  1  0.51109266  0.88272851  0.75497625  1
  O  O211  1  0.49150626  0.12271562  0.23477856  1
  O  O212  1  0.49311132  0.12944104  0.74212131  1
  O  O213  1  0.50048634  0.62913905  0.23751255  1
  O  O214  1  0.48354128  0.62151207  0.75377567  1
  O  O215  1  0.99862330  0.13969620  0.25732961  1
  O  O216  1  1.00478667  0.13240006  0.73994223  1
  O  O217  1  0.98853731  0.63419801  0.23974128  1
  O  O218  1  0.99487015  0.63211367  0.74518996  1
  O  O219  1  0.38057440  0.26292508  0.00950375  1
  O  O220  1  0.36073526  0.24875906  0.49513092  1
  O  O221  1  0.36983795  0.75981197  0.00318890  1
  O  O222  1  0.37121486  0.75911040  0.50418308  1
  O  O223  1  0.88511532  0.26410656  0.01207624  1
  O  O224  1  0.86938031  0.26203925  0.49727350  1
  O  O225  1  0.86430482  0.74687384  0.00873371  1
  O  O226  1  0.86844891  0.75754256  0.49634908  1
  O  O227  1  0.13446874  0.24304903  0.49275388  1
  O  O228  1  0.11277872  0.24211408  0.99015902  1
  O  O229  1  0.13505556  0.73756748  0.50675734  1
  O  O230  1  0.13319187  0.75839612  0.98864300  1
  O  O231  1  0.63132273  0.24413509  0.49532689  1
  O  O232  1  0.61814983  0.25381691  0.98719604  1
  O  O233  1  0.63284220  0.74219946  0.49272389  1
  O  O234  1  0.63404107  0.74521271  0.99761643  1
  O  O235  1  0.49106880  0.23649516  0.12401908  1
  O  O236  1  0.50258540  0.24109424  0.63325799  1
  O  O237  1  0.49008640  0.74313604  0.11788113  1
  O  O238  1  0.50517421  0.74529571  0.63224822  1
  O  O239  1  0.99377438  0.25169793  0.13839648  1
  O  O240  1  1.00960501  0.23746182  0.63382632  1
  O  O241  1  0.99262659  0.74802422  0.12679931  1
  O  O242  1  1.00907219  0.74134502  0.63746137  1
  O  O243  1  0.00390496  0.25388963  0.36715111  1
  O  O244  1  0.01017026  0.24877977  0.86564152  1
  O  O245  1  -0.00795642  0.75416923  0.36043014  1
  O  O246  1  0.00513445  0.75738356  0.87093559  1
  O  O247  1  0.49362705  0.26185403  0.37462386  1
  O  O248  1  0.50602067  0.25234178  0.86841204  1
  O  O249  1  0.51509616  0.74407045  0.38012369  1
  O  O250  1  0.50034079  0.76764973  0.86533272  1
  O  O251  1  0.24741648  0.13002268  0.49289097  1
  O  O252  1  0.23811863  0.12413186  0.98632658  1
  O  O253  1  0.24139746  0.62871744  0.50539239  1
  O  O254  1  0.25720906  0.63509678  0.98668541  1
  O  O255  1  0.73256123  0.13648554  0.51338522  1
  O  O256  1  0.74777973  0.12382310  0.98790312  1
  O  O257  1  0.74554420  0.63115430  0.50056979  1
  O  O258  1  0.74182964  0.63552013  0.99842821  1
  O  O259  1  0.26289427  0.38438662  0.00722846  1
  O  O260  1  0.24966638  0.36582244  0.50796924  1
  O  O261  1  0.26200334  0.86426881  -0.01000068  1
  O  O262  1  0.25820083  0.86512821  0.51040113  1
  O  O263  1  0.76402592  0.38300124  0.00223993  1
  O  O264  1  0.75627536  0.36859793  0.50847600  1
  O  O265  1  0.74389954  0.86772832  0.00998344  1
  O  O266  1  0.75991503  0.87080104  0.50611089  1
  O  O267  1  0.12675606  0.49687493  0.24200151  1
  O  O268  1  0.12975030  0.49418044  0.74720903  1
  O  O269  1  0.11391453  1.00524493  0.22889668  1
  O  O270  1  0.12009103  0.98889482  0.74352367  1
  O  O271  1  0.61919923  0.48603335  0.25683692  1
  O  O272  1  0.63509144  0.50019726  0.75020509  1
  O  O273  1  0.63717168  1.00213320  0.23825217  1
  O  O274  1  0.63613158  0.99259705  0.74745457  1
  O  O275  1  0.36811288  -0.01310028  0.25747787  1
  O  O276  1  0.37800008  0.01275631  0.76061692  1
  O  O277  1  0.36757456  0.50261970  0.25762513  1
  O  O278  1  0.36749480  0.50702885  0.75919677  1
  O  O279  1  0.85771569  0.00000077  0.24438884  1
  O  O280  1  0.86909273  -0.00056964  0.76064900  1
  O  O281  1  0.88340833  0.49429643  0.26843364  1
  O  O282  1  0.86815407  0.50886521  0.75151178  1
  O  O283  1  0.12087724  0.36841795  0.36999521  1
  O  O284  1  0.12491758  0.36593097  0.87125013  1
  O  O285  1  0.11440187  0.87314380  0.38121911  1
  O  O286  1  0.11813833  0.87035542  0.86863787  1
  O  O287  1  0.61442372  0.37121754  0.36782890  1
  O  O288  1  0.61883671  0.36528491  0.87225431  1
  O  O289  1  0.62855732  0.86035475  0.37983632  1
  O  O290  1  0.61804031  0.88154982  0.86771427  1
  O  O291  1  0.37961097  0.12998638  0.12252419  1
  O  O292  1  0.38238538  0.11762488  0.63377197  1
  O  O293  1  0.38538160  0.63539673  0.12160463  1
  O  O294  1  0.37158168  0.61793043  0.64260987  1
  O  O295  1  0.87045714  0.14316989  0.11554650  1
  O  O296  1  0.89052777  0.11644930  0.61599335  1
  O  O297  1  0.88569157  0.63708970  0.12103171  1
  O  O298  1  0.88826522  0.62017115  0.63430444  1
  O  O299  1  0.25829166  0.25809711  0.12893065  1
  O  O300  1  0.24130102  0.25745224  0.61566840  1
  O  O301  1  0.26396501  0.74125533  0.11024234  1
  O  O302  1  0.24574016  0.76081295  0.61919980  1
  O  O303  1  0.76484966  0.26088014  0.13061476  1
  O  O304  1  0.74511361  0.26168117  0.61739132  1
  O  O305  1  0.75429067  0.75792296  0.11737181  1
  O  O306  1  0.74454408  0.76106946  0.61118406  1
  O  O307  1  0.24521933  0.24142077  0.38080836  1
  O  O308  1  0.23666259  0.24103166  0.87259107  1
  O  O309  1  0.25829787  0.74281828  0.39656592  1
  O  O310  1  0.24242283  0.74470192  0.88172076  1
  O  O311  1  0.75118601  0.25523927  0.39146531  1
  O  O312  1  0.74157903  0.23659602  0.86942086  1
  O  O313  1  0.74334819  0.75021305  0.38912424  1
  O  O314  1  0.75006626  0.75284105  0.88490861  1
  O  O315  1  0.00939929  0.11437818  -0.00898876  1
  O  O316  1  0.01274782  0.11890448  0.50948914  1
  O  O317  1  -0.00514495  0.61564172  0.00788473  1
  O  O318  1  0.00637065  0.62258306  0.50935823  1
  O  O319  1  0.49328292  0.12335286  0.01156613  1
  O  O320  1  0.50214770  0.11875193  0.50512808  1
  O  O321  1  0.50536829  0.62032634  0.00327744  1
  O  O322  1  0.50804553  0.61366476  0.50096247  1
  O  O323  1  0.49997344  0.38139104  0.49317188  1
  O  O324  1  0.49200186  0.38353077  0.99810231  1
  O  O325  1  0.49400312  0.88557125  0.51112123  1
  O  O326  1  0.48878769  0.87145478  0.98901183  1
  O  O327  1  0.99516454  0.37640385  0.49825687  1
  O  O328  1  0.99129811  0.38677813  1.00064457  1
  O  O329  1  0.99786480  0.87222909  0.49277230  1
  O  O330  1  1.00569156  0.88571580  0.98607088  1
  O  O331  1  0.49245840  0.49177048  0.38325013  1
  O  O332  1  0.49422578  0.49364940  0.88499051  1
  O  O333  1  0.48823187  1.00481110  0.38474331  1
  O  O334  1  0.48905973  0.99319155  0.87208966  1
  O  O335  1  0.99458442  0.49284288  0.38299310  1
  O  O336  1  1.00039742  0.49813359  0.88501446  1
  O  O337  1  1.00058244  0.98831604  0.38067563  1
  O  O338  1  0.99439637  0.99637310  0.87855265  1
  O  O339  1  0.00590675  -0.00678210  0.11061644  1
  O  O340  1  0.01281859  0.00426272  0.62184437  1
  O  O341  1  0.00418579  0.50788920  0.11988095  1
  O  O342  1  0.00517432  0.50822094  0.62175782  1
  O  O343  1  0.51289820  0.00947467  0.12326329  1
  O  O344  1  0.50217898  0.01145239  0.61255413  1
  O  O345  1  0.49151857  0.51133022  0.11390127  1
  O  O346  1  0.49934342  0.50071540  0.61355612  1
  O  O347  1  0.24262744  0.38395300  0.24425130  1
  O  O348  1  0.24503287  0.37717908  0.74491732  1
  O  O349  1  0.24186085  0.83974574  0.25122360  1
  O  O350  1  0.23855197  0.86724422  0.74461977  1
  O  O351  1  0.73338870  0.37200402  0.25480645  1
  O  O352  1  0.75244005  0.38256948  0.74397266  1
  O  O353  1  0.74280729  0.87569826  0.23598690  1
  O  O354  1  0.74811086  0.88537148  0.74412179  1
  O  O355  1  0.25037701  0.12763871  0.26316501  1
  O  O356  1  0.25995412  0.13186206  0.76003039  1
  O  O357  1  0.25124297  0.62447130  0.25411419  1
  O  O358  1  0.25674691  0.62091529  0.75936484  1
  O  O359  1  0.74547637  0.11843628  0.24640709  1
  O  O360  1  0.74465448  0.11500843  0.74635604  1
  O  O361  1  0.75870407  0.63261828  0.25778368  1
  O  O362  1  0.75825296  0.62048891  0.74535770  1
  O  O363  1  0.36706331  0.11079200  0.37052235  1
  O  O364  1  0.36756632  0.11999522  0.87126972  1
  O  O365  1  0.37642328  0.61122720  0.37541229  1
  O  O366  1  0.36654605  0.62081805  0.86791268  1
  O  O367  1  0.86737781  0.10304201  0.41948757  1
  O  O368  1  0.86026006  0.12153827  0.87617680  1
  O  O369  1  0.87721207  0.60589592  0.38126214  1
  O  O370  1  0.87316716  0.62325920  0.86113787  1
  O  O371  1  0.12852851  0.38433303  0.12970384  1
  O  O372  1  0.13331139  0.37958246  0.63103763  1
  O  O373  1  0.12629627  0.88857591  0.11992384  1
  O  O374  1  0.13170069  0.88063640  0.63365075  1
  O  O375  1  0.62451081  0.37365687  0.13874763  1
  O  O376  1  0.63628569  0.37900289  0.62929757  1
  O  O377  1  0.63076613  0.89055602  0.12241408  1
  O  O378  1  0.63861233  0.88045675  0.63207819  1
  O  O379  1  0.11394153  0.25386430  0.25325411  1
  O  O380  1  0.11779538  0.25461072  0.76053807  1
  O  O381  1  0.10046282  0.74134727  0.24225219  1
  O  O382  1  0.11600814  0.75843550  0.76071876  1
  O  O383  1  0.61786013  0.26033303  0.25236226  1
  O  O384  1  0.61064715  0.24958985  0.75810923  1
  O  O385  1  0.62821641  0.74484558  0.27008596  1
  O  O386  1  0.63239649  0.76829361  0.75331375  1
  O  O387  1  0.37752139  0.25034719  0.23595806  1
  O  O388  1  0.38737576  0.23797927  0.75910260  1
  O  O389  1  0.38017487  0.74670485  0.23808537  1
  O  O390  1  0.37152843  0.73535523  0.75559083  1
  O  O391  1  0.88589223  0.25702089  0.23982793  1
  O  O392  1  0.89053360  0.25610931  0.75541723  1
  O  O393  1  0.88223927  0.75156241  0.23480742  1
  O  O394  1  0.88719334  0.74355368  0.75523921  1
  O  O395  1  0.38280618  0.49688013  0.49310547  1
  O  O396  1  0.38328713  0.49336974  0.99635907  1
  O  O397  1  0.38247539  0.99083468  0.49350939  1
  O  O398  1  0.36860662  0.99003670  0.98975663  1
  O  O399  1  0.88191194  0.48917372  0.49425936  1
  O  O400  1  0.88483752  0.49085659  0.99919946  1
  O  O401  1  0.88876028  0.97644120  0.51070889  1
  O  O402  1  0.88401935  1.00629324  0.98565041  1
  O  O403  1  0.11712283  0.00762804  0.00568510  1
  O  O404  1  0.12143951  0.00098885  0.50972050  1
  O  O405  1  0.11518974  0.49427298  0.01120311  1
  O  O406  1  0.12018357  0.50633886  0.50747773  1
  O  O407  1  0.63251873  0.00333292  0.01186340  1
  O  O408  1  0.61723218  0.00737221  0.49748985  1
  O  O409  1  0.61358317  0.50977091  -0.00598480  1
  O  O410  1  0.61714739  0.50545422  0.49794025  1
  O  O411  1  0.37081352  0.36909064  0.11993024  1
  O  O412  1  0.35964961  0.37852545  0.62548953  1
  O  O413  1  0.37664374  0.87005045  0.11609712  1
  O  O414  1  0.36462304  0.88525202  0.62008103  1
  O  O415  1  0.87496193  0.36965229  0.11445251  1
  O  O416  1  0.86642239  0.38148570  0.61548842  1
  O  O417  1  0.86373941  0.86833994  0.12426871  1
  O  O418  1  0.86784448  0.87172646  0.62162299  1
  O  O419  1  0.13307547  0.12601991  0.38150247  1
  O  O420  1  0.13110868  0.12962058  0.88025125  1
  O  O421  1  0.12235182  0.61671552  0.39028381  1
  O  O422  1  0.13415546  0.63742168  0.86754467  1
  O  O423  1  0.61310245  0.12767906  0.38704266  1
  O  O424  1  0.63776268  0.12968123  0.87130743  1
  O  O425  1  0.62772806  0.63057066  0.38834425  1
  O  O426  1  0.62542933  0.63163341  0.88650787  1
