# generated using pymatgen
data_V85Zn86O256
_symmetry_space_group_name_H-M   'P 1'
_cell_length_a   16.96739357
_cell_length_b   16.98282047
_cell_length_c   16.96934048
_cell_angle_alpha   90.00317087
_cell_angle_beta   89.93350823
_cell_angle_gamma   90.16972876
_symmetry_Int_Tables_number   1
_chemical_formula_structural   V85Zn86O256
_chemical_formula_sum   'V85 Zn86 O256'
_cell_volume   4889.76195849
_cell_formula_units_Z   1
loop_
 _symmetry_equiv_pos_site_id
 _symmetry_equiv_pos_as_xyz
  1  'x, y, z'
loop_
 _atom_site_type_symbol
 _atom_site_label
 _atom_site_symmetry_multiplicity
 _atom_site_fract_x
 _atom_site_fract_y
 _atom_site_fract_z
 _atom_site_occupancy
  V  V0  1  0.12440068  0.50217079  0.12285356  1
  V  V1  1  0.74354530  -0.00290751  0.75036741  1
  V  V2  1  0.50094226  0.00245933  -0.00038598  1
  V  V3  1  0.50765345  0.37442378  0.37737719  1
  V  V4  1  0.00102594  0.25041914  0.25120035  1
  V  V5  1  0.49755169  0.75160672  0.73780946  1
  V  V6  1  0.74633186  0.13232719  0.87677784  1
  V  V7  1  0.12430729  0.87477740  0.24928863  1
  V  V8  1  0.87470743  0.62208393  0.25400297  1
  V  V9  1  0.37213675  0.62596316  0.24999047  1
  V  V10  1  0.62857395  0.23551635  0.38925778  1
  V  V11  1  0.76386211  0.23674454  0.50092320  1
  V  V12  1  0.25494308  0.12485264  0.36885909  1
  V  V13  1  0.49989009  0.75805850  0.25332416  1
  V  V14  1  0.24645121  0.62534629  0.38521910  1
  V  V15  1  0.62151543  0.74955034  0.87080337  1
  V  V16  1  0.24927200  0.24817280  0.50094806  1
  V  V17  1  0.87764160  0.49249799  0.88112569  1
  V  V18  1  0.62509265  0.13270472  -0.00063713  1
  V  V19  1  0.37510345  0.24762000  0.13442179  1
  V  V20  1  0.87363719  0.75137347  0.62533611  1
  V  V21  1  0.37859871  0.12432542  0.74385766  1
  V  V22  1  0.50286048  0.87434120  0.87089824  1
  V  V23  1  0.87408760  0.26185936  0.12480581  1
  V  V24  1  0.38742254  0.49703300  0.87908789  1
  V  V25  1  0.24759255  0.74996748  -0.00123008  1
  V  V26  1  0.74068547  0.87623956  0.62783132  1
  V  V27  1  0.61862159  0.61764263  -0.00238730  1
  V  V28  1  0.50287786  0.01539272  0.50238372  1
  V  V29  1  -0.00213349  0.37550466  0.38630354  1
  V  V30  1  0.25398862  0.25394990  0.00104370  1
  V  V31  1  0.12578736  0.89115267  0.74379778  1
  V  V32  1  0.12486591  0.12722635  -0.00075564  1
  V  V33  1  0.62217956  0.01332111  0.62231352  1
  V  V34  1  0.76904255  0.36892028  0.61716375  1
  V  V35  1  0.24967820  0.49975491  0.25149829  1
  V  V36  1  0.38086058  0.37600802  0.50434030  1
  V  V37  1  0.51028259  0.25231934  0.25157263  1
  V  V38  1  0.37886476  -0.00246325  0.37221305  1
  V  V39  1  0.87857491  0.13864469  0.74375201  1
  V  V40  1  0.74729911  0.75032276  -0.00342938  1
  V  V41  1  0.12372208  0.74537172  0.37970237  1
  V  V42  1  -0.00131327  0.00128094  0.00036695  1
  V  V43  1  0.74873689  0.00323294  0.25404462  1
  V  V44  1  -0.00022615  0.12683753  0.12620262  1
  V  V45  1  0.75366146  0.25992370  0.00405325  1
  V  V46  1  0.24925761  0.87593922  0.12345227  1
  V  V47  1  0.25421006  0.00268149  0.24857187  1
  V  V48  1  0.00801851  0.36797053  0.87189910  1
  V  V49  1  0.87620893  0.00108563  0.37624570  1
  V  V50  1  0.87646835  0.49862281  0.37846720  1
  V  V51  1  0.24760573  0.62468103  0.87703907  1
  V  V52  1  0.69996415  0.56909683  0.31515650  1
  V  V53  1  0.24304063  0.49299772  0.75255529  1
  V  V54  1  0.25205908  0.12299150  0.86999112  1
  V  V55  1  0.37643483  0.49921847  0.38235081  1
  V  V56  1  0.49836956  0.61824540  0.12027919  1
  V  V57  1  0.00328373  0.75142020  0.75022732  1
  V  V58  1  0.12642788  0.37530283  0.25000751  1
  V  V59  1  0.74861489  0.49778674  0.74309703  1
  V  V60  1  0.74741702  0.74118669  0.49660061  1
  V  V61  1  -0.00255691  0.75048998  0.24906863  1
  V  V62  1  0.87466578  0.00186818  0.87445886  1
  V  V63  1  0.37196599  0.00092853  0.86867295  1
  V  V64  1  0.12523940  0.00119566  0.12466769  1
  V  V65  1  0.37391361  0.87501526  -0.00247368  1
  V  V66  1  0.38073600  0.87288367  0.50119581  1
  V  V67  1  0.87351098  0.87622573  -0.00116317  1
  V  V68  1  0.49620395  0.12549221  0.13172881  1
  V  V69  1  0.00848559  0.13204752  0.62514992  1
  V  V70  1  0.37417927  0.75055271  0.12464973  1
  V  V71  1  0.24885535  0.75020812  0.50967980  1
  V  V72  1  0.37325336  0.62929400  0.73743471  1
  V  V73  1  0.12932695  0.50650032  0.61636264  1
  V  V74  1  0.62597606  0.75991422  0.37477049  1
  V  V75  1  0.12593171  0.25229996  0.86256695  1
  V  V76  1  0.62766914  0.37049845  0.75264476  1
  V  V77  1  0.74647258  0.87772265  0.12563431  1
  V  V78  1  0.24391330  0.37178552  0.63030226  1
  V  V79  1  0.87293291  0.87640107  0.49903214  1
  V  V80  1  0.87143171  0.12564279  0.25464300  1
  V  V81  1  0.12687031  0.24931229  0.37562284  1
  V  V82  1  0.51094555  0.24014875  0.75029677  1
  V  V83  1  0.87642741  0.62333266  0.74815254  1
  V  V84  1  0.24939248  0.89323469  0.62601893  1
  Zn  Zn85  1  0.00290941  0.87606146  0.37891838  1
  Zn  Zn86  1  0.11846507  0.62703249  -0.00063216  1
  Zn  Zn87  1  0.00939895  0.63113380  0.61773741  1
  Zn  Zn88  1  0.00159694  0.50777951  0.50069507  1
  Zn  Zn89  1  0.51173285  0.37027492  0.87839568  1
  Zn  Zn90  1  0.62361831  0.00306852  0.12752174  1
  Zn  Zn91  1  0.00411111  0.87672037  0.87456985  1
  Zn  Zn92  1  0.87313389  0.74657864  0.12374735  1
  Zn  Zn93  1  -0.00547548  0.49710298  0.00484828  1
  Zn  Zn94  1  0.60856938  0.62186068  0.51227685  1
  Zn  Zn95  1  0.62350703  0.49473685  0.13540594  1
  Zn  Zn96  1  0.38722774  0.38451957  0.00699110  1
  Zn  Zn97  1  0.00997830  -0.00669885  0.51522786  1
  Zn  Zn98  1  -0.00421490  0.62410464  0.12123018  1
  Zn  Zn99  1  0.12517584  0.75216237  0.87356584  1
  Zn  Zn100  1  0.73254874  0.38022602  0.15642240  1
  Zn  Zn101  1  0.74784366  0.62139299  0.87402987  1
  Zn  Zn102  1  0.38070037  0.24443254  0.62328788  1
  Zn  Zn103  1  0.60950148  0.47899497  0.59414843  1
  Zn  Zn104  1  0.25303637  0.37623092  0.12514717  1
  Zn  Zn105  1  0.62001074  0.88068814  0.25368595  1
  Zn  Zn106  1  0.12975273  0.11003389  0.50447140  1
  Zn  Zn107  1  0.18760777  0.18779501  0.18799356  1
  Zn  Zn108  1  0.19098181  0.18250238  0.68565284  1
  Zn  Zn109  1  0.18623037  0.68597809  0.19006624  1
  Zn  Zn110  1  0.18881791  0.68768747  0.68950541  1
  Zn  Zn111  1  0.68636878  0.19180591  0.18765317  1
  Zn  Zn112  1  0.69526933  0.18782352  0.68414156  1
  Zn  Zn113  1  0.68058957  0.69234087  0.18020517  1
  Zn  Zn114  1  0.68746154  0.68651610  0.68507362  1
  Zn  Zn115  1  0.31601804  0.31355955  0.31259685  1
  Zn  Zn116  1  0.31773488  0.30909581  0.81261639  1
  Zn  Zn117  1  0.31090228  0.81440228  0.31454976  1
  Zn  Zn118  1  0.31070121  0.81325164  0.80797112  1
  Zn  Zn119  1  0.81304223  0.31082936  0.31874887  1
  Zn  Zn120  1  0.81206921  0.31647836  0.81538191  1
  Zn  Zn121  1  0.81045999  0.81294306  0.31368020  1
  Zn  Zn122  1  0.81274211  0.81414429  0.81166596  1
  Zn  Zn123  1  0.19052136  0.43415398  0.43970626  1
  Zn  Zn124  1  0.18893572  0.43635467  0.93885803  1
  Zn  Zn125  1  0.18993910  0.93369067  0.43503070  1
  Zn  Zn126  1  0.18578912  0.93753539  0.93424908  1
  Zn  Zn127  1  0.69090352  0.43109989  0.43814380  1
  Zn  Zn128  1  0.68956665  0.43938462  0.93412840  1
  Zn  Zn129  1  0.68714339  0.94023027  0.43953238  1
  Zn  Zn130  1  0.68425398  0.94061356  0.93822629  1
  Zn  Zn131  1  0.31399913  0.06478846  0.05803657  1
  Zn  Zn132  1  0.31471413  0.06173803  0.55695302  1
  Zn  Zn133  1  0.31078110  0.56255892  0.06099751  1
  Zn  Zn134  1  0.43862650  0.55969158  0.56275371  1
  Zn  Zn135  1  0.81243226  0.06664616  0.06556969  1
  Zn  Zn136  1  0.81700431  0.06087115  0.56649321  1
  Zn  Zn137  1  0.80493372  0.56047013  0.06927445  1
  Zn  Zn138  1  0.81276107  0.55955797  0.56281411  1
  Zn  Zn139  1  0.43877889  0.43349271  0.19299185  1
  Zn  Zn140  1  0.43329003  0.42754862  0.69730168  1
  Zn  Zn141  1  0.43520411  0.93907271  0.18559774  1
  Zn  Zn142  1  0.43783329  0.93660477  0.68332305  1
  Zn  Zn143  1  0.93971181  0.43928313  0.19519826  1
  Zn  Zn144  1  0.94566346  0.43346251  0.69039032  1
  Zn  Zn145  1  0.93551339  0.93597136  0.18697237  1
  Zn  Zn146  1  0.93542508  0.94225401  0.68755537  1
  Zn  Zn147  1  0.06441715  0.06210396  0.31678267  1
  Zn  Zn148  1  0.05976488  0.06868128  0.81146884  1
  Zn  Zn149  1  0.06011562  0.56265235  0.31147103  1
  Zn  Zn150  1  0.06125214  0.56125808  0.80939751  1
  Zn  Zn151  1  0.56087201  0.06272971  0.31475386  1
  Zn  Zn152  1  0.56369747  0.06275239  0.81327354  1
  Zn  Zn153  1  0.54013310  0.57786532  0.32925619  1
  Zn  Zn154  1  0.55932973  0.56796892  0.71405729  1
  Zn  Zn155  1  0.43570934  0.18815863  0.43577582  1
  Zn  Zn156  1  0.44247111  0.19690419  0.93997587  1
  Zn  Zn157  1  0.43340308  0.69527228  0.43754600  1
  Zn  Zn158  1  0.43499148  0.68485910  0.93338348  1
  Zn  Zn159  1  0.94229328  0.18487860  0.44098319  1
  Zn  Zn160  1  0.93544255  0.19028035  0.93895503  1
  Zn  Zn161  1  0.93592206  0.68431874  0.43854526  1
  Zn  Zn162  1  0.93743500  0.68442828  0.93594719  1
  Zn  Zn163  1  0.06016451  0.31800051  0.05684654  1
  Zn  Zn164  1  0.06172736  0.30993238  0.56801843  1
  Zn  Zn165  1  0.06087349  0.81213057  0.06163849  1
  Zn  Zn166  1  0.06370431  0.81432001  0.56414373  1
  Zn  Zn167  1  0.56525438  0.32006093  0.06139178  1
  Zn  Zn168  1  0.56650871  0.30412753  0.57017305  1
  Zn  Zn169  1  0.56044152  0.81152989  0.06206532  1
  Zn  Zn170  1  0.56469676  0.81420990  0.55736975  1
  O  O171  1  0.11984398  0.12029145  0.11990506  1
  O  O172  1  0.11303792  0.12346306  0.62769738  1
  O  O173  1  0.12323038  0.61385849  0.12636224  1
  O  O174  1  0.12899590  0.60958704  0.62928677  1
  O  O175  1  0.61479634  0.12488313  0.11801630  1
  O  O176  1  0.63104372  0.11206269  0.62506297  1
  O  O177  1  0.61472807  0.62405879  0.11448384  1
  O  O178  1  0.62610465  0.61151648  0.62935672  1
  O  O179  1  0.37934311  0.38058507  0.38512763  1
  O  O180  1  0.37341161  0.39126670  0.87138210  1
  O  O181  1  0.36364529  0.88839386  0.38783532  1
  O  O182  1  0.37939058  0.88253789  0.87753306  1
  O  O183  1  0.88937629  0.38462973  0.36877675  1
  O  O184  1  0.88268040  0.38733954  0.87424605  1
  O  O185  1  0.87494331  0.88143389  0.38428104  1
  O  O186  1  0.87437660  0.88854884  0.87872396  1
  O  O187  1  0.25777659  0.00736942  0.36930784  1
  O  O188  1  0.26091266  0.01052845  0.88169829  1
  O  O189  1  0.25666367  0.50598223  0.37261470  1
  O  O190  1  0.25121126  0.50696039  0.86830824  1
  O  O191  1  0.76048846  -0.00663140  0.36360158  1
  O  O192  1  0.75529486  0.00760136  0.86974230  1
  O  O193  1  0.75741222  0.50372241  0.37085801  1
  O  O194  1  0.76411774  0.49845588  0.86244674  1
  O  O195  1  0.24395901  0.49906307  0.13319858  1
  O  O196  1  0.23907349  0.48861499  0.63569476  1
  O  O197  1  0.24616460  0.99693826  0.12714887  1
  O  O198  1  0.24543113  0.99148091  0.62007524  1
  O  O199  1  0.73774065  0.48915249  0.11822229  1
  O  O200  1  0.75736816  0.48432783  0.63204701  1
  O  O201  1  0.75006957  0.99343550  0.13396499  1
  O  O202  1  0.74340883  0.99475354  0.63124058  1
  O  O203  1  0.00862807  0.36801536  0.26064813  1
  O  O204  1  -0.00185027  0.37523536  0.77172419  1
  O  O205  1  0.00413411  0.86619369  0.25073160  1
  O  O206  1  0.01048307  0.87103950  0.74713563  1
  O  O207  1  0.49364813  0.36219400  0.26578088  1
  O  O208  1  0.51054597  0.36253775  0.75564049  1
  O  O209  1  0.50063839  0.86246142  0.24109834  1
  O  O210  1  0.48776941  0.86173246  0.75978471  1
  O  O211  1  0.50365398  0.13279382  0.23941668  1
  O  O212  1  0.49516967  0.13189187  0.75150380  1
  O  O213  1  0.49090344  0.63768189  0.24163962  1
  O  O214  1  0.48260409  0.63930819  0.75638245  1
  O  O215  1  0.99407034  0.13026781  0.24583536  1
  O  O216  1  0.98633753  0.12370322  0.74288845  1
  O  O217  1  0.99225219  0.63561743  0.24871498  1
  O  O218  1  0.99354311  0.63372106  0.74453584  1
  O  O219  1  0.36319245  0.24533746  0.00974227  1
  O  O220  1  0.36490712  0.25540821  0.50123939  1
  O  O221  1  0.36818163  0.75565100  0.00429523  1
  O  O222  1  0.35967352  0.76300782  0.49062325  1
  O  O223  1  0.86590865  0.24084177  0.01481318  1
  O  O224  1  0.86181185  0.25077963  0.48729298  1
  O  O225  1  0.86262403  0.75566360  -0.00359072  1
  O  O226  1  0.86591381  0.75903097  0.50353528  1
  O  O227  1  0.13933966  0.25028420  0.49445270  1
  O  O228  1  0.13583680  0.24483790  0.99496282  1
  O  O229  1  0.13258723  0.75871619  0.48773431  1
  O  O230  1  0.13193301  0.74997024  0.99539484  1
  O  O231  1  0.62881650  0.24744094  0.49279416  1
  O  O232  1  0.63647691  0.23690803  1.00695902  1
  O  O233  1  0.62950498  0.74568777  0.49081617  1
  O  O234  1  0.63109233  0.74724236  0.99289295  1
  O  O235  1  0.49430876  0.24325798  0.13452229  1
  O  O236  1  0.49548728  0.25249609  0.64273607  1
  O  O237  1  0.49363229  0.74246739  0.13203670  1
  O  O238  1  0.50293263  0.75831651  0.63973916  1
  O  O239  1  0.99455960  0.24607764  0.13007563  1
  O  O240  1  0.99920311  0.23370930  0.62286146  1
  O  O241  1  0.99621484  0.74988419  0.13669706  1
  O  O242  1  0.99276566  0.75263288  0.63498792  1
  O  O243  1  0.00652133  0.25573264  0.37143733  1
  O  O244  1  0.00965018  0.25955032  0.88291392  1
  O  O245  1  0.00730281  0.75123631  0.36649140  1
  O  O246  1  -0.00137618  0.75464945  0.86169922  1
  O  O247  1  0.50735169  0.25279578  0.37155899  1
  O  O248  1  0.49820066  0.24728418  0.85492980  1
  O  O249  1  0.51090690  0.74203177  0.36219984  1
  O  O250  1  0.50319548  0.75898409  0.87120611  1
  O  O251  1  0.24999106  0.13326658  0.49193035  1
  O  O252  1  0.24543466  0.13242765  0.98998858  1
  O  O253  1  0.25321781  0.63655563  0.48567726  1
  O  O254  1  0.24777031  0.63206918  0.99137932  1
  O  O255  1  0.75514622  0.13760040  0.50866775  1
  O  O256  1  0.74371752  0.12916166  0.99516054  1
  O  O257  1  0.75197082  0.64160971  0.50866670  1
  O  O258  1  0.74045649  0.63787228  0.99754178  1
  O  O259  1  0.25491799  0.36267110  0.00158386  1
  O  O260  1  0.25976130  0.36537330  0.50649961  1
  O  O261  1  0.25401640  0.87097399  0.00376368  1
  O  O262  1  0.25395928  0.87094767  0.51240523  1
  O  O263  1  0.74534034  0.35840824  -0.00792407  1
  O  O264  1  0.75200264  0.36800995  0.51417515  1
  O  O265  1  0.75232668  0.87071027  0.00523232  1
  O  O266  1  0.75621123  0.86933423  0.50813700  1
  O  O267  1  0.13039211  0.49530990  0.24415767  1
  O  O268  1  0.13788180  0.50185606  0.74482791  1
  O  O269  1  0.13127496  0.99545779  0.24414097  1
  O  O270  1  0.12071402  0.98939305  0.75179174  1
  O  O271  1  0.62978426  0.52030911  0.26197921  1
  O  O272  1  0.64157584  0.49028798  0.75019952  1
  O  O273  1  0.63398298  0.99938095  0.25063292  1
  O  O274  1  0.63692635  1.00442633  0.74319322  1
  O  O275  1  0.36955638  -0.00699200  0.26157841  1
  O  O276  1  0.38469735  0.00703158  0.76233919  1
  O  O277  1  0.36857954  0.50443338  0.26028067  1
  O  O278  1  0.36528391  0.51141117  0.75962007  1
  O  O279  1  0.86843257  0.00609505  0.25541272  1
  O  O280  1  0.86348105  0.00770353  0.75918053  1
  O  O281  1  0.88098623  0.51201501  0.26134761  1
  O  O282  1  0.87054762  0.50616155  0.75463314  1
  O  O283  1  0.12080234  0.36935812  0.36995576  1
  O  O284  1  0.11733083  0.36752934  0.87698349  1
  O  O285  1  0.12546708  0.86303706  0.36568402  1
  O  O286  1  0.12642135  0.87339654  0.85813154  1
  O  O287  1  0.61041775  0.36343294  0.38529251  1
  O  O288  1  0.63221231  0.37451270  0.85729306  1
  O  O289  1  0.62571551  0.86424667  0.37442005  1
  O  O290  1  0.61190636  0.86727503  0.87981207  1
  O  O291  1  0.38657486  0.13348040  0.11841883  1
  O  O292  1  0.36618626  0.12114937  0.64052445  1
  O  O293  1  0.37903221  0.63091818  0.12908413  1
  O  O294  1  0.36988505  0.61968037  0.64001652  1
  O  O295  1  0.88141343  0.13098573  0.13656951  1
  O  O296  1  0.87351687  0.12886632  0.64129467  1
  O  O297  1  0.87343870  0.62654402  0.13872334  1
  O  O298  1  0.87344932  0.63089355  0.63724481  1
  O  O299  1  0.25827900  0.24815161  0.11926935  1
  O  O300  1  0.25201138  0.25394649  0.61724588  1
  O  O301  1  0.25431960  0.75577449  0.12071939  1
  O  O302  1  0.24235199  0.75485052  0.61252370  1
  O  O303  1  0.75773327  0.25443139  0.12066270  1
  O  O304  1  0.75066641  0.25936199  0.61351046  1
  O  O305  1  0.74896587  0.75991793  0.11352030  1
  O  O306  1  0.75263863  0.76001610  0.62027071  1
  O  O307  1  0.24935137  0.24329171  0.38065593  1
  O  O308  1  0.24642980  0.24344238  0.88255110  1
  O  O309  1  0.24109277  0.74424788  0.37879258  1
  O  O310  1  0.25157273  0.74119609  0.87919158  1
  O  O311  1  0.73655129  0.25241444  0.39036005  1
  O  O312  1  0.76036598  0.23694236  0.88583715  1
  O  O313  1  0.74066380  0.75508337  0.38535310  1
  O  O314  1  0.73998254  0.75536046  0.88084136  1
  O  O315  1  0.00494562  0.12069672  0.00551794  1
  O  O316  1  0.00304366  0.12191076  0.51294424  1
  O  O317  1  0.00164215  0.61847356  0.00275788  1
  O  O318  1  -0.00273101  0.62231356  0.50688844  1
  O  O319  1  0.50775175  0.12379791  0.00593002  1
  O  O320  1  0.49209823  0.11360350  0.50582571  1
  O  O321  1  0.50566063  0.63493412  0.01016817  1
  O  O322  1  0.49611212  0.62334847  0.49181845  1
  O  O323  1  0.48703168  0.36338503  0.49540483  1
  O  O324  1  0.49108389  0.34741536  0.98520373  1
  O  O325  1  0.48431994  0.87715546  0.50513020  1
  O  O326  1  0.49322906  0.87993926  0.99149754  1
  O  O327  1  1.00887942  0.37701688  0.48853835  1
  O  O328  1  1.00116770  0.38284048  0.98353574  1
  O  O329  1  0.98409420  0.87419454  0.50187418  1
  O  O330  1  0.99256761  0.88259412  0.99754348  1
  O  O331  1  0.48450768  0.48853871  0.36984861  1
  O  O332  1  0.48512085  0.50048407  0.86867552  1
  O  O333  1  0.49108232  1.00529976  0.38853739  1
  O  O334  1  0.49434581  0.99228424  0.87869699  1
  O  O335  1  0.99606829  0.49201576  0.37718004  1
  O  O336  1  0.98960880  0.49419134  0.87295026  1
  O  O337  1  0.98469243  0.99583649  0.37239173  1
  O  O338  1  0.98951557  1.00217485  0.88048501  1
  O  O339  1  0.00471996  0.00569892  0.12057452  1
  O  O340  1  -0.01503379  0.01997712  0.62429569  1
  O  O341  1  0.01099641  0.50002297  0.12628046  1
  O  O342  1  0.02035791  0.49354307  0.62662730  1
  O  O343  1  0.49832495  0.00926947  0.11902314  1
  O  O344  1  0.50796359  -0.00539487  0.61275373  1
  O  O345  1  0.49921839  0.51557314  0.13581187  1
  O  O346  1  0.50060629  0.49781449  0.63772728  1
  O  O347  1  0.24424123  0.38136367  0.25142046  1
  O  O348  1  0.25928080  0.38156851  0.74184543  1
  O  O349  1  0.24465927  0.88119939  0.24220858  1
  O  O350  1  0.23937914  0.87253389  0.73627530  1
  O  O351  1  0.74352227  0.37448558  0.26591372  1
  O  O352  1  0.74819799  0.37668743  0.73976731  1
  O  O353  1  0.75009798  0.88375563  0.24060962  1
  O  O354  1  0.75588405  0.88600595  0.74031829  1
  O  O355  1  0.24705837  0.11911770  0.26010436  1
  O  O356  1  0.26016915  0.12978218  0.76404904  1
  O  O357  1  0.25517960  0.62057434  0.25950857  1
  O  O358  1  0.25909558  0.62090962  0.75734311  1
  O  O359  1  0.76007266  0.11534938  0.24245896  1
  O  O360  1  0.75846154  0.11907317  0.75810339  1
  O  O361  1  0.75469869  0.62925547  0.25018107  1
  O  O362  1  0.75873172  0.61640194  0.75128763  1
  O  O363  1  0.36389871  0.11352713  0.38089037  1
  O  O364  1  0.37040358  0.11824420  0.86955257  1
  O  O365  1  0.36670401  0.61704877  0.36987323  1
  O  O366  1  0.36403200  0.61531408  0.87073082  1
  O  O367  1  0.88087965  0.11707194  0.36238588  1
  O  O368  1  0.86876508  0.11666050  0.86972283  1
  O  O369  1  0.87601644  0.61783488  0.36333958  1
  O  O370  1  0.87414181  0.61658884  0.86142941  1
  O  O371  1  0.12741390  0.38301900  0.13211656  1
  O  O372  1  0.13859414  0.37891222  0.62180650  1
  O  O373  1  0.13007263  0.88204642  0.12857284  1
  O  O374  1  0.13407853  0.87552027  0.63475736  1
  O  O375  1  0.61693892  0.38018666  0.13598867  1
  O  O376  1  0.63619960  0.37366768  0.63622318  1
  O  O377  1  0.63581616  0.87880680  0.12436926  1
  O  O378  1  0.63705891  0.88445374  0.61854881  1
  O  O379  1  0.12059373  0.25456637  0.25550837  1
  O  O380  1  0.13217834  0.24498884  0.76416505  1
  O  O381  1  0.11681888  0.75475064  0.25602225  1
  O  O382  1  0.11448894  0.75592588  0.74885340  1
  O  O383  1  0.61586339  0.24521773  0.26480906  1
  O  O384  1  0.61766732  0.25127332  0.74417854  1
  O  O385  1  0.61815213  0.75396101  0.25620043  1
  O  O386  1  0.60751923  0.74321183  0.75795134  1
  O  O387  1  0.38352065  0.25012713  0.24103837  1
  O  O388  1  0.38455425  0.23889576  0.74861000  1
  O  O389  1  0.37928850  0.74761858  0.24603991  1
  O  O390  1  0.38121427  0.73873751  0.75230403  1
  O  O391  1  0.88024640  0.24105451  0.24643325  1
  O  O392  1  0.87107152  0.23605831  0.75923002  1
  O  O393  1  0.88192718  0.74354665  0.25238365  1
  O  O394  1  0.88094978  0.74477671  0.74619058  1
  O  O395  1  0.37239944  0.48867362  0.49146136  1
  O  O396  1  0.37076887  0.50057072  0.98532265  1
  O  O397  1  0.38554277  0.99362183  0.49514782  1
  O  O398  1  0.38128150  0.99621097  0.98891272  1
  O  O399  1  0.87467521  0.50533019  0.48260157  1
  O  O400  1  0.87003066  0.51067779  0.98134124  1
  O  O401  1  0.86903134  0.99126172  0.49068975  1
  O  O402  1  0.87757717  0.99842685  0.99272873  1
  O  O403  1  0.11959660  0.00598456  0.00418339  1
  O  O404  1  0.11803577  -0.00072549  0.48572328  1
  O  O405  1  0.12897766  0.50160640  0.01355309  1
  O  O406  1  0.13098686  0.49810312  0.51382784  1
  O  O407  1  0.61873323  0.01184909  0.00291794  1
  O  O408  1  0.60954376  -0.00252579  0.50344127  1
  O  O409  1  0.62563448  0.51779891  -0.01305388  1
  O  O410  1  0.63112955  0.50976248  0.49039192  1
  O  O411  1  0.37442658  0.36339269  0.12442055  1
  O  O412  1  0.36404479  0.37338429  0.61797681  1
  O  O413  1  0.36853439  0.87093566  0.11693184  1
  O  O414  1  0.35803711  0.88115528  0.61838371  1
  O  O415  1  0.87913406  0.36182028  0.13416969  1
  O  O416  1  0.86773112  0.37310193  0.62987155  1
  O  O417  1  0.86284891  0.87380657  0.11791968  1
  O  O418  1  0.86424136  0.87256942  0.61760872  1
  O  O419  1  0.13691574  0.13257179  0.37616517  1
  O  O420  1  0.13245331  0.13129878  0.87888820  1
  O  O421  1  0.13369893  0.63544242  0.36709484  1
  O  O422  1  0.13734502  0.62634445  0.87302257  1
  O  O423  1  0.62088955  0.13687808  0.37944009  1
  O  O424  1  0.63656816  0.11981561  0.88468284  1
  O  O425  1  0.63671175  0.63339287  0.37031238  1
  O  O426  1  0.62657033  0.64312310  0.88328280  1
