# generated using pymatgen
data_V85Zn86O256
_symmetry_space_group_name_H-M   'P 1'
_cell_length_a   16.96767860
_cell_length_b   16.96706343
_cell_length_c   16.97190629
_cell_angle_alpha   90.10589146
_cell_angle_beta   89.98663297
_cell_angle_gamma   89.92752695
_symmetry_Int_Tables_number   1
_chemical_formula_structural   V85Zn86O256
_chemical_formula_sum   'V85 Zn86 O256'
_cell_volume   4886.05820965
_cell_formula_units_Z   1
loop_
 _symmetry_equiv_pos_site_id
 _symmetry_equiv_pos_as_xyz
  1  'x, y, z'
loop_
 _atom_site_type_symbol
 _atom_site_label
 _atom_site_symmetry_multiplicity
 _atom_site_fract_x
 _atom_site_fract_y
 _atom_site_fract_z
 _atom_site_occupancy
  V  V0  1  0.74969384  0.74557873  0.49503833  1
  V  V1  1  0.00279823  0.00529858  0.51508165  1
  V  V2  1  0.88278082  0.49120547  0.87152214  1
  V  V3  1  0.87382744  0.87675199  0.49997752  1
  V  V4  1  0.37365061  0.75188041  0.12782065  1
  V  V5  1  -0.00028620  -0.00092255  0.00016998  1
  V  V6  1  0.62759532  0.87636977  0.25245955  1
  V  V7  1  0.49918189  0.62367665  0.12531247  1
  V  V8  1  0.37518818  0.25245140  0.12302424  1
  V  V9  1  0.24849337  0.50125940  0.24932854  1
  V  V10  1  0.75031400  0.49320838  0.74670418  1
  V  V11  1  0.88726971  0.24589315  0.62061280  1
  V  V12  1  0.87230574  0.00446196  0.37301717  1
  V  V13  1  0.24865780  0.74910913  -0.01259592  1
  V  V14  1  0.50001116  0.37259582  0.86577346  1
  V  V15  1  0.24959072  0.25142978  0.00060863  1
  V  V16  1  0.62601650  0.12371852  -0.00235574  1
  V  V17  1  0.01334348  0.62472324  0.61837681  1
  V  V18  1  0.24917763  0.00533213  0.26008854  1
  V  V19  1  0.86825698  0.51735512  0.37566252  1
  V  V20  1  0.00189062  0.87640039  0.37562830  1
  V  V21  1  0.75247116  0.51421115  0.25251089  1
  V  V22  1  0.37385816  0.49826037  0.38252489  1
  V  V23  1  0.25223841  0.87551356  0.12752347  1
  V  V24  1  0.37337127  0.62563028  0.25196951  1
  V  V25  1  0.12634416  0.87478298  0.25140820  1
  V  V26  1  0.75847702  0.37141842  0.61463381  1
  V  V27  1  0.37554387  0.87592936  0.00256512  1
  V  V28  1  0.87482332  -0.00087018  0.87022020  1
  V  V29  1  0.62480829  0.49790247  0.62161368  1
  V  V30  1  0.87264712  0.74822786  0.62371105  1
  V  V31  1  0.75761983  0.24367503  0.49395092  1
  V  V32  1  0.49711364  0.87644658  0.87582434  1
  V  V33  1  0.62876795  0.88419670  0.75156491  1
  V  V34  1  0.12751771  0.74790891  0.38733140  1
  V  V35  1  0.75064057  0.25520035  -0.00053250  1
  V  V36  1  0.23687728  0.50086518  0.74648771  1
  V  V37  1  0.39002440  0.89511639  0.49609784  1
  V  V38  1  0.12617520  0.12595313  0.51862867  1
  V  V39  1  0.62100276  0.11959500  0.50246658  1
  V  V40  1  0.50080003  0.25149543  0.24724843  1
  V  V41  1  0.50091549  0.12585330  0.12280560  1
  V  V42  1  0.88243736  0.37385390  -0.00627029  1
  V  V43  1  0.24314842  0.88043655  0.62004764  1
  V  V44  1  0.37453271  0.37681921  0.00027201  1
  V  V45  1  -0.00960913  0.37519815  0.38002784  1
  V  V46  1  0.50037995  0.50016558  -0.00069028  1
  V  V47  1  0.63165660  0.24135204  0.37138954  1
  V  V48  1  0.87360531  0.62271367  0.74686334  1
  V  V49  1  0.24532812  0.62944743  0.38826715  1
  V  V50  1  0.37353400  0.12385183  0.25603296  1
  V  V51  1  -0.00105510  0.25086195  0.25044640  1
  V  V52  1  0.12422375  -0.00022802  0.12602295  1
  V  V53  1  0.49912338  0.37474645  0.38024036  1
  V  V54  1  0.62600664  0.62371533  -0.00102610  1
  V  V55  1  0.86785960  0.12560183  0.25306591  1
  V  V56  1  0.87479379  0.87442445  0.00112928  1
  V  V57  1  0.49617143  -0.00095005  -0.00004061  1
  V  V58  1  0.74980925  0.74783964  -0.00118409  1
  V  V59  1  0.87610977  0.74189546  0.12929230  1
  V  V60  1  0.62796412  0.62076836  0.49485432  1
  V  V61  1  0.37216596  0.75231421  0.61677397  1
  V  V62  1  0.11706154  0.26222619  0.87284298  1
  V  V63  1  0.63336851  0.37579354  0.24684981  1
  V  V64  1  0.12396855  0.37644841  0.25084725  1
  V  V65  1  0.25348296  -0.00187649  0.75680797  1
  V  V66  1  0.00733269  0.75045721  0.75466946  1
  V  V67  1  0.62324525  0.24899306  0.86442114  1
  V  V68  1  0.13077533  0.24388111  0.37682685  1
  V  V69  1  0.25484957  0.11937708  0.87903810  1
  V  V70  1  0.74775665  0.88314096  0.62876939  1
  V  V71  1  0.75147248  0.12093172  0.86691783  1
  V  V72  1  0.12662055  0.63130802  -0.00860005  1
  V  V73  1  0.50288856  0.74929149  0.74906978  1
  V  V74  1  -0.00131160  0.12462446  0.12568667  1
  V  V75  1  0.12472739  0.12482456  0.00140541  1
  V  V76  1  0.63250774  0.49472637  0.12435183  1
  V  V77  1  0.37016360  0.50535318  0.87341403  1
  V  V78  1  0.87111691  0.25658473  0.12377569  1
  V  V79  1  0.62337549  0.74896141  0.37507354  1
  V  V80  1  0.88695193  0.12437416  0.74581457  1
  V  V81  1  0.00761200  0.50608377  0.49835093  1
  V  V82  1  -0.00237489  0.74330217  0.25025606  1
  V  V83  1  0.49977963  0.75173594  0.25521450  1
  V  V84  1  0.37088566  0.62577570  0.75251581  1
  Zn  Zn85  1  0.37987278  0.25181733  0.61947020  1
  Zn  Zn86  1  0.60219964  -0.01281283  0.60115232  1
  Zn  Zn87  1  0.62715748  0.74648467  0.87315511  1
  Zn  Zn88  1  0.74947277  0.00232191  0.24916013  1
  Zn  Zn89  1  0.00018082  0.62015426  0.12723528  1
  Zn  Zn90  1  0.75003718  0.87803794  0.12668072  1
  Zn  Zn91  1  0.32183970  0.34125208  0.49415073  1
  Zn  Zn92  1  0.24877601  0.37662536  0.12428492  1
  Zn  Zn93  1  0.37873933  0.13346684  0.75414809  1
  Zn  Zn94  1  0.00698410  0.86584397  0.88151658  1
  Zn  Zn95  1  0.61681548  0.36558743  0.73946972  1
  Zn  Zn96  1  0.00887690  0.25391372  0.74256505  1
  Zn  Zn97  1  0.49857848  0.62265773  0.62345915  1
  Zn  Zn98  1  0.74851588  0.62071119  0.87334966  1
  Zn  Zn99  1  0.62821649  -0.00105859  0.12554157  1
  Zn  Zn100  1  0.26184172  0.13093830  0.39300188  1
  Zn  Zn101  1  0.00552003  0.49935227  -0.00046862  1
  Zn  Zn102  1  0.12073936  0.50364488  0.12413056  1
  Zn  Zn103  1  0.49491237  0.49560867  0.50445574  1
  Zn  Zn104  1  0.24800854  0.37739270  0.63397697  1
  Zn  Zn105  1  0.12534404  0.88145100  0.75684991  1
  Zn  Zn106  1  0.50063218  0.13291329  0.64683886  1
  Zn  Zn107  1  0.18852122  0.18872856  0.18808963  1
  Zn  Zn108  1  0.19400475  0.18802926  0.69545614  1
  Zn  Zn109  1  0.18394615  0.68713495  0.18695567  1
  Zn  Zn110  1  0.19237620  0.69004598  0.68654577  1
  Zn  Zn111  1  0.68770459  0.18786117  0.18371174  1
  Zn  Zn112  1  0.69556765  0.18235951  0.68132778  1
  Zn  Zn113  1  0.68703106  0.68892855  0.18352611  1
  Zn  Zn114  1  0.68748521  0.68736640  0.68240344  1
  Zn  Zn115  1  0.31305489  0.31212261  0.31143166  1
  Zn  Zn116  1  0.30353924  0.31584742  0.81408925  1
  Zn  Zn117  1  0.31133721  0.81503328  0.31938543  1
  Zn  Zn118  1  0.31681719  0.81586128  0.80936191  1
  Zn  Zn119  1  0.81206363  0.31641806  0.31028053  1
  Zn  Zn120  1  0.81400711  0.30815334  0.80725016  1
  Zn  Zn121  1  0.81287417  0.81164975  0.31406244  1
  Zn  Zn122  1  0.81415984  0.81137314  0.81317630  1
  Zn  Zn123  1  0.18312844  0.44256841  0.43687485  1
  Zn  Zn124  1  0.18823218  0.44270583  0.93599309  1
  Zn  Zn125  1  0.18710698  0.93998354  0.44109063  1
  Zn  Zn126  1  0.18520643  0.93321449  0.93610426  1
  Zn  Zn127  1  0.69073396  0.43220925  0.43387407  1
  Zn  Zn128  1  0.68908124  0.43452326  0.93307999  1
  Zn  Zn129  1  0.68895342  0.93275643  0.43272920  1
  Zn  Zn130  1  0.68577277  0.93670620  0.93511729  1
  Zn  Zn131  1  0.31294477  0.06242807  0.06732994  1
  Zn  Zn132  1  0.31570728  0.06619180  0.57019459  1
  Zn  Zn133  1  0.30912414  0.56576612  0.06197537  1
  Zn  Zn134  1  0.30866801  0.56301231  0.56900047  1
  Zn  Zn135  1  0.81011726  0.06413777  0.06248835  1
  Zn  Zn136  1  0.81119429  0.06595746  0.55961551  1
  Zn  Zn137  1  0.81287901  0.55922023  0.06108214  1
  Zn  Zn138  1  0.81714037  0.56062511  0.55826541  1
  Zn  Zn139  1  0.43962791  0.43789926  0.18992913  1
  Zn  Zn140  1  0.42810547  0.42974447  0.68054159  1
  Zn  Zn141  1  0.44863556  0.94967792  0.20902032  1
  Zn  Zn142  1  0.43265293  0.94399654  0.68460837  1
  Zn  Zn143  1  0.93547863  0.44074709  0.18883971  1
  Zn  Zn144  1  0.94178535  0.43591485  0.67709010  1
  Zn  Zn145  1  0.93742767  0.93393078  0.18800687  1
  Zn  Zn146  1  0.93320682  0.93423516  0.68992240  1
  Zn  Zn147  1  0.05927368  0.06301897  0.31514805  1
  Zn  Zn148  1  0.06850396  0.06148320  0.81308851  1
  Zn  Zn149  1  0.06254748  0.56387890  0.31745848  1
  Zn  Zn150  1  0.05845789  0.57093059  0.81579370  1
  Zn  Zn151  1  0.55666240  0.05873135  0.31827062  1
  Zn  Zn152  1  0.55483278  0.05932631  0.80833204  1
  Zn  Zn153  1  0.56273040  0.56227244  0.31298774  1
  Zn  Zn154  1  0.56128802  0.56138235  0.81106029  1
  Zn  Zn155  1  0.44215896  0.19108616  0.44180748  1
  Zn  Zn156  1  0.43981652  0.18896207  0.93410180  1
  Zn  Zn157  1  0.43919568  0.68345779  0.43830476  1
  Zn  Zn158  1  0.43719686  0.68997643  0.93798664  1
  Zn  Zn159  1  0.94358177  0.18593432  0.43785581  1
  Zn  Zn160  1  0.93912067  0.18588599  0.93561121  1
  Zn  Zn161  1  0.93832256  0.68979964  0.43510745  1
  Zn  Zn162  1  0.93628422  0.68059518  0.93775671  1
  Zn  Zn163  1  0.06170252  0.31229532  0.06350091  1
  Zn  Zn164  1  0.09026552  0.32644416  0.55238443  1
  Zn  Zn165  1  0.06374850  0.81027784  0.06496675  1
  Zn  Zn166  1  0.05943631  0.81554421  0.56808574  1
  Zn  Zn167  1  0.56247239  0.31281114  0.05690936  1
  Zn  Zn168  1  0.56517119  0.30544734  0.56194558  1
  Zn  Zn169  1  0.56313991  0.81199580  0.06701269  1
  Zn  Zn170  1  0.56043091  0.81119675  0.56273566  1
  O  O171  1  0.11824793  0.12131471  0.12159562  1
  O  O172  1  0.12464235  0.13348234  0.61663172  1
  O  O173  1  0.12092658  0.62278028  0.11747068  1
  O  O174  1  0.11208871  0.63252379  0.62527022  1
  O  O175  1  0.61806381  0.12667326  0.11554553  1
  O  O176  1  0.62871498  0.12335228  0.60868171  1
  O  O177  1  0.61914194  0.61461375  0.11943324  1
  O  O178  1  0.62486043  0.61382298  0.61544911  1
  O  O179  1  0.37986911  0.38097485  0.37939962  1
  O  O180  1  0.38206992  0.38384535  0.88044570  1
  O  O181  1  0.36806042  0.86650453  0.40106770  1
  O  O182  1  0.39008799  0.86826983  0.88497870  1
  O  O183  1  0.88792531  0.37621407  0.37219546  1
  O  O184  1  0.87209934  0.38000148  0.87911818  1
  O  O185  1  0.88225114  0.88125279  0.38140127  1
  O  O186  1  0.87796303  0.88183348  0.88327521  1
  O  O187  1  0.24221687  0.00662397  0.36256551  1
  O  O188  1  0.24836418  0.00708852  0.87109789  1
  O  O189  1  0.25507659  0.50597083  0.36800496  1
  O  O190  1  0.26515340  0.50110335  0.86800487  1
  O  O191  1  0.76917468  -0.00669659  0.37313121  1
  O  O192  1  0.76287405  0.00958052  0.88365546  1
  O  O193  1  0.76153886  0.49693252  0.36927079  1
  O  O194  1  0.75829283  0.49773432  0.86069451  1
  O  O195  1  0.25045521  0.49850483  0.14015050  1
  O  O196  1  0.24700095  0.50318421  0.64212239  1
  O  O197  1  0.24081345  0.99485016  0.13089301  1
  O  O198  1  0.25319013  0.98680188  0.64005228  1
  O  O199  1  0.73860736  0.50263319  0.13210848  1
  O  O200  1  0.74750021  0.49128757  0.62693731  1
  O  O201  1  0.74661110  0.99718354  0.12850318  1
  O  O202  1  0.75085299  0.98377940  0.61725539  1
  O  O203  1  0.00630426  0.37115808  0.25827581  1
  O  O204  1  0.03466183  0.37187557  0.71153266  1
  O  O205  1  0.00667749  0.86873689  0.25644503  1
  O  O206  1  -0.00185817  0.85710250  0.74611031  1
  O  O207  1  0.50819368  0.37114572  0.25926555  1
  O  O208  1  0.49922652  0.38200758  0.76204622  1
  O  O209  1  0.51118514  0.85462521  0.24120128  1
  O  O210  1  0.50685236  0.86793279  0.75809555  1
  O  O211  1  0.49337876  0.13478162  0.24149500  1
  O  O212  1  0.49327548  0.13871059  0.76687661  1
  O  O213  1  0.49481017  0.63144846  0.24551647  1
  O  O214  1  0.49382043  0.63323230  0.74695600  1
  O  O215  1  0.99109249  0.13156256  0.24403478  1
  O  O216  1  0.98981609  0.12714526  0.75448642  1
  O  O217  1  1.00374431  0.64035891  0.25171089  1
  O  O218  1  0.99094431  0.63107183  0.73975014  1
  O  O219  1  0.37027153  0.25697865  0.00407860  1
  O  O220  1  0.36203569  0.23791681  0.50010272  1
  O  O221  1  0.36904004  0.75426528  0.00853267  1
  O  O222  1  0.38342077  0.74915823  0.51533571  1
  O  O223  1  0.87036445  0.25437208  0.00375003  1
  O  O224  1  0.86660365  0.23806484  0.50539870  1
  O  O225  1  0.86974960  0.75574549  0.00529514  1
  O  O226  1  0.86765286  0.75528617  0.50240616  1
  O  O227  1  0.11486127  0.23181557  0.49120653  1
  O  O228  1  0.12891950  0.24469273  0.99578015  1
  O  O229  1  0.11589997  0.75727704  0.48585396  1
  O  O230  1  0.13459808  0.74160386  1.00637638  1
  O  O231  1  0.63489018  0.23944435  0.48868344  1
  O  O232  1  0.63386528  0.24580240  0.99056490  1
  O  O233  1  0.62938172  0.74256435  0.49419982  1
  O  O234  1  0.63491035  0.74337364  1.00299580  1
  O  O235  1  0.49572992  0.24641324  0.12660474  1
  O  O236  1  0.49823481  0.24591226  0.62418250  1
  O  O237  1  0.49419855  0.74132065  0.13267432  1
  O  O238  1  0.49247769  0.75038105  0.63678113  1
  O  O239  1  0.99080106  0.24493286  0.13017945  1
  O  O240  1  0.98704639  0.25215275  0.61542305  1
  O  O241  1  0.99182869  0.75119860  0.13486873  1
  O  O242  1  0.99155811  0.74297367  0.63168883  1
  O  O243  1  0.00712425  0.25767792  0.37043591  1
  O  O244  1  0.01340932  0.24840750  0.87701551  1
  O  O245  1  0.00529630  0.75695569  0.36853996  1
  O  O246  1  -0.01193578  0.74590055  0.85682698  1
  O  O247  1  0.51099965  0.25775710  0.36723665  1
  O  O248  1  0.51267918  0.26193462  0.88380698  1
  O  O249  1  0.50969798  0.74165886  0.36538113  1
  O  O250  1  0.50255916  0.75694752  0.86622648  1
  O  O251  1  0.22908241  0.10844242  0.50137338  1
  O  O252  1  0.24470830  0.12973553  0.99861986  1
  O  O253  1  0.25183125  0.62037220  0.48702602  1
  O  O254  1  0.23907533  0.63627350  1.00590467  1
  O  O255  1  0.74159871  0.13621841  0.49833849  1
  O  O256  1  0.74807193  0.13460270  0.98840739  1
  O  O257  1  0.74132622  0.63573330  0.50762550  1
  O  O258  1  0.74545973  0.63204158  0.99870464  1
  O  O259  1  0.25726710  0.37101716  0.00205280  1
  O  O260  1  0.21150903  0.37257894  0.51972591  1
  O  O261  1  0.25577034  0.86910655  0.00787730  1
  O  O262  1  0.25442679  0.88447932  0.51744635  1
  O  O263  1  0.75971114  0.36159233  -0.00707675  1
  O  O264  1  0.74586457  0.36115851  0.50716781  1
  O  O265  1  0.75913791  0.86576887  -0.00152926  1
  O  O266  1  0.75320319  0.86486381  0.50728237  1
  O  O267  1  0.13235773  0.49204216  0.25525829  1
  O  O268  1  0.13994063  0.51663406  0.76107945  1
  O  O269  1  0.12940369  0.99646276  0.24521409  1
  O  O270  1  0.14172761  0.99910927  0.75304169  1
  O  O271  1  0.63091316  0.49474268  0.24425105  1
  O  O272  1  0.63584863  0.50012136  0.73863535  1
  O  O273  1  0.63049115  0.98740602  0.25332203  1
  O  O274  1  0.62895185  0.98377595  0.76012558  1
  O  O275  1  0.35578950  0.01476561  0.23470106  1
  O  O276  1  0.35818650  -0.00104209  0.75562726  1
  O  O277  1  0.36729921  0.50323819  0.26041464  1
  O  O278  1  0.37281818  0.50934534  0.75587090  1
  O  O279  1  0.87701094  0.00831634  0.25569577  1
  O  O280  1  0.88045565  0.00643614  0.76191173  1
  O  O281  1  0.86435576  0.49372294  0.26257406  1
  O  O282  1  0.87155884  0.50162787  0.75033755  1
  O  O283  1  0.11589696  0.36790378  0.36536125  1
  O  O284  1  0.12754984  0.36127793  0.88180718  1
  O  O285  1  0.12197318  0.86939862  0.37063035  1
  O  O286  1  0.11782853  0.87305466  0.87144891  1
  O  O287  1  0.61911481  0.36805879  0.36402322  1
  O  O288  1  0.61800150  0.36715525  0.86992929  1
  O  O289  1  0.62708897  0.85920515  0.36735093  1
  O  O290  1  0.61782057  0.86732818  0.86935764  1
  O  O291  1  0.38163519  0.13418257  0.13084530  1
  O  O292  1  0.37838229  0.12997732  0.63507955  1
  O  O293  1  0.37918117  0.63009834  0.13252457  1
  O  O294  1  0.37768724  0.63292569  0.63405434  1
  O  O295  1  0.88037856  0.13425097  0.13093040  1
  O  O296  1  0.86603485  0.13253438  0.63699071  1
  O  O297  1  0.87755405  0.63846604  0.11792447  1
  O  O298  1  0.88029645  0.62774148  0.63216061  1
  O  O299  1  0.25635014  0.25322767  0.11868707  1
  O  O300  1  0.25900386  0.26141980  0.64406434  1
  O  O301  1  0.25700787  0.75826831  0.12480212  1
  O  O302  1  0.26310470  0.76604926  0.63678485  1
  O  O303  1  0.75996889  0.24269779  0.11098504  1
  O  O304  1  0.75805852  0.25570655  0.61460421  1
  O  O305  1  0.75840898  0.75108868  0.11507834  1
  O  O306  1  0.75314251  0.75716918  0.61397314  1
  O  O307  1  0.23647763  0.25010729  0.37275416  1
  O  O308  1  0.23761263  0.24308012  0.88387676  1
  O  O309  1  0.23913757  0.74038383  0.36895946  1
  O  O310  1  0.25867945  0.75484744  0.88890914  1
  O  O311  1  0.74112951  0.25868490  0.38069185  1
  O  O312  1  0.74504790  0.24207850  0.88071290  1
  O  O313  1  0.74223814  0.75250276  0.38748434  1
  O  O314  1  0.75141973  0.74525693  0.88721732  1
  O  O315  1  0.00358572  0.11891548  0.00722833  1
  O  O316  1  0.00730005  0.11132535  0.50047156  1
  O  O317  1  0.01284219  0.62637311  0.00328150  1
  O  O318  1  -0.00897697  0.61720075  0.50589781  1
  O  O319  1  0.50442718  0.11711977  0.00127902  1
  O  O320  1  0.52113004  0.12626056  0.49323455  1
  O  O321  1  0.50532420  0.61974104  0.00533824  1
  O  O322  1  0.51361741  0.61804323  0.50296078  1
  O  O323  1  0.51269324  0.37724989  0.48275445  1
  O  O324  1  0.49461904  0.38230364  0.99078909  1
  O  O325  1  0.49094964  0.88196410  0.50848610  1
  O  O326  1  0.49745363  0.87894929  0.99627984  1
  O  O327  1  1.00975970  0.39173185  0.48911626  1
  O  O328  1  0.98604193  0.37578129  1.00163423  1
  O  O329  1  0.99450572  0.88613293  0.49723278  1
  O  O330  1  0.98918348  0.87815672  1.00195007  1
  O  O331  1  0.48990264  0.49200683  0.37228526  1
  O  O332  1  0.49420151  0.49232568  0.88016705  1
  O  O333  1  0.47804974  0.98364287  0.31733816  1
  O  O334  1  0.50599305  0.98656131  0.88802656  1
  O  O335  1  0.98682199  0.49737752  0.37839218  1
  O  O336  1  0.98576748  0.50359812  0.87575393  1
  O  O337  1  0.99124283  0.99342279  0.38058950  1
  O  O338  1  0.98838102  1.00159084  0.88347868  1
  O  O339  1  0.00453199  0.00411949  0.12084370  1
  O  O340  1  -0.00558044  -0.00490157  0.61330679  1
  O  O341  1  -0.00010454  0.50243527  0.12016161  1
  O  O342  1  -0.00670859  0.50928258  0.60498711  1
  O  O343  1  0.50493565  0.00701187  0.11694175  1
  O  O344  1  0.50720864  0.01683269  0.64751826  1
  O  O345  1  0.50824924  0.50489191  0.12053868  1
  O  O346  1  0.51446638  0.49545828  0.62357270  1
  O  O347  1  0.24129857  0.38413026  0.25240323  1
  O  O348  1  0.24734845  0.39790464  0.75490305  1
  O  O349  1  0.24657881  0.88481096  0.24759465  1
  O  O350  1  0.25053275  0.88396575  0.74721031  1
  O  O351  1  0.73696669  0.38327457  0.25111138  1
  O  O352  1  0.74977702  0.38242914  0.73794068  1
  O  O353  1  0.73936825  0.87221952  0.24932436  1
  O  O354  1  0.74120270  0.86282635  0.73984097  1
  O  O355  1  0.25700389  0.12133264  0.25066956  1
  O  O356  1  0.24973371  0.11129864  0.76255821  1
  O  O357  1  0.25450994  0.61633044  0.25718711  1
  O  O358  1  0.26438260  0.62121787  0.74835558  1
  O  O359  1  0.76440064  0.12690389  0.24619751  1
  O  O360  1  0.76238354  0.12956497  0.76212368  1
  O  O361  1  0.74365680  0.61350454  0.24948730  1
  O  O362  1  0.75927682  0.61299533  0.74405746  1
  O  O363  1  0.37629644  0.13302264  0.35891698  1
  O  O364  1  0.35745231  0.13372795  0.87875080  1
  O  O365  1  0.36740928  0.61884851  0.37010433  1
  O  O366  1  0.38550018  0.61578118  0.86544914  1
  O  O367  1  0.88454384  0.11735763  0.36332003  1
  O  O368  1  0.87003228  0.11900377  0.86824733  1
  O  O369  1  0.87488557  0.61611146  0.37091967  1
  O  O370  1  0.87153896  0.61315538  0.86148487  1
  O  O371  1  0.12483162  0.37609436  0.14007785  1
  O  O372  1  0.09695903  0.37696862  0.65609849  1
  O  O373  1  0.13102289  0.88013599  0.13197096  1
  O  O374  1  0.14010595  0.86667158  0.63239704  1
  O  O375  1  0.61586444  0.38504171  0.13371508  1
  O  O376  1  0.63668310  0.38171311  0.62327442  1
  O  O377  1  0.62812791  0.87422777  0.13801078  1
  O  O378  1  0.63073498  0.87595300  0.63230476  1
  O  O379  1  0.11901948  0.25715739  0.25581798  1
  O  O380  1  0.12353068  0.24159997  0.76985238  1
  O  O381  1  0.11631379  0.75821821  0.25642415  1
  O  O382  1  0.10796351  0.74368278  0.74828864  1
  O  O383  1  0.62315655  0.25708492  0.25245095  1
  O  O384  1  0.63720337  0.24910714  0.76136747  1
  O  O385  1  0.62030534  0.75087418  0.25751747  1
  O  O386  1  0.61578463  0.75353314  0.74850049  1
  O  O387  1  0.38032193  0.24569841  0.24302799  1
  O  O388  1  0.35627128  0.25121422  0.74005299  1
  O  O389  1  0.38215063  0.74646877  0.24911149  1
  O  O390  1  0.38484307  0.74430297  0.74523548  1
  O  O391  1  0.87771377  0.24596615  0.24255659  1
  O  O392  1  0.88459058  0.24431866  0.74079652  1
  O  O393  1  0.88434704  0.75898730  0.24053807  1
  O  O394  1  0.87730602  0.73860158  0.74329499  1
  O  O395  1  0.37452272  0.50557665  0.48653161  1
  O  O396  1  0.37928054  0.49900128  0.99299547  1
  O  O397  1  0.37428882  0.99372197  0.50163483  1
  O  O398  1  0.38830241  0.99333113  1.00836054  1
  O  O399  1  0.87972832  0.50153862  0.48147152  1
  O  O400  1  0.87021120  0.48909213  0.98850466  1
  O  O401  1  0.88494851  0.99922274  0.49336397  1
  O  O402  1  0.87946966  0.99221550  0.99490792  1
  O  O403  1  0.11922023  0.00454492  0.00758945  1
  O  O404  1  0.10935642  0.00789360  0.49856633  1
  O  O405  1  0.12752640  0.51370381  0.00211904  1
  O  O406  1  0.10508828  0.51430054  0.48393242  1
  O  O407  1  0.61577944  0.00527515  0.00045007  1
  O  O408  1  0.63484582  0.01456443  0.49109333  1
  O  O409  1  0.62309338  0.50132966  0.00659872  1
  O  O410  1  0.63178802  0.50578590  0.50577697  1
  O  O411  1  0.37625035  0.37052030  0.11922788  1
  O  O412  1  0.36679004  0.37658551  0.60402876  1
  O  O413  1  0.37154897  0.87006776  0.12213804  1
  O  O414  1  0.36864183  0.87074825  0.61568806  1
  O  O415  1  0.87667708  0.36139414  0.11709409  1
  O  O416  1  0.86532852  0.36384452  0.62695273  1
  O  O417  1  0.87359030  0.86615989  0.11441775  1
  O  O418  1  0.86659218  0.86791785  0.61984773  1
  O  O419  1  0.12410675  0.13558006  0.37632140  1
  O  O420  1  0.13408618  0.12961076  0.88637633  1
  O  O421  1  0.13355756  0.63600818  0.37035479  1
  O  O422  1  0.12252364  0.62833945  0.89214552  1
  O  O423  1  0.62213441  0.13606657  0.37404758  1
  O  O424  1  0.63418390  0.13030057  0.87851994  1
  O  O425  1  0.62385250  0.63264364  0.38448850  1
  O  O426  1  0.62800151  0.62490654  0.88231718  1
