# generated using pymatgen
data_V85Zn86O256
_symmetry_space_group_name_H-M   'P 1'
_cell_length_a   16.99245614
_cell_length_b   16.99575605
_cell_length_c   16.99143142
_cell_angle_alpha   89.97668454
_cell_angle_beta   90.13072775
_cell_angle_gamma   90.00226922
_symmetry_Int_Tables_number   1
_chemical_formula_structural   V85Zn86O256
_chemical_formula_sum   'V85 Zn86 O256'
_cell_volume   4907.10607975
_cell_formula_units_Z   1
loop_
 _symmetry_equiv_pos_site_id
 _symmetry_equiv_pos_as_xyz
  1  'x, y, z'
loop_
 _atom_site_type_symbol
 _atom_site_label
 _atom_site_symmetry_multiplicity
 _atom_site_fract_x
 _atom_site_fract_y
 _atom_site_fract_z
 _atom_site_occupancy
  V  V0  1  0.87373886  -0.00335154  0.36921779  1
  V  V1  1  0.49459851  0.13304909  0.62526223  1
  V  V2  1  0.87524449  0.00332553  0.87248344  1
  V  V3  1  0.25220585  0.25094296  0.50740364  1
  V  V4  1  0.25017956  0.75547001  0.50499063  1
  V  V5  1  0.50454674  0.85503021  0.87120405  1
  V  V6  1  -0.00237604  0.62766208  0.12574914  1
  V  V7  1  -0.00077070  0.50201781  0.00102404  1
  V  V8  1  0.50357343  0.62526916  0.64019283  1
  V  V9  1  0.37501544  0.24150110  0.12572113  1
  V  V10  1  0.50007905  0.37325864  0.37785492  1
  V  V11  1  0.38393800  0.37953314  0.00274075  1
  V  V12  1  0.00071358  0.87707931  0.37253390  1
  V  V13  1  0.25008426  0.63051083  0.88042160  1
  V  V14  1  0.62669824  -0.01935955  0.12078367  1
  V  V15  1  0.25129797  0.37431098  0.12482288  1
  V  V16  1  0.12489807  0.25021370  0.36960535  1
  V  V17  1  0.12751229  0.63591711  0.00258800  1
  V  V18  1  0.62182975  0.61818376  0.50368544  1
  V  V19  1  0.25029024  0.50010604  0.25216584  1
  V  V20  1  -0.00530630  0.25069585  0.74616601  1
  V  V21  1  0.37533562  0.37012973  0.50960674  1
  V  V22  1  0.62255145  0.61877785  -0.01657833  1
  V  V23  1  -0.00634465  0.13189269  0.62488581  1
  V  V24  1  0.12465124  0.37719495  0.75163102  1
  V  V25  1  0.74909919  0.00105719  0.74839998  1
  V  V26  1  0.74541073  0.74130726  -0.01687854  1
  V  V27  1  0.25079520  0.62519999  0.37703780  1
  V  V28  1  -0.00065872  0.74977196  0.75001508  1
  V  V29  1  0.29805130  0.93005154  0.67901364  1
  V  V30  1  0.12530440  0.50270068  0.12589049  1
  V  V31  1  0.25336888  0.50678791  0.75353706  1
  V  V32  1  0.62792276  0.86120013  0.75146269  1
  V  V33  1  0.00236695  0.00153927  0.00239782  1
  V  V34  1  0.86489734  0.87564245  0.00245514  1
  V  V35  1  0.49485370  0.25631391  0.74660390  1
  V  V36  1  -0.00006150  0.62593501  0.62550768  1
  V  V37  1  0.74374842  0.74988093  0.49808599  1
  V  V38  1  0.87471998  0.37297689  0.00429109  1
  V  V39  1  0.24877287  0.24030742  -0.00365797  1
  V  V40  1  0.86260464  0.75224877  0.12294018  1
  V  V41  1  0.49468490  0.24345857  0.24948756  1
  V  V42  1  0.87472563  0.13015573  0.24097138  1
  V  V43  1  0.00075195  0.49945747  0.49852494  1
  V  V44  1  0.37690933  0.00436031  0.36397197  1
  V  V45  1  0.37638157  0.49767551  0.37987117  1
  V  V46  1  0.86171946  0.62419903  0.75241111  1
  V  V47  1  0.12643728  0.50080872  0.62664379  1
  V  V48  1  0.51438674  0.12830192  0.12101908  1
  V  V49  1  0.12583662  0.62644193  0.50087896  1
  V  V50  1  0.62493929  0.24635292  0.37729447  1
  V  V51  1  0.25523392  0.12432413  0.36449262  1
  V  V52  1  -0.00285802  0.87588967  0.87377064  1
  V  V53  1  0.12448456  0.75280368  0.37100652  1
  V  V54  1  0.74729965  0.12793272  0.87817886  1
  V  V55  1  0.62762456  0.37647724  0.25189673  1
  V  V56  1  0.12507860  0.12536113  0.49823895  1
  V  V57  1  0.12503284  0.37594600  0.24981234  1
  V  V58  1  0.12092721  -0.00187547  0.62285643  1
  V  V59  1  0.50178219  -0.00016442  0.49800571  1
  V  V60  1  0.63057535  -0.00149405  0.62593450  1
  V  V61  1  0.86924405  0.87523540  0.50151974  1
  V  V62  1  0.12242448  0.87603098  0.74332821  1
  V  V63  1  0.74307421  0.62525593  0.37698565  1
  V  V64  1  0.37711421  0.74221009  0.63359083  1
  V  V65  1  0.74703662  0.25023964  0.00190276  1
  V  V66  1  0.62280600  0.25283436  0.87281226  1
  V  V67  1  0.50951402  0.86304652  0.35984390  1
  V  V68  1  0.86967854  0.62707170  0.24883087  1
  V  V69  1  0.75056680  0.37831991  0.63220540  1
  V  V70  1  0.50265029  0.01061300  -0.01545469  1
  V  V71  1  0.74778352  0.12140918  0.37214476  1
  V  V72  1  0.37590328  0.87698196  0.49644766  1
  V  V73  1  -0.00065005  0.37847155  0.87592025  1
  V  V74  1  0.75385565  0.37167586  0.12995637  1
  V  V75  1  0.12670238  0.24598159  0.87982452  1
  V  V76  1  0.74599769  -0.00901074  0.24068109  1
  V  V77  1  0.86706210  0.75303985  0.62399572  1
  V  V78  1  0.37615634  0.86905404  -0.00366774  1
  V  V79  1  0.62567923  0.12415336  0.49912139  1
  V  V80  1  0.86598393  0.50643742  0.87140275  1
  V  V81  1  0.87737466  0.50145394  0.37620827  1
  V  V82  1  0.38560329  0.63099608  0.25239841  1
  V  V83  1  0.00437628  0.13147017  0.11811736  1
  V  V84  1  0.37684805  0.50201289  0.88204757  1
  Zn  Zn85  1  0.62578469  0.39004456  0.74539465  1
  Zn  Zn86  1  0.25347455  -0.00123004  0.23991114  1
  Zn  Zn87  1  0.36767328  0.13640242  0.74678002  1
  Zn  Zn88  1  0.12932214  0.87999029  0.24498499  1
  Zn  Zn89  1  0.61799938  0.49595165  0.11179217  1
  Zn  Zn90  1  0.50400126  0.38385008  0.87533820  1
  Zn  Zn91  1  -0.00773559  0.75433908  0.24903937  1
  Zn  Zn92  1  0.75014840  0.49764020  0.24961704  1
  Zn  Zn93  1  0.50480337  0.49578799  0.51147964  1
  Zn  Zn94  1  -0.00648862  0.25492815  0.24090999  1
  Zn  Zn95  1  -0.00363466  0.00350198  0.49754728  1
  Zn  Zn96  1  0.00083275  0.37356572  0.37387191  1
  Zn  Zn97  1  0.87058325  0.13371717  0.74243982  1
  Zn  Zn98  1  0.26842515  0.09500703  0.86495434  1
  Zn  Zn99  1  0.38080265  0.75121966  0.12625083  1
  Zn  Zn100  1  0.24703034  0.86784864  0.12346634  1
  Zn  Zn101  1  0.50198594  0.61896890  0.11542580  1
  Zn  Zn102  1  0.76586219  0.24547212  0.51311079  1
  Zn  Zn103  1  0.12944536  0.75312925  0.87824096  1
  Zn  Zn104  1  0.87957212  0.36411345  0.51022965  1
  Zn  Zn105  1  0.13130573  -0.00092087  0.12344322  1
  Zn  Zn106  1  0.25544098  0.37253927  0.63142420  1
  Zn  Zn107  1  0.18564956  0.18610851  0.18303920  1
  Zn  Zn108  1  0.18310933  0.18446403  0.69214903  1
  Zn  Zn109  1  0.19878909  0.69231968  0.18521751  1
  Zn  Zn110  1  0.18951732  0.68764513  0.68902274  1
  Zn  Zn111  1  0.69032501  0.18916530  0.18992282  1
  Zn  Zn112  1  0.68581049  0.19357226  0.68723116  1
  Zn  Zn113  1  0.65276443  0.69573800  0.17358684  1
  Zn  Zn114  1  0.68399939  0.55600540  0.68695218  1
  Zn  Zn115  1  0.31260095  0.31242283  0.31409173  1
  Zn  Zn116  1  0.31276075  0.31500071  0.81667278  1
  Zn  Zn117  1  0.31333589  0.81631309  0.31294031  1
  Zn  Zn118  1  0.31878014  0.81178890  0.82144245  1
  Zn  Zn119  1  0.82048745  0.30428458  0.33494103  1
  Zn  Zn120  1  0.81243082  0.31846711  0.81410047  1
  Zn  Zn121  1  0.75566872  0.78556672  0.28273677  1
  Zn  Zn122  1  0.81130340  0.81487714  0.80904925  1
  Zn  Zn123  1  0.18896660  0.43539426  0.43883005  1
  Zn  Zn124  1  0.19029241  0.43713515  0.94181394  1
  Zn  Zn125  1  0.18987991  0.94034946  0.43499659  1
  Zn  Zn126  1  0.18758538  0.93087800  0.94024264  1
  Zn  Zn127  1  0.69332701  0.43591549  0.44641909  1
  Zn  Zn128  1  0.68817924  0.43647307  0.93148996  1
  Zn  Zn129  1  0.68800821  0.93660910  0.43385623  1
  Zn  Zn130  1  0.68344892  0.93756802  0.93497338  1
  Zn  Zn131  1  0.31949377  0.05556566  0.05834877  1
  Zn  Zn132  1  0.31435599  0.06837796  0.55512624  1
  Zn  Zn133  1  0.31134379  0.56442129  0.06517628  1
  Zn  Zn134  1  0.31355154  0.56230942  0.56512282  1
  Zn  Zn135  1  0.81217765  0.06330837  0.06175654  1
  Zn  Zn136  1  0.81140710  0.06244476  0.55918787  1
  Zn  Zn137  1  0.80483492  0.56011438  0.06202406  1
  Zn  Zn138  1  0.81525475  0.56147237  0.56340354  1
  Zn  Zn139  1  0.44062764  0.43856222  0.18813498  1
  Zn  Zn140  1  0.43939875  0.44199783  0.69412824  1
  Zn  Zn141  1  0.44371023  0.93778841  0.18176605  1
  Zn  Zn142  1  0.46036939  0.93580352  0.68544029  1
  Zn  Zn143  1  0.93790334  0.43922311  0.18883042  1
  Zn  Zn144  1  0.93236849  0.43884265  0.68695023  1
  Zn  Zn145  1  0.93646872  0.93858588  0.18504088  1
  Zn  Zn146  1  0.93742392  0.94161059  0.68461303  1
  Zn  Zn147  1  0.06388836  0.06328258  0.30503604  1
  Zn  Zn148  1  0.09505103  0.04305790  0.83419552  1
  Zn  Zn149  1  0.06125520  0.56755307  0.31078334  1
  Zn  Zn150  1  0.06082224  0.56472796  0.81625372  1
  Zn  Zn151  1  0.56213477  0.05587517  0.30699929  1
  Zn  Zn152  1  0.56511831  0.07300685  0.80642015  1
  Zn  Zn153  1  0.56315055  0.55988599  0.31872552  1
  Zn  Zn154  1  0.56057436  0.56960688  0.81856486  1
  Zn  Zn155  1  0.43687871  0.18692978  0.43935004  1
  Zn  Zn156  1  0.43259617  0.18880657  0.93275030  1
  Zn  Zn157  1  0.43944570  0.68855497  0.44095135  1
  Zn  Zn158  1  0.43913157  0.68355291  0.93420278  1
  Zn  Zn159  1  0.93951142  0.18416722  0.43328692  1
  Zn  Zn160  1  0.93629325  0.18964862  0.93302973  1
  Zn  Zn161  1  0.93647342  0.68914679  0.43673949  1
  Zn  Zn162  1  0.93608177  0.68782059  0.93682305  1
  Zn  Zn163  1  0.06418908  0.31368773  0.06160219  1
  Zn  Zn164  1  0.06683116  0.31365319  0.56160487  1
  Zn  Zn165  1  0.05418233  0.81593784  0.06658905  1
  Zn  Zn166  1  0.05685545  0.81333009  0.55946452  1
  Zn  Zn167  1  0.56614302  0.31271762  0.06312270  1
  Zn  Zn168  1  0.57043565  0.31602418  0.56449623  1
  Zn  Zn169  1  0.55530473  0.80185412  0.05872310  1
  Zn  Zn170  1  0.56302306  0.80994808  0.56495808  1
  O  O171  1  0.10785981  0.12165724  0.12485380  1
  O  O172  1  0.11692855  0.11597247  0.61868896  1
  O  O173  1  0.12055815  0.62299084  0.12117726  1
  O  O174  1  0.12015502  0.62096922  0.62016742  1
  O  O175  1  0.61547231  0.13311201  0.11995026  1
  O  O176  1  0.61849316  0.11781986  0.61883162  1
  O  O177  1  0.62813863  0.61640440  0.10571651  1
  O  O178  1  0.60959605  0.62279570  0.61913690  1
  O  O179  1  0.37926245  0.38044977  0.38379919  1
  O  O180  1  0.37501237  0.38453699  0.88714424  1
  O  O181  1  0.38507180  0.88421424  0.38273144  1
  O  O182  1  0.39527142  0.87532163  0.87821379  1
  O  O183  1  0.88082076  0.39608389  0.36807447  1
  O  O184  1  0.88134229  0.38570026  0.88324195  1
  O  O185  1  0.88366246  0.88675561  0.38206804  1
  O  O186  1  0.87925822  0.88313150  0.87952322  1
  O  O187  1  0.26071096  0.00991800  0.37633559  1
  O  O188  1  0.20072446  0.01040448  0.86628600  1
  O  O189  1  0.25684464  0.50417105  0.37315002  1
  O  O190  1  0.25335370  0.50793449  0.87125319  1
  O  O191  1  0.75474697  0.00360041  0.36369432  1
  O  O192  1  0.75224054  0.01027736  0.86941739  1
  O  O193  1  0.76138901  0.50938374  0.37874392  1
  O  O194  1  0.76790289  0.49520800  0.87476866  1
  O  O195  1  0.24409257  0.49446813  0.13270579  1
  O  O196  1  0.24448209  0.50163763  0.63643258  1
  O  O197  1  0.25123779  0.99276135  0.12127978  1
  O  O198  1  0.24291114  0.99488190  0.61935080  1
  O  O199  1  0.74528764  0.48365464  0.12837582  1
  O  O200  1  0.75217347  0.48973600  0.62260698  1
  O  O201  1  0.73368151  1.00448540  0.12399971  1
  O  O202  1  0.74084390  1.00695389  0.63361291  1
  O  O203  1  0.00829863  0.37232074  0.25088150  1
  O  O204  1  0.00851259  0.37231288  0.75357047  1
  O  O205  1  -0.00149231  0.87324420  0.26244463  1
  O  O206  1  0.00321860  0.86804488  0.75148774  1
  O  O207  1  0.50807659  0.36411405  0.25713563  1
  O  O208  1  0.50555581  0.36924394  0.75231215  1
  O  O209  1  0.49615939  0.87550375  0.26128458  1
  O  O210  1  0.51382224  0.87669293  0.76247791  1
  O  O211  1  0.50613955  0.13724918  0.23988416  1
  O  O212  1  0.49777817  0.13652703  0.73962561  1
  O  O213  1  0.48557527  0.61994740  0.26130655  1
  O  O214  1  0.50244387  0.63146186  0.73817917  1
  O  O215  1  0.99220450  0.12622936  0.23516838  1
  O  O216  1  0.99950371  0.13780730  0.73787636  1
  O  O217  1  0.98722927  0.63029063  0.24553209  1
  O  O218  1  0.99958998  0.63697901  0.74476177  1
  O  O219  1  0.36880753  0.25950476  0.00785084  1
  O  O220  1  0.36498896  0.25950062  0.49378972  1
  O  O221  1  0.38510783  0.76691879  -0.00719055  1
  O  O222  1  0.36784996  0.75978980  0.50794453  1
  O  O223  1  0.86475322  0.26646481  -0.01034791  1
  O  O224  1  0.86405959  0.26303682  0.45422016  1
  O  O225  1  0.86729260  0.75594666  0.00258235  1
  O  O226  1  0.87102927  0.75584606  0.50589451  1
  O  O227  1  0.13300278  0.24741141  0.48864368  1
  O  O228  1  0.13720441  0.26025700  0.99224968  1
  O  O229  1  0.13126291  0.74745291  0.49443854  1
  O  O230  1  0.11452750  0.73888976  0.99918432  1
  O  O231  1  0.62105752  0.24220236  0.48621300  1
  O  O232  1  0.63814190  0.25727119  0.98949035  1
  O  O233  1  0.63807239  0.74123271  0.51000815  1
  O  O234  1  0.64185716  0.74440509  1.00134413  1
  O  O235  1  0.49454124  0.24621114  0.12983180  1
  O  O236  1  0.51129986  0.24211997  0.63304920  1
  O  O237  1  0.49310777  0.73399365  0.12164925  1
  O  O238  1  0.48522123  0.74163738  0.61953394  1
  O  O239  1  1.00066277  0.23651373  0.12056100  1
  O  O240  1  1.00916231  0.24338164  0.63250330  1
  O  O241  1  0.98414482  0.74383837  0.12775927  1
  O  O242  1  0.99147785  0.74620951  0.63146570  1
  O  O243  1  0.01716851  0.24909221  0.36972941  1
  O  O244  1  0.00598887  0.26111002  0.86963274  1
  O  O245  1  0.00780471  0.75813353  0.37508403  1
  O  O246  1  -0.00147326  0.75599699  0.86203062  1
  O  O247  1  0.50521799  0.25101764  0.36732009  1
  O  O248  1  0.50995131  0.25057960  0.86748700  1
  O  O249  1  0.49461627  0.76597556  0.38096102  1
  O  O250  1  0.50448822  0.75711734  0.87093908  1
  O  O251  1  0.24473109  0.13387879  0.49098511  1
  O  O252  1  0.26106623  0.13943205  0.99757334  1
  O  O253  1  0.24589026  0.63359773  0.49625513  1
  O  O254  1  0.23706397  0.61983453  0.99395892  1
  O  O255  1  0.74334961  0.12665122  0.49027423  1
  O  O256  1  0.76061925  0.13862939  0.98932808  1
  O  O257  1  0.74304806  0.63006815  0.49726115  1
  O  O258  1  0.74754680  0.63639910  0.99614911  1
  O  O259  1  0.25949056  0.36764888  0.00813657  1
  O  O260  1  0.25769782  0.36746923  0.50235121  1
  O  O261  1  0.27405071  0.88095727  -0.00942513  1
  O  O262  1  0.26239279  0.86688813  0.49302326  1
  O  O263  1  0.75665977  0.36960121  0.00824840  1
  O  O264  1  0.75602160  0.36893184  0.51090896  1
  O  O265  1  0.76026154  0.86687436  -0.00919747  1
  O  O266  1  0.76105280  0.86502620  0.48957338  1
  O  O267  1  0.12983006  0.49755267  0.24617007  1
  O  O268  1  0.12931604  0.49361327  0.74825947  1
  O  O269  1  0.13199428  0.99858445  0.24480751  1
  O  O270  1  0.11518569  0.98665790  0.73294939  1
  O  O271  1  0.62838503  0.48190613  0.26072149  1
  O  O272  1  0.62567060  0.50130209  0.76239664  1
  O  O273  1  0.63204980  1.00432504  0.23100286  1
  O  O274  1  0.63358814  1.00312338  0.74161753  1
  O  O275  1  0.37821346  -0.00155374  0.26181213  1
  O  O276  1  0.36267812  -0.01621704  0.73222455  1
  O  O277  1  0.36983386  0.50217277  0.26529805  1
  O  O278  1  0.35883092  0.49210483  0.76313827  1
  O  O279  1  0.86880000  0.00832070  0.25330683  1
  O  O280  1  0.86367851  -0.00047630  0.75356166  1
  O  O281  1  0.87547745  0.51133119  0.25696432  1
  O  O282  1  0.88713015  0.51389429  0.75988429  1
  O  O283  1  0.12690589  0.36664663  0.36856889  1
  O  O284  1  0.11905110  0.37367624  0.86813744  1
  O  O285  1  0.11586917  0.86831739  0.37927203  1
  O  O286  1  0.11583274  0.86983225  0.86136687  1
  O  O287  1  0.62117809  0.36417519  0.37242157  1
  O  O288  1  0.62319587  0.36437119  0.87236099  1
  O  O289  1  0.60711369  0.88151506  0.38031381  1
  O  O290  1  0.61601686  0.87666182  0.86334507  1
  O  O291  1  0.38680270  0.13827469  0.11924705  1
  O  O292  1  0.39087442  0.12050683  0.62375210  1
  O  O293  1  0.37344996  0.61763938  0.14702595  1
  O  O294  1  0.38232162  0.63755953  0.62132217  1
  O  O295  1  0.88175297  0.12130570  0.13392588  1
  O  O296  1  0.88809555  0.12176630  0.62220031  1
  O  O297  1  0.87583202  0.62941737  0.13113251  1
  O  O298  1  0.88245634  0.63333273  0.63184160  1
  O  O299  1  0.25731362  0.25237222  0.11860123  1
  O  O300  1  0.23915991  0.25149126  0.60993500  1
  O  O301  1  0.26705882  0.75479486  0.12484539  1
  O  O302  1  0.26014132  0.74311078  0.61308054  1
  O  O303  1  0.74569208  0.26036875  0.11573019  1
  O  O304  1  0.74929014  0.26201105  0.62433827  1
  O  O305  1  0.76210365  0.74825812  0.11009979  1
  O  O306  1  0.76657609  0.75018297  0.61299714  1
  O  O307  1  0.24387513  0.24357211  0.38101901  1
  O  O308  1  0.24006071  0.25720780  0.88400592  1
  O  O309  1  0.24298707  0.74656089  0.38684821  1
  O  O310  1  0.24755929  0.73610553  0.86715227  1
  O  O311  1  0.73105608  0.23835779  0.36494666  1
  O  O312  1  0.74419813  0.24679159  0.87985352  1
  O  O313  1  0.76120625  0.73426576  0.38976076  1
  O  O314  1  0.75572958  0.75060225  0.88453675  1
  O  O315  1  -0.01327254  0.11731534  0.01056165  1
  O  O316  1  0.00716015  0.12629360  0.50582267  1
  O  O317  1  0.00621876  0.62114742  0.00625491  1
  O  O318  1  0.00605475  0.61940781  0.50483507  1
  O  O319  1  0.49722538  0.11543518  0.00535809  1
  O  O320  1  0.50611084  0.12027360  0.50567749  1
  O  O321  1  0.51851941  0.62826763  -0.00681846  1
  O  O322  1  0.51063037  0.62474114  0.50381583  1
  O  O323  1  0.49236207  0.37442610  0.49656082  1
  O  O324  1  0.48777963  0.36924911  0.99894339  1
  O  O325  1  0.48861921  0.88080417  0.50280532  1
  O  O326  1  0.50240538  0.88187292  0.98156716  1
  O  O327  1  1.00070121  0.38736828  0.49721528  1
  O  O328  1  0.99207257  0.38135205  0.99815617  1
  O  O329  1  0.98941033  0.87722167  0.48796892  1
  O  O330  1  0.98608833  0.88122032  0.99277563  1
  O  O331  1  0.48973530  0.49133574  0.38104392  1
  O  O332  1  0.47977085  0.50326897  0.86996787  1
  O  O333  1  0.49317090  0.99585023  0.38007300  1
  O  O334  1  0.51219345  1.00741586  0.88487794  1
  O  O335  1  0.99652590  0.50433242  0.38428545  1
  O  O336  1  0.99496095  0.49572854  0.88317804  1
  O  O337  1  0.99183351  0.99514914  0.37413519  1
  O  O338  1  0.99528926  0.99610298  0.88131299  1
  O  O339  1  -0.00479871  0.01053672  0.11577041  1
  O  O340  1  0.00598388  0.01041140  0.61942973  1
  O  O341  1  0.00524010  0.50823772  0.12104442  1
  O  O342  1  0.00570965  0.50581922  0.61633196  1
  O  O343  1  0.51477259  0.00992270  0.12024905  1
  O  O344  1  0.51182642  0.01151840  0.61864983  1
  O  O345  1  0.50583919  0.50541045  0.13012237  1
  O  O346  1  0.48451798  0.52101498  0.62458486  1
  O  O347  1  0.24553753  0.38024741  0.24499283  1
  O  O348  1  0.23887051  0.38345452  0.75155374  1
  O  O349  1  0.24888898  0.87969562  0.24826959  1
  O  O350  1  0.24177797  0.87226309  0.74462749  1
  O  O351  1  0.74413835  0.36895190  0.24566514  1
  O  O352  1  0.74934008  0.37291141  0.73769981  1
  O  O353  1  0.76193662  0.89400411  0.24807024  1
  O  O354  1  0.73757489  0.88995929  0.75789570  1
  O  O355  1  0.24919232  0.12669032  0.26205151  1
  O  O356  1  0.25496679  0.12575952  0.74992225  1
  O  O357  1  0.25773498  0.61744742  0.26011162  1
  O  O358  1  0.23957353  0.61383014  0.76251732  1
  O  O359  1  0.75644800  0.11582466  0.25167054  1
  O  O360  1  0.75170936  0.11865964  0.75720026  1
  O  O361  1  0.76001461  0.61888296  0.26185235  1
  O  O362  1  0.76462148  0.62582553  0.74057182  1
  O  O363  1  0.36704727  0.11591678  0.38226681  1
  O  O364  1  0.37590436  0.12424105  0.86316394  1
  O  O365  1  0.37088000  0.61542241  0.37396579  1
  O  O366  1  0.36067753  0.61504101  0.88736654  1
  O  O367  1  0.87085463  0.10965027  0.36674352  1
  O  O368  1  0.86510434  0.12116670  0.86869730  1
  O  O369  1  0.87115229  0.61872136  0.36903635  1
  O  O370  1  0.88155058  0.61828457  0.86489052  1
  O  O371  1  0.13091317  0.38199715  0.13018276  1
  O  O372  1  0.12673338  0.38284865  0.63619527  1
  O  O373  1  0.12582598  0.87688054  0.12657927  1
  O  O374  1  0.11721672  0.88356501  0.62933331  1
  O  O375  1  0.63311421  0.37359085  0.13634793  1
  O  O376  1  0.64098243  0.37874966  0.62516487  1
  O  O377  1  0.61875537  0.88343590  0.12051614  1
  O  O378  1  0.61328494  0.88915702  0.63845081  1
  O  O379  1  0.12760426  0.25678825  0.25629139  1
  O  O380  1  0.11747780  0.26253334  0.75769085  1
  O  O381  1  0.12515449  0.74867279  0.26575672  1
  O  O382  1  0.11499632  0.76034683  0.74326209  1
  O  O383  1  0.61527508  0.25675150  0.25721250  1
  O  O384  1  0.61592129  0.25290936  0.76004345  1
  O  O385  1  0.65241048  0.75612893  0.25927577  1
  O  O386  1  0.63412530  0.76744030  0.74171184  1
  O  O387  1  0.38534024  0.25757197  0.24009974  1
  O  O388  1  0.39088975  0.26001430  0.75147573  1
  O  O389  1  0.37226919  0.73088937  0.26165426  1
  O  O390  1  0.36810940  0.75738339  0.73098283  1
  O  O391  1  0.87670299  0.23405927  0.26146293  1
  O  O392  1  0.89155830  0.25369381  0.75756527  1
  O  O393  1  0.86436790  0.74029749  0.24105992  1
  O  O394  1  0.88171690  0.74717038  0.74277903  1
  O  O395  1  0.37177407  0.49118390  0.49107111  1
  O  O396  1  0.36562947  0.49007739  0.99474393  1
  O  O397  1  0.38024719  0.99246352  0.49319202  1
  O  O398  1  0.39897313  0.98994707  0.99984790  1
  O  O399  1  0.88839577  0.50535730  0.49135557  1
  O  O400  1  0.87947012  0.49407606  0.99387667  1
  O  O401  1  0.87187707  0.99251346  0.48872136  1
  O  O402  1  0.87785647  0.99262256  0.99326899  1
  O  O403  1  0.10396388  -0.00971249  0.00202539  1
  O  O404  1  0.12390922  0.00465264  0.50804173  1
  O  O405  1  0.11882746  0.50772825  0.00771763  1
  O  O406  1  0.11977472  0.50583194  0.50417434  1
  O  O407  1  0.61465721  -0.00393233  0.01045008  1
  O  O408  1  0.62373816  0.00401404  0.50804122  1
  O  O409  1  0.63440347  0.51358645  -0.00708402  1
  O  O410  1  0.62300568  0.51249006  0.49758425  1
  O  O411  1  0.37074616  0.36639328  0.12070574  1
  O  O412  1  0.37466125  0.38245700  0.61259899  1
  O  O413  1  0.38797005  0.87529856  0.10376473  1
  O  O414  1  0.36893108  0.87198395  0.61993109  1
  O  O415  1  0.86803166  0.38085959  0.11521962  1
  O  O416  1  0.86325829  0.37732088  0.62371003  1
  O  O417  1  0.87984276  0.86635437  0.11243482  1
  O  O418  1  0.88362163  0.86856258  0.61060516  1
  O  O419  1  0.13358621  0.13182956  0.37802179  1
  O  O420  1  0.11298947  0.14839440  0.87326674  1
  O  O421  1  0.12948401  0.63416228  0.38147112  1
  O  O422  1  0.13052226  0.62775316  0.88584381  1
  O  O423  1  0.62624263  0.12705580  0.37785084  1
  O  O424  1  0.63940281  0.13691592  0.87131420  1
  O  O425  1  0.63686929  0.62010393  0.38460277  1
  O  O426  1  0.62870030  0.63165952  0.88476819  1
