# generated using pymatgen
data_V85Zn86O256
_symmetry_space_group_name_H-M   'P 1'
_cell_length_a   16.94318804
_cell_length_b   16.95070702
_cell_length_c   16.93731006
_cell_angle_alpha   90.09732864
_cell_angle_beta   90.00254416
_cell_angle_gamma   90.09782701
_symmetry_Int_Tables_number   1
_chemical_formula_structural   V85Zn86O256
_chemical_formula_sum   'V85 Zn86 O256'
_cell_volume   4864.36467730
_cell_formula_units_Z   1
loop_
 _symmetry_equiv_pos_site_id
 _symmetry_equiv_pos_as_xyz
  1  'x, y, z'
loop_
 _atom_site_type_symbol
 _atom_site_label
 _atom_site_symmetry_multiplicity
 _atom_site_fract_x
 _atom_site_fract_y
 _atom_site_fract_z
 _atom_site_occupancy
  V  V0  1  0.01064390  0.00226585  -0.00329853  1
  V  V1  1  0.01394629  -0.00025207  0.49853867  1
  V  V2  1  0.73859590  0.49467889  0.74798559  1
  V  V3  1  0.49253511  0.62228462  0.63341038  1
  V  V4  1  0.62376082  0.49938123  0.12610249  1
  V  V5  1  0.86852025  0.12079483  0.74113338  1
  V  V6  1  0.00031009  0.49968531  0.49848843  1
  V  V7  1  0.74674271  0.62249050  0.87384433  1
  V  V8  1  0.24817495  0.62902700  0.37549705  1
  V  V9  1  0.13031797  0.37480316  0.24983309  1
  V  V10  1  0.25323387  0.49985948  0.24965123  1
  V  V11  1  0.75328546  0.36805847  0.12482962  1
  V  V12  1  0.87433183  0.87570726  0.00150024  1
  V  V13  1  0.00345492  0.75422354  0.26424171  1
  V  V14  1  0.87140761  0.62326330  0.74786219  1
  V  V15  1  0.75150367  0.11962839  0.36929632  1
  V  V16  1  0.37592745  -0.00604446  0.37565826  1
  V  V17  1  0.37697518  0.87518499  0.00220420  1
  V  V18  1  -0.01011422  0.25268309  0.73753254  1
  V  V19  1  0.61858554  0.86964036  0.25012377  1
  V  V20  1  0.75282261  0.87618800  0.13310416  1
  V  V21  1  0.37297784  0.01550222  0.87929311  1
  V  V22  1  0.12487630  0.50118060  0.62436187  1
  V  V23  1  -0.00316249  0.24918384  0.24462297  1
  V  V24  1  0.75248208  0.24629883  0.50013381  1
  V  V25  1  0.12155538  0.74913802  0.87242392  1
  V  V26  1  -0.00117845  0.62478815  0.62454537  1
  V  V27  1  0.12752951  0.63211066  0.49676424  1
  V  V28  1  0.38759315  0.62913954  0.24803460  1
  V  V29  1  0.87849860  0.87691478  0.49415838  1
  V  V30  1  0.62337746  0.62380140  0.00436365  1
  V  V31  1  0.37913747  0.77785279  0.62852416  1
  V  V32  1  0.12263392  0.87281904  0.26828787  1
  V  V33  1  0.62086184  0.24913756  0.86412100  1
  V  V34  1  0.75168433  0.24594957  -0.00753321  1
  V  V35  1  0.12794602  0.50064103  0.12650246  1
  V  V36  1  0.38360669  0.13048485  0.24902594  1
  V  V37  1  0.75078125  0.87833942  0.62501756  1
  V  V38  1  -0.00180341  0.50277985  0.00528608  1
  V  V39  1  0.24536514  0.12588103  0.37705752  1
  V  V40  1  0.87802054  -0.00238165  0.37101814  1
  V  V41  1  0.62371964  0.00228137  0.62053467  1
  V  V42  1  0.61655325  0.74789959  0.36945237  1
  V  V43  1  0.49932780  -0.01168430  0.49422333  1
  V  V44  1  0.24527843  0.24754278  0.49969020  1
  V  V45  1  0.00754596  0.12574834  0.11920606  1
  V  V46  1  0.75020320  0.62224703  0.37478456  1
  V  V47  1  0.37303127  0.50181837  0.87120356  1
  V  V48  1  0.74820317  0.74863184  0.49898047  1
  V  V49  1  0.63305987  0.12160162  -0.00594208  1
  V  V50  1  0.38502421  0.74696541  0.13069556  1
  V  V51  1  0.12411871  0.37411451  0.74939231  1
  V  V52  1  0.25687519  0.76571235  0.50231656  1
  V  V53  1  0.50043400  0.37045656  0.86332364  1
  V  V54  1  0.24486328  0.87424685  0.12333575  1
  V  V55  1  0.36730671  0.37796298  0.00640829  1
  V  V56  1  0.61938043  0.36390685  0.24778291  1
  V  V57  1  0.75013131  0.74637816  0.00091523  1
  V  V58  1  -0.00181710  0.37580266  0.87309963  1
  V  V59  1  0.12090286  0.62582921  0.00578660  1
  V  V60  1  0.87453981  0.36870939  0.50386846  1
  V  V61  1  0.61780961  0.12292545  0.49782237  1
  V  V62  1  0.37916336  0.25497010  0.12927523  1
  V  V63  1  0.50025918  0.37328602  0.37455556  1
  V  V64  1  -0.00225089  0.74897017  0.74811254  1
  V  V65  1  0.38127469  0.38323267  0.50023542  1
  V  V66  1  0.63248051  -0.00087064  0.13198439  1
  V  V67  1  0.61469647  0.61789173  0.50087677  1
  V  V68  1  0.24420767  0.24412687  0.00389167  1
  V  V69  1  0.87603059  0.36752728  0.00334396  1
  V  V70  1  0.50380280  -0.00190854  0.00455992  1
  V  V71  1  0.74312605  0.37263505  0.62566259  1
  V  V72  1  0.00027019  0.37341494  0.37384143  1
  V  V73  1  0.01243001  0.12439223  0.61711442  1
  V  V74  1  0.24969238  0.00179393  0.25106502  1
  V  V75  1  0.88229257  0.62361169  0.24696822  1
  V  V76  1  0.24821101  0.75018635  -0.00025633  1
  V  V77  1  0.61597287  0.87135582  0.75010302  1
  V  V78  1  0.87666263  0.12290107  0.24454345  1
  V  V79  1  0.38826970  0.24408484  0.63058143  1
  V  V80  1  0.87454510  0.49842100  0.37382841  1
  V  V81  1  0.49927100  0.50129927  0.00331842  1
  V  V82  1  -0.00718901  0.87512102  0.87335919  1
  V  V83  1  0.88371335  0.74539327  0.12642269  1
  V  V84  1  0.25076268  0.37414066  0.62563987  1
  Zn  Zn85  1  0.22576241  0.12428762  0.87251886  1
  Zn  Zn86  1  0.48830498  0.86443459  0.36959345  1
  Zn  Zn87  1  0.86935183  0.01638921  0.88257465  1
  Zn  Zn88  1  0.51003504  0.13338272  0.13258755  1
  Zn  Zn89  1  0.38412574  0.50589097  0.38035705  1
  Zn  Zn90  1  0.48933420  0.86842981  0.86307007  1
  Zn  Zn91  1  0.87018474  0.49898613  0.87506561  1
  Zn  Zn92  1  0.61631745  0.24239039  0.36733603  1
  Zn  Zn93  1  0.44231645  0.17699364  0.78376689  1
  Zn  Zn94  1  0.37461427  0.64714147  0.75724400  1
  Zn  Zn95  1  0.75182323  0.49619361  0.24922708  1
  Zn  Zn96  1  0.13058604  0.00490116  0.11628996  1
  Zn  Zn97  1  0.23575251  0.01273486  0.73439316  1
  Zn  Zn98  1  0.61438956  0.49206035  0.62206753  1
  Zn  Zn99  1  0.74925171  0.00184395  0.76353838  1
  Zn  Zn100  1  0.12124282  0.24750856  0.88213281  1
  Zn  Zn101  1  0.12402369  0.24440987  0.37643141  1
  Zn  Zn102  1  0.61668666  0.74496336  0.86616719  1
  Zn  Zn103  1  0.12293051  0.89047663  0.73584362  1
  Zn  Zn104  1  0.25015537  0.50817530  0.74992338  1
  Zn  Zn105  1  0.87389583  0.75025184  0.62341540  1
  Zn  Zn106  1  0.24985390  0.62669181  0.87203895  1
  Zn  Zn107  1  0.19141822  0.19141628  0.18487019  1
  Zn  Zn108  1  0.19054744  0.18495726  0.69168498  1
  Zn  Zn109  1  0.18816917  0.68904195  0.18865842  1
  Zn  Zn110  1  0.19274509  0.69561543  0.68527615  1
  Zn  Zn111  1  0.69412455  0.18636069  0.18319886  1
  Zn  Zn112  1  0.68629488  0.18717367  0.68101970  1
  Zn  Zn113  1  0.69200350  0.68643521  0.18827083  1
  Zn  Zn114  1  0.68390723  0.68614310  0.68459875  1
  Zn  Zn115  1  0.31511401  0.31340962  0.31508734  1
  Zn  Zn116  1  0.31119725  0.31163523  0.81690348  1
  Zn  Zn117  1  0.30628245  0.80928949  0.31206419  1
  Zn  Zn118  1  0.30313852  0.82761266  0.80566645  1
  Zn  Zn119  1  0.81090873  0.30784322  0.31306046  1
  Zn  Zn120  1  0.81149612  0.31086375  0.81198478  1
  Zn  Zn121  1  0.81100656  0.80936841  0.31249493  1
  Zn  Zn122  1  0.80729603  0.80889454  0.81193705  1
  Zn  Zn123  1  0.19105517  0.43960928  0.43639212  1
  Zn  Zn124  1  0.18733604  0.43678000  0.93677714  1
  Zn  Zn125  1  0.19156897  0.93755353  0.56977925  1
  Zn  Zn126  1  0.19409151  0.93258931  0.91116877  1
  Zn  Zn127  1  0.68573211  0.43509556  0.43503315  1
  Zn  Zn128  1  0.68536286  0.43297794  0.93480221  1
  Zn  Zn129  1  0.68971434  0.93624311  0.43280960  1
  Zn  Zn130  1  0.69281582  0.93428694  0.93803286  1
  Zn  Zn131  1  0.31382123  0.06691239  0.06426437  1
  Zn  Zn132  1  0.31791603  0.06566421  0.56062766  1
  Zn  Zn133  1  0.31086137  0.56637611  0.06364049  1
  Zn  Zn134  1  0.31159728  0.56534139  0.56538594  1
  Zn  Zn135  1  0.81726738  0.06155815  0.06236822  1
  Zn  Zn136  1  0.81793849  0.06462239  0.56133824  1
  Zn  Zn137  1  0.81155977  0.55864132  0.06362763  1
  Zn  Zn138  1  0.80933653  0.55820488  0.56291991  1
  Zn  Zn139  1  0.43888734  0.43850971  0.19037899  1
  Zn  Zn140  1  0.43612513  0.43805585  0.68581617  1
  Zn  Zn141  1  0.43875491  0.93877027  0.18673100  1
  Zn  Zn142  1  0.44941599  0.99296864  0.70187145  1
  Zn  Zn143  1  0.93980463  0.43628054  0.18610027  1
  Zn  Zn144  1  0.93116042  0.44116102  0.68525567  1
  Zn  Zn145  1  0.94388196  0.93865037  0.18500013  1
  Zn  Zn146  1  0.94211741  0.94090892  0.68361970  1
  Zn  Zn147  1  0.06243945  0.05801647  0.31137748  1
  Zn  Zn148  1  0.05978517  0.06757815  0.81057178  1
  Zn  Zn149  1  0.06229480  0.56436851  0.31330596  1
  Zn  Zn150  1  0.06118377  0.56272051  0.81351023  1
  Zn  Zn151  1  0.56361089  0.05716567  0.31221259  1
  Zn  Zn152  1  0.57027750  0.05370498  0.81674238  1
  Zn  Zn153  1  0.56520426  0.55521532  0.31400663  1
  Zn  Zn154  1  0.55760874  0.56240893  0.81327912  1
  Zn  Zn155  1  0.43239261  0.19085420  0.43770063  1
  Zn  Zn156  1  0.44566871  0.19299970  0.95636662  1
  Zn  Zn157  1  0.43257620  0.68685347  0.44286276  1
  Zn  Zn158  1  0.43926472  0.68959064  0.93994647  1
  Zn  Zn159  1  0.93967468  0.18552417  0.43423644  1
  Zn  Zn160  1  0.94206297  0.18613270  0.93063701  1
  Zn  Zn161  1  0.93673629  0.68654424  0.43717065  1
  Zn  Zn162  1  0.93421461  0.68517467  0.93569385  1
  Zn  Zn163  1  0.06258389  0.31642940  0.06836451  1
  Zn  Zn164  1  0.06305886  0.31156182  0.56183723  1
  Zn  Zn165  1  0.06045902  0.81452582  0.06197153  1
  Zn  Zn166  1  0.06047448  0.81123568  0.56002620  1
  Zn  Zn167  1  0.56248837  0.31408375  0.05565663  1
  Zn  Zn168  1  0.56333215  0.30877464  0.55583108  1
  Zn  Zn169  1  0.56369730  0.81075969  0.06232827  1
  Zn  Zn170  1  0.55931729  0.80948433  0.56346642  1
  O  O171  1  0.11342002  0.12284530  0.13038962  1
  O  O172  1  0.11157393  0.13154336  0.62236572  1
  O  O173  1  0.12644457  0.61760122  0.11479570  1
  O  O174  1  0.12032285  0.62050557  0.61734922  1
  O  O175  1  0.62985392  0.11453064  0.11860730  1
  O  O176  1  0.63468084  0.11284922  0.60904778  1
  O  O177  1  0.63648677  0.61047769  0.11715978  1
  O  O178  1  0.61000358  0.62874185  0.61708143  1
  O  O179  1  0.38159695  0.37777688  0.38295741  1
  O  O180  1  0.38139700  0.38241424  0.88479307  1
  O  O181  1  0.37237838  0.88911623  0.36301405  1
  O  O182  1  0.37222678  0.88315999  0.89445869  1
  O  O183  1  0.87958112  0.37861296  0.38151569  1
  O  O184  1  0.88226694  0.37791056  0.88348850  1
  O  O185  1  0.86587496  0.88411641  0.38308020  1
  O  O186  1  0.88388728  0.86463054  0.88286727  1
  O  O187  1  0.26024413  0.00945197  0.36145644  1
  O  O188  1  0.27180298  0.01893405  0.90688562  1
  O  O189  1  0.25337566  0.51071589  0.36591211  1
  O  O190  1  0.25988568  0.50181600  0.87500276  1
  O  O191  1  0.76172710  0.01114124  0.37866365  1
  O  O192  1  0.75860712  -0.00213919  0.87611284  1
  O  O193  1  0.75679153  0.50409956  0.37239314  1
  O  O194  1  0.74780585  0.50196188  0.86596795  1
  O  O195  1  0.23878710  0.50593225  0.13614278  1
  O  O196  1  0.24492894  0.48851165  0.62706434  1
  O  O197  1  0.25145919  0.99432245  0.13458127  1
  O  O198  1  0.26748163  0.99407686  0.62639595  1
  O  O199  1  0.74143007  0.48521972  0.12301844  1
  O  O200  1  0.74445666  0.49118575  0.63102035  1
  O  O201  1  0.74328175  0.98782269  0.11814480  1
  O  O202  1  0.74090410  0.98881290  0.61390527  1
  O  O203  1  0.00611456  0.36732136  0.25325519  1
  O  O204  1  0.00145578  0.37325016  0.75230030  1
  O  O205  1  0.01511658  0.87063852  0.24672055  1
  O  O206  1  -0.00326218  0.86785545  0.75816027  1
  O  O207  1  0.51095407  0.37606492  0.25523633  1
  O  O208  1  0.49883838  0.38148179  0.76436846  1
  O  O209  1  0.51397162  0.87547587  0.24988059  1
  O  O210  1  0.51488017  0.88921338  0.74624329  1
  O  O211  1  0.48874606  0.12142431  0.25068135  1
  O  O212  1  0.49791377  0.09212202  0.74126369  1
  O  O213  1  0.48623701  0.61762583  0.25599449  1
  O  O214  1  0.49864874  0.63029214  0.73839401  1
  O  O215  1  0.99653834  0.13087471  0.24353019  1
  O  O216  1  0.99331039  0.13522180  0.73212274  1
  O  O217  1  0.98964571  0.63430853  0.25507310  1
  O  O218  1  0.99288828  0.62758849  0.74467797  1
  O  O219  1  0.36602727  0.25965603  0.00762082  1
  O  O220  1  0.36588207  0.26123536  0.51011000  1
  O  O221  1  0.36833295  0.75711337  0.00926700  1
  O  O222  1  0.36488286  0.75475484  0.50841078  1
  O  O223  1  0.86837499  0.25972657  -0.00910556  1
  O  O224  1  0.86664769  0.25888903  0.49057570  1
  O  O225  1  0.87110666  0.75219866  0.00900376  1
  O  O226  1  0.86542050  0.75816112  0.49703495  1
  O  O227  1  0.14020973  0.25807394  0.49576030  1
  O  O228  1  0.14191929  0.26524209  1.00533803  1
  O  O229  1  0.13849124  0.73740317  0.50593521  1
  O  O230  1  0.12453519  0.74154078  0.99602120  1
  O  O231  1  0.63385132  0.23787577  0.49408095  1
  O  O232  1  0.63128440  0.23884246  0.99373719  1
  O  O233  1  0.63283771  0.74260633  0.49190348  1
  O  O234  1  0.63282543  0.73540413  1.01036706  1
  O  O235  1  0.48604009  0.24792532  0.11211830  1
  O  O236  1  0.48757568  0.25609099  0.62246992  1
  O  O237  1  0.48418761  0.75454044  0.12276000  1
  O  O238  1  0.48358467  0.74331067  0.61924096  1
  O  O239  1  1.00389490  0.24279014  0.13553395  1
  O  O240  1  0.99979714  0.24125932  0.62675785  1
  O  O241  1  0.98759204  0.75553316  0.13287766  1
  O  O242  1  0.99545316  0.74153703  0.62909789  1
  O  O243  1  0.00525111  0.25352829  0.36480174  1
  O  O244  1  -0.00060924  0.26588723  0.86390947  1
  O  O245  1  -0.00426338  0.75305898  0.36417512  1
  O  O246  1  0.00274531  0.75266466  0.86925313  1
  O  O247  1  0.49989906  0.26417018  0.37854195  1
  O  O248  1  0.50221419  0.25248063  0.87238828  1
  O  O249  1  0.51274885  0.74941605  0.38258535  1
  O  O250  1  0.50761173  0.76072087  0.88850763  1
  O  O251  1  0.25862720  0.13629136  0.48805539  1
  O  O252  1  0.25038476  0.14187379  1.00330373  1
  O  O253  1  0.24384958  0.62617581  0.49323307  1
  O  O254  1  0.23765392  0.63122316  0.99730031  1
  O  O255  1  0.74654298  0.12966437  0.49039738  1
  O  O256  1  0.74520930  0.13417488  1.00685479  1
  O  O257  1  0.74406970  0.63318803  0.49663420  1
  O  O258  1  0.74322161  0.62489955  0.99469896  1
  O  O259  1  0.26264775  0.37240049  -0.00207361  1
  O  O260  1  0.25674167  0.36944215  0.50719673  1
  O  O261  1  0.25824819  0.87206865  0.00695283  1
  O  O262  1  0.24476646  0.86200366  0.49159694  1
  O  O263  1  0.75743631  0.36845407  0.00473434  1
  O  O264  1  0.75627637  0.36648199  0.50189498  1
  O  O265  1  0.75420442  0.86552823  0.01177943  1
  O  O266  1  0.75498631  0.86667590  0.50420224  1
  O  O267  1  0.13028834  0.49708044  0.24469950  1
  O  O268  1  0.12301853  0.48923372  0.74462098  1
  O  O269  1  0.13316160  0.98807947  0.24810807  1
  O  O270  1  0.11622661  1.00472502  0.73968524  1
  O  O271  1  0.62930019  0.48928851  0.23967132  1
  O  O272  1  0.63514237  0.50328072  0.74704237  1
  O  O273  1  0.62582346  0.98996284  0.23895283  1
  O  O274  1  0.63464069  0.99045555  0.73637175  1
  O  O275  1  0.36861474  0.00840351  0.25282981  1
  O  O276  1  0.36711554  -0.01064346  0.78110583  1
  O  O277  1  0.36495023  0.50897802  0.24697823  1
  O  O278  1  0.37368481  0.49818832  0.76489001  1
  O  O279  1  0.88743850  0.00810659  0.26078817  1
  O  O280  1  0.87391045  0.01205882  0.74610854  1
  O  O281  1  0.87703315  0.50719061  0.25338800  1
  O  O282  1  0.86215012  0.50648002  0.75122967  1
  O  O283  1  0.11872339  0.37812118  0.36422129  1
  O  O284  1  0.11583674  0.37489106  0.86613618  1
  O  O285  1  0.12808420  0.87354062  0.36301721  1
  O  O286  1  0.10322994  0.85868718  0.88669631  1
  O  O287  1  0.62037058  0.37093422  0.36483494  1
  O  O288  1  0.61144585  0.36025985  0.88592071  1
  O  O289  1  0.62974843  0.86488542  0.36407684  1
  O  O290  1  0.62845058  0.87853779  0.85580332  1
  O  O291  1  0.37896872  0.13373585  0.13416089  1
  O  O292  1  0.37596234  0.14555074  0.61981973  1
  O  O293  1  0.36719417  0.63560451  0.13518894  1
  O  O294  1  0.38587746  0.62682920  0.62804919  1
  O  O295  1  0.88660600  0.11732438  0.13786844  1
  O  O296  1  0.88619984  0.12445127  0.63285375  1
  O  O297  1  0.86825064  0.63305636  0.13490693  1
  O  O298  1  0.88022330  0.62426050  0.62865818  1
  O  O299  1  0.26326609  0.25108913  0.11487897  1
  O  O300  1  0.25356515  0.26062775  0.61903542  1
  O  O301  1  0.25480237  0.75905778  0.11968417  1
  O  O302  1  0.26463664  0.75193666  0.61185155  1
  O  O303  1  0.74629780  0.26099818  0.10972079  1
  O  O304  1  0.74600587  0.25685563  0.60923853  1
  O  O305  1  0.76197922  0.75651535  0.12192071  1
  O  O306  1  0.74926165  0.75788918  0.61299418  1
  O  O307  1  0.25127360  0.24304342  0.38198106  1
  O  O308  1  0.24892101  0.25049336  0.89191036  1
  O  O309  1  0.25598179  0.73843440  0.38895923  1
  O  O310  1  0.23617586  0.75300143  0.88279150  1
  O  O311  1  0.74807715  0.23770356  0.38324002  1
  O  O312  1  0.73914633  0.25814084  0.88647764  1
  O  O313  1  0.74207754  0.74302063  0.38289963  1
  O  O314  1  0.74126931  0.74201163  0.88260836  1
  O  O315  1  -0.00977086  0.11697267  0.00969809  1
  O  O316  1  -0.00353091  0.11609669  0.50768551  1
  O  O317  1  0.00675994  0.61289687  -0.00606289  1
  O  O318  1  0.00780914  0.62103923  0.50255224  1
  O  O319  1  0.51490850  0.11381884  0.00819160  1
  O  O320  1  0.51375659  0.11692274  0.48719282  1
  O  O321  1  0.51033046  0.61123144  -0.00206248  1
  O  O322  1  0.50704073  0.62857251  0.51014627  1
  O  O323  1  0.49020528  0.37309183  0.49329989  1
  O  O324  1  0.49023129  0.38469602  0.99198769  1
  O  O325  1  0.50924446  0.88469069  0.48921930  1
  O  O326  1  0.49089586  0.88412107  1.00986846  1
  O  O327  1  0.99307846  0.37820176  0.49516666  1
  O  O328  1  0.99455599  0.37981024  0.99421770  1
  O  O329  1  0.98877569  0.88761357  0.50519295  1
  O  O330  1  0.99221906  0.88157686  0.99508353  1
  O  O331  1  0.49950055  0.48234775  0.37272720  1
  O  O332  1  0.49335523  0.49271829  0.88415788  1
  O  O333  1  0.49222205  0.99449615  0.37678801  1
  O  O334  1  0.49299724  0.99083308  0.89175344  1
  O  O335  1  0.99464257  0.49386708  0.37961808  1
  O  O336  1  0.99945079  0.48954383  0.88448484  1
  O  O337  1  0.99119269  1.00857407  0.38896151  1
  O  O338  1  0.99197665  0.98855328  0.88039866  1
  O  O339  1  0.00684226  0.00670403  0.11469325  1
  O  O340  1  -0.00151759  0.01216885  0.60995992  1
  O  O341  1  0.01086720  0.49515544  0.11399781  1
  O  O342  1  0.00445415  0.50475072  0.61779016  1
  O  O343  1  0.51384287  0.00033821  0.11944239  1
  O  O344  1  0.51566111  -0.00622306  0.60771801  1
  O  O345  1  0.51247806  0.49192103  0.11473885  1
  O  O346  1  0.49975650  0.51523821  0.62859607  1
  O  O347  1  0.24195729  0.38797757  0.25962055  1
  O  O348  1  0.23966122  0.37388130  0.74219705  1
  O  O349  1  0.23988318  0.88005272  0.24322328  1
  O  O350  1  0.22407516  0.90541726  0.79617340  1
  O  O351  1  0.74495281  0.37254357  0.24023293  1
  O  O352  1  0.75723904  0.38125086  0.73706461  1
  O  O353  1  0.74238218  0.86905651  0.23860661  1
  O  O354  1  0.74682530  0.87550978  0.73553816  1
  O  O355  1  0.25865643  0.11848256  0.25306057  1
  O  O356  1  0.25207634  0.12432986  0.76096907  1
  O  O357  1  0.25124070  0.61926305  0.25931411  1
  O  O358  1  0.25523925  0.62521810  0.75279744  1
  O  O359  1  0.76340031  0.13207498  0.25781988  1
  O  O360  1  0.76542098  0.12505940  0.73816053  1
  O  O361  1  0.76304219  0.62258582  0.25694671  1
  O  O362  1  0.75067773  0.61737475  0.75261882  1
  O  O363  1  0.36762103  0.11968612  0.36589531  1
  O  O364  1  0.39161272  0.11784594  0.88118453  1
  O  O365  1  0.36667242  0.62388990  0.36838922  1
  O  O366  1  0.37556886  0.61626935  0.87576854  1
  O  O367  1  0.87049327  0.11706707  0.36706542  1
  O  O368  1  0.88785331  0.12735993  0.84929242  1
  O  O369  1  0.87059308  0.61864231  0.36814309  1
  O  O370  1  0.86486274  0.62150296  0.86774682  1
  O  O371  1  0.12259457  0.38743258  0.13970615  1
  O  O372  1  0.13118601  0.38068155  0.62980920  1
  O  O373  1  0.13847722  0.87831985  0.12139742  1
  O  O374  1  0.13134391  0.86211951  0.62764114  1
  O  O375  1  0.63187882  0.37913655  0.12773031  1
  O  O376  1  0.63782734  0.37566470  0.61401275  1
  O  O377  1  0.63362358  0.87806273  0.13092607  1
  O  O378  1  0.63189657  0.87998839  0.62889525  1
  O  O379  1  0.12027648  0.26058818  0.25037335  1
  O  O380  1  0.11189196  0.26514356  0.74585652  1
  O  O381  1  0.11834605  0.76280515  0.24514186  1
  O  O382  1  0.11673902  0.74716823  0.76180336  1
  O  O383  1  0.62966748  0.25906268  0.24688067  1
  O  O384  1  0.62949954  0.23771262  0.76517490  1
  O  O385  1  0.63031185  0.75429118  0.25863463  1
  O  O386  1  0.62659697  0.76693918  0.74499990  1
  O  O387  1  0.36802634  0.24274738  0.24109482  1
  O  O388  1  0.37484391  0.25652732  0.73752196  1
  O  O389  1  0.36742981  0.74112739  0.24291477  1
  O  O390  1  0.36535583  0.76313181  0.73567452  1
  O  O391  1  0.88808044  0.23896881  0.25656533  1
  O  O392  1  0.88393090  0.24460516  0.74853658  1
  O  O393  1  0.88269410  0.74432421  0.24563944  1
  O  O394  1  0.87828875  0.74105880  0.74654790  1
  O  O395  1  0.36720116  0.48721576  0.50019624  1
  O  O396  1  0.38083786  0.49736196  0.99684726  1
  O  O397  1  0.38886785  1.00890375  0.48544717  1
  O  O398  1  0.38693000  0.99533437  1.00446904  1
  O  O399  1  0.87990360  0.49114919  0.49336012  1
  O  O400  1  0.88315747  0.49054869  0.99943064  1
  O  O401  1  0.87934907  0.99262029  0.49016523  1
  O  O402  1  0.88589837  0.99184684  1.00080191  1
  O  O403  1  0.11284354  -0.00816668  -0.00805969  1
  O  O404  1  0.11154228  -0.00715215  0.49671642  1
  O  O405  1  0.11962940  0.50455759  0.00684912  1
  O  O406  1  0.12028221  0.50724439  0.50486510  1
  O  O407  1  0.62252028  0.00213493  0.00813747  1
  O  O408  1  0.62025834  0.00431297  0.49937078  1
  O  O409  1  0.61938845  0.50319406  0.00605911  1
  O  O410  1  0.63232874  0.51445456  0.50132427  1
  O  O411  1  0.38079457  0.37010715  0.11658787  1
  O  O412  1  0.36728914  0.37038328  0.61980391  1
  O  O413  1  0.36439026  0.87035004  0.12231622  1
  O  O414  1  0.38671870  0.87362093  0.62462763  1
  O  O415  1  0.86737479  0.37851274  0.11446506  1
  O  O416  1  0.86453524  0.37995776  0.60973509  1
  O  O417  1  0.86956994  0.86840986  0.12329117  1
  O  O418  1  0.86672303  0.87581463  0.61265943  1
  O  O419  1  0.14123521  0.12474321  0.36515968  1
  O  O420  1  0.11136620  0.13537371  0.88236541  1
  O  O421  1  0.13439201  0.62012298  0.38531373  1
  O  O422  1  0.12248537  0.63335414  0.88561113  1
  O  O423  1  0.63552678  0.12145461  0.37782085  1
  O  O424  1  0.62172637  0.12909180  0.88856719  1
  O  O425  1  0.62885118  0.62968182  0.37990795  1
  O  O426  1  0.62839560  0.62291789  0.88735822  1
