# generated using pymatgen
data_V85Zn86O256
_symmetry_space_group_name_H-M   'P 1'
_cell_length_a   16.94628969
_cell_length_b   16.98488163
_cell_length_c   16.95883896
_cell_angle_alpha   90.17006700
_cell_angle_beta   90.07046267
_cell_angle_gamma   90.00415513
_symmetry_Int_Tables_number   1
_chemical_formula_structural   V85Zn86O256
_chemical_formula_sum   'V85 Zn86 O256'
_cell_volume   4881.24969666
_cell_formula_units_Z   1
loop_
 _symmetry_equiv_pos_site_id
 _symmetry_equiv_pos_as_xyz
  1  'x, y, z'
loop_
 _atom_site_type_symbol
 _atom_site_label
 _atom_site_symmetry_multiplicity
 _atom_site_fract_x
 _atom_site_fract_y
 _atom_site_fract_z
 _atom_site_occupancy
  V  V0  1  0.75242851  0.49650025  0.74515214  1
  V  V1  1  0.62740739  0.49817041  0.13005418  1
  V  V2  1  0.13737606  0.74472547  0.87710589  1
  V  V3  1  0.14079847  0.37048884  0.73815140  1
  V  V4  1  0.37224492  0.12367638  0.75873989  1
  V  V5  1  -0.00010432  0.36650518  0.86270767  1
  V  V6  1  0.87610239  0.87035405  0.00472482  1
  V  V7  1  0.63053552  0.63912042  0.49839548  1
  V  V8  1  0.37119934  0.25744421  0.62715747  1
  V  V9  1  0.50073588  0.12467941  0.62523190  1
  V  V10  1  0.51409171  0.75405762  0.25205498  1
  V  V11  1  0.86842339  0.24799082  0.12114975  1
  V  V12  1  0.37545462  0.12202057  0.25101506  1
  V  V13  1  0.74847167  0.37454613  0.12795075  1
  V  V14  1  0.74972042  0.25407121  0.50642425  1
  V  V15  1  0.12199190  0.62707497  0.49922202  1
  V  V16  1  -0.00434690  0.13064597  0.62849539  1
  V  V17  1  0.87225596  0.87305449  0.49685397  1
  V  V18  1  0.74947341  0.87347254  0.62166040  1
  V  V19  1  0.12200827  0.37694501  0.25326232  1
  V  V20  1  0.37342513  0.77169380  0.62367755  1
  V  V21  1  0.62236504  0.13041069  0.49483593  1
  V  V22  1  0.00190353  0.74791092  0.74766764  1
  V  V23  1  0.74514523  0.13031625  0.37451164  1
  V  V24  1  0.87559674  -0.00188225  0.37379580  1
  V  V25  1  0.24950892  0.86903735  0.12031101  1
  V  V26  1  0.62663806  0.87289249  0.75146844  1
  V  V27  1  0.50035251  0.37153200  0.37710137  1
  V  V28  1  0.13277847  0.87260332  0.74462661  1
  V  V29  1  0.00270755  0.12581799  0.12068525  1
  V  V30  1  0.25458908  0.76391025  0.50143279  1
  V  V31  1  0.12467498  0.50136020  0.12539764  1
  V  V32  1  0.87461035  0.37560431  0.50544360  1
  V  V33  1  0.13711994  0.62662202  -0.00316681  1
  V  V34  1  0.63069640  0.49557964  0.62086395  1
  V  V35  1  0.50600309  0.87108906  0.37165999  1
  V  V36  1  0.36817098  0.51162852  0.86899184  1
  V  V37  1  0.74670652  0.87309758  0.12925494  1
  V  V38  1  0.75587229  0.74808186  0.00251611  1
  V  V39  1  0.49146415  -0.00475037  0.50051742  1
  V  V40  1  0.87013551  0.37188976  0.00053235  1
  V  V41  1  0.62458917  -0.00442975  0.12309529  1
  V  V42  1  0.75023993  -0.00100667  0.75333440  1
  V  V43  1  0.12866744  -0.00368745  0.62441983  1
  V  V44  1  0.25134067  0.62922100  0.37220518  1
  V  V45  1  0.50400502  0.24580571  0.25443025  1
  V  V46  1  0.12115177  0.25278351  0.37500818  1
  V  V47  1  0.75108466  0.62397129  0.87267342  1
  V  V48  1  0.37687826  0.62861349  0.25069211  1
  V  V49  1  0.37245754  0.74874327  0.11944418  1
  V  V50  1  0.87542876  0.12945672  0.74917135  1
  V  V51  1  0.25093041  0.00221888  0.75627425  1
  V  V52  1  0.49631976  0.74433257  0.74922271  1
  V  V53  1  0.63032324  0.37281039  0.74806948  1
  V  V54  1  0.62319059  0.74919983  0.87470722  1
  V  V55  1  0.00225940  0.00050799  -0.00082303  1
  V  V56  1  0.87171442  0.12317504  0.24942450  1
  V  V57  1  0.12662078  0.00192403  0.12267577  1
  V  V58  1  0.37946016  0.88534632  -0.00395386  1
  V  V59  1  0.62838213  0.13481254  -0.00228670  1
  V  V60  1  0.87766026  0.62423239  0.74729460  1
  V  V61  1  0.49090376  0.62235835  0.62265227  1
  V  V62  1  -0.00021024  0.50024636  -0.00247846  1
  V  V63  1  0.00024226  0.49617962  0.49015988  1
  V  V64  1  0.87247747  0.75006180  0.62019873  1
  V  V65  1  0.86641253  0.49336654  0.36719665  1
  V  V66  1  0.74639364  0.13656145  0.87754096  1
  V  V67  1  0.50522861  0.24923929  0.75537209  1
  V  V68  1  0.25118828  0.12579504  0.37459680  1
  V  V69  1  0.50157748  0.62461396  0.12630265  1
  V  V70  1  -0.00208408  0.25421418  0.25449867  1
  V  V71  1  0.50278050  0.37367879  0.87562289  1
  V  V72  1  -0.00190974  -0.00316381  0.49631366  1
  V  V73  1  0.50074053  0.49842416  -0.00073431  1
  V  V74  1  0.24931417  0.25653694  0.50621530  1
  V  V75  1  0.62725592  0.37243274  0.25535006  1
  V  V76  1  0.37754765  0.49985909  0.37412118  1
  V  V77  1  0.49969382  0.11774948  0.11962960  1
  V  V78  1  0.00093889  0.87401766  0.87444825  1
  V  V79  1  0.11861299  0.75594631  0.37333630  1
  V  V80  1  -0.00768047  0.74821414  0.24212406  1
  V  V81  1  0.74743528  0.63809196  0.37208045  1
  V  V82  1  0.87533954  0.49877859  0.87278745  1
  V  V83  1  0.12315775  0.12582763  0.50097007  1
  V  V84  1  0.12052552  0.87514170  0.25117563  1
  Zn  Zn85  1  0.25012494  0.49778917  0.24932150  1
  Zn  Zn86  1  0.62745771  0.62289023  -0.00011851  1
  Zn  Zn87  1  0.86453359  0.62064352  0.24302013  1
  Zn  Zn88  1  0.87549632  0.26120410  0.63204070  1
  Zn  Zn89  1  0.36808676  -0.01138565  0.38300475  1
  Zn  Zn90  1  0.12336429  0.24400802  0.87961450  1
  Zn  Zn91  1  0.27033816  0.50918243  0.72352848  1
  Zn  Zn92  1  0.00053352  0.62332791  0.62044124  1
  Zn  Zn93  1  0.62482297  -0.00089416  0.62358667  1
  Zn  Zn94  1  0.13148944  0.49005043  0.61788394  1
  Zn  Zn95  1  0.37009345  0.38148472  0.50756652  1
  Zn  Zn96  1  0.24425894  0.24485887  0.00280078  1
  Zn  Zn97  1  0.24986152  -0.00164643  0.25130002  1
  Zn  Zn98  1  0.25184333  0.37061121  0.12383164  1
  Zn  Zn99  1  0.36915674  0.37129336  0.00001595  1
  Zn  Zn100  1  0.23844670  0.12343831  0.88641750  1
  Zn  Zn101  1  0.74267654  -0.00755276  0.25378292  1
  Zn  Zn102  1  0.87395710  0.00033556  0.87666654  1
  Zn  Zn103  1  -0.01132057  0.63033381  0.11842708  1
  Zn  Zn104  1  0.50364577  0.49945543  0.49853791  1
  Zn  Zn105  1  0.50257516  0.89402967  0.88803003  1
  Zn  Zn106  1  0.37316669  0.25202493  0.12229619  1
  Zn  Zn107  1  0.18752875  0.18942597  0.18494044  1
  Zn  Zn108  1  0.18289895  0.18660453  0.69454858  1
  Zn  Zn109  1  0.18307383  0.68593393  0.18404573  1
  Zn  Zn110  1  0.19807973  0.68536802  0.68586581  1
  Zn  Zn111  1  0.68465579  0.18582761  0.18719379  1
  Zn  Zn112  1  0.68905118  0.18692047  0.68624444  1
  Zn  Zn113  1  0.69119161  0.68574292  0.18540584  1
  Zn  Zn114  1  0.68780349  0.68439470  0.68543041  1
  Zn  Zn115  1  0.31125862  0.31104718  0.30939299  1
  Zn  Zn116  1  0.31235175  0.31318810  0.81935989  1
  Zn  Zn117  1  0.31732539  0.81502736  0.31089014  1
  Zn  Zn118  1  0.31557806  0.81087826  0.81014269  1
  Zn  Zn119  1  0.81174245  0.31149456  0.31439236  1
  Zn  Zn120  1  0.81213074  0.31223756  0.81309499  1
  Zn  Zn121  1  0.80944576  0.81240778  0.31453673  1
  Zn  Zn122  1  0.81436017  0.81216690  0.81416675  1
  Zn  Zn123  1  0.18805928  0.43856414  0.43376778  1
  Zn  Zn124  1  0.18657182  0.43012241  0.93696089  1
  Zn  Zn125  1  0.18524190  0.93961043  0.43627715  1
  Zn  Zn126  1  0.18928681  0.93374336  0.93640596  1
  Zn  Zn127  1  0.69003640  0.43948076  0.43740300  1
  Zn  Zn128  1  0.68759098  0.43413104  0.93679705  1
  Zn  Zn129  1  0.68329633  0.94142889  0.43845622  1
  Zn  Zn130  1  0.68566031  0.94084440  0.94160149  1
  Zn  Zn131  1  0.31332825  0.06287157  0.06133364  1
  Zn  Zn132  1  0.31231458  0.06759062  0.56863758  1
  Zn  Zn133  1  0.31453348  0.55717704  0.06125923  1
  Zn  Zn134  1  0.30678238  0.56449599  0.55436473  1
  Zn  Zn135  1  0.81012892  0.05818709  0.06080164  1
  Zn  Zn136  1  0.80995274  0.06225165  0.56272083  1
  Zn  Zn137  1  0.81173875  0.56067054  0.06311455  1
  Zn  Zn138  1  0.81152741  0.56260939  0.55714133  1
  Zn  Zn139  1  0.43823762  0.43617789  0.18919186  1
  Zn  Zn140  1  0.44403139  0.43949819  0.68985625  1
  Zn  Zn141  1  0.43748009  0.93650108  0.19001214  1
  Zn  Zn142  1  0.44969555  0.94811689  0.71414168  1
  Zn  Zn143  1  0.93914658  0.43816441  0.18508731  1
  Zn  Zn144  1  0.95012712  0.44457707  0.68350457  1
  Zn  Zn145  1  0.93641457  0.93475031  0.18722295  1
  Zn  Zn146  1  0.93922890  0.93968924  0.68643571  1
  Zn  Zn147  1  0.06059828  0.06545964  0.30999199  1
  Zn  Zn148  1  0.06111362  0.06129650  0.81129474  1
  Zn  Zn149  1  0.05795746  0.56609020  0.31269009  1
  Zn  Zn150  1  0.10852184  0.56730592  0.79656650  1
  Zn  Zn151  1  0.56175358  0.05333702  0.31207579  1
  Zn  Zn152  1  0.56275309  0.06097860  0.81785468  1
  Zn  Zn153  1  0.56483311  0.56343484  0.31293112  1
  Zn  Zn154  1  0.56263347  0.56144042  0.80990438  1
  Zn  Zn155  1  0.43411740  0.18891459  0.43897485  1
  Zn  Zn156  1  0.43594848  0.18611341  0.94145802  1
  Zn  Zn157  1  0.44043703  0.69208181  0.44109086  1
  Zn  Zn158  1  0.43761203  0.68788881  0.93911032  1
  Zn  Zn159  1  0.93387760  0.18652923  0.43934464  1
  Zn  Zn160  1  0.93522644  0.18503150  0.93626432  1
  Zn  Zn161  1  0.93500828  0.68614062  0.43114553  1
  Zn  Zn162  1  0.94298766  0.68586895  0.93336095  1
  Zn  Zn163  1  0.06321920  0.31398052  0.06178219  1
  Zn  Zn164  1  0.05758168  0.31364777  0.55960408  1
  Zn  Zn165  1  0.06477664  0.81056361  0.06089341  1
  Zn  Zn166  1  0.06065861  0.81331696  0.55939239  1
  Zn  Zn167  1  0.55825475  0.30870125  0.06547258  1
  Zn  Zn168  1  0.56148846  0.31162917  0.56313609  1
  Zn  Zn169  1  0.56245973  0.81103524  0.06290632  1
  Zn  Zn170  1  0.55811375  0.81510221  0.56339654  1
  O  O171  1  0.11249818  0.11356162  0.13430545  1
  O  O172  1  0.11461484  0.11746633  0.62198800  1
  O  O173  1  0.11687003  0.61757065  0.11632022  1
  O  O174  1  0.12496084  0.63208905  0.60342011  1
  O  O175  1  0.62109321  0.11870669  0.11535767  1
  O  O176  1  0.61450888  0.12514032  0.61725337  1
  O  O177  1  0.62173571  0.61279925  0.12465036  1
  O  O178  1  0.62070748  0.61918202  0.61300857  1
  O  O179  1  0.38263600  0.38420132  0.37064706  1
  O  O180  1  0.39224803  0.38459992  0.87456219  1
  O  O181  1  0.38947904  0.87680226  0.37297442  1
  O  O182  1  0.37170803  0.86452449  0.89428237  1
  O  O183  1  0.86938690  0.38764622  0.38250490  1
  O  O184  1  0.87796959  0.37726032  0.88382305  1
  O  O185  1  0.86476135  0.88725857  0.38504552  1
  O  O186  1  0.88163550  0.87680084  0.88460743  1
  O  O187  1  0.24900668  0.01323002  0.37499560  1
  O  O188  1  0.24361297  0.00097121  0.86002237  1
  O  O189  1  0.25868136  0.51212367  0.37372339  1
  O  O190  1  0.26968650  0.49335874  0.88091135  1
  O  O191  1  0.75776402  0.00946661  0.37455792  1
  O  O192  1  0.75011175  0.00554287  0.86573611  1
  O  O193  1  0.76269956  0.50803534  0.37819744  1
  O  O194  1  0.75613486  0.50375468  0.86797138  1
  O  O195  1  0.23492969  0.50213464  0.12944386  1
  O  O196  1  0.24533433  0.49467655  0.61321342  1
  O  O197  1  0.23902124  0.99182646  0.12813873  1
  O  O198  1  0.23267247  1.00790784  0.62860471  1
  O  O199  1  0.73871477  0.48637128  0.12085649  1
  O  O200  1  0.73974011  0.50612012  0.63001132  1
  O  O201  1  0.74460289  0.98954240  0.12662963  1
  O  O202  1  0.75010639  0.99021076  0.63398398  1
  O  O203  1  0.00618445  0.36228189  0.24441955  1
  O  O204  1  -0.01784569  0.36752380  0.76343362  1
  O  O205  1  0.01139619  0.86498123  0.24384651  1
  O  O206  1  0.00784437  0.86792689  0.75298009  1
  O  O207  1  0.50691595  0.36527148  0.25665766  1
  O  O208  1  0.50945524  0.36766533  0.75624547  1
  O  O209  1  0.49896820  0.86850430  0.26031914  1
  O  O210  1  0.51179138  0.85124601  0.73875904  1
  O  O211  1  0.49515384  0.12971705  0.24822169  1
  O  O212  1  0.49732914  0.13314590  0.74226500  1
  O  O213  1  0.49653500  0.63294223  0.24670341  1
  O  O214  1  0.51136263  0.63646197  0.73581774  1
  O  O215  1  0.99194840  0.13169210  0.23952543  1
  O  O216  1  0.98579432  0.11301903  0.73959976  1
  O  O217  1  0.99884412  0.64056069  0.24844969  1
  O  O218  1  0.99822815  0.63714534  0.74404362  1
  O  O219  1  0.37612823  0.25445415  0.00491063  1
  O  O220  1  0.36597354  0.25046519  0.50971165  1
  O  O221  1  0.37924056  0.75259902  0.01593260  1
  O  O222  1  0.36920878  0.74847415  0.51383231  1
  O  O223  1  0.88126526  0.25818562  0.01306264  1
  O  O224  1  0.86933104  0.25965961  0.50020248  1
  O  O225  1  0.86650802  0.75713562  -0.00907206  1
  O  O226  1  0.88371513  0.76244158  0.50680750  1
  O  O227  1  0.12951357  0.24483654  0.49561373  1
  O  O228  1  0.12508922  0.25293679  0.99563245  1
  O  O229  1  0.12963402  0.74777877  0.49078730  1
  O  O230  1  0.11826435  0.73991704  0.98964492  1
  O  O231  1  0.63200999  0.23889737  0.50443945  1
  O  O232  1  0.62585799  0.23423984  1.00712185  1
  O  O233  1  0.62292834  0.73744457  0.50515252  1
  O  O234  1  0.63324806  0.74809596  0.98885501  1
  O  O235  1  0.50017469  0.23610264  0.13793588  1
  O  O236  1  0.49303512  0.24229916  0.63213798  1
  O  O237  1  0.49429190  0.74448103  0.13221719  1
  O  O238  1  0.48746394  0.74259022  0.62580594  1
  O  O239  1  0.99085942  0.24206736  0.13341383  1
  O  O240  1  0.99505100  0.23389702  0.61773569  1
  O  O241  1  1.00384399  0.74979230  0.13783774  1
  O  O242  1  0.98984162  0.75215968  0.63167838  1
  O  O243  1  0.00361659  0.23887745  0.36193300  1
  O  O244  1  -0.00458533  0.26590595  0.88321638  1
  O  O245  1  0.01309226  0.74762383  0.36565266  1
  O  O246  1  0.00602074  0.75498759  0.86210632  1
  O  O247  1  0.49416932  0.25909078  0.36650436  1
  O  O248  1  0.49683025  0.25763163  0.86241647  1
  O  O249  1  0.49766482  0.76189908  0.36858913  1
  O  O250  1  0.50911247  0.74641290  0.86598244  1
  O  O251  1  0.24361875  0.13353456  0.49309441  1
  O  O252  1  0.25187354  0.12658923  0.99840853  1
  O  O253  1  0.24251999  0.63763079  0.48695711  1
  O  O254  1  0.23613688  0.61936296  1.00381205  1
  O  O255  1  0.74209605  0.12938195  0.49401021  1
  O  O256  1  0.73928668  0.11987991  0.99257582  1
  O  O257  1  0.73773988  0.62473758  0.49223942  1
  O  O258  1  0.75022924  0.63218351  0.99196095  1
  O  O259  1  0.25166623  0.37068992  0.00566404  1
  O  O260  1  0.25086177  0.35995368  0.49174855  1
  O  O261  1  0.25867237  0.87746072  0.01319560  1
  O  O262  1  0.24452548  0.86293469  0.49658472  1
  O  O263  1  0.76119617  0.37708493  0.00885490  1
  O  O264  1  0.75754618  0.36370073  0.49359327  1
  O  O265  1  0.75812838  0.86733561  0.00389237  1
  O  O266  1  0.75894659  0.88464379  0.51123277  1
  O  O267  1  0.11968536  0.49439052  0.24445754  1
  O  O268  1  0.09915631  0.47192343  0.73855423  1
  O  O269  1  0.12110591  0.99145110  0.24106898  1
  O  O270  1  0.12925956  0.99073499  0.74149056  1
  O  O271  1  0.61565951  0.48770165  0.23772788  1
  O  O272  1  0.63110224  0.49332417  0.74117471  1
  O  O273  1  0.62859237  1.00636320  0.23206604  1
  O  O274  1  0.63843499  0.99373256  0.74612797  1
  O  O275  1  0.37266691  0.01256873  0.25404961  1
  O  O276  1  0.35640416  0.01199950  0.73158283  1
  O  O277  1  0.37469758  0.50915056  0.25930285  1
  O  O278  1  0.37911834  0.49920372  0.76296890  1
  O  O279  1  0.87490008  0.00348066  0.25912213  1
  O  O280  1  0.86473248  0.00575064  0.75100981  1
  O  O281  1  0.88098929  0.49756472  0.26487344  1
  O  O282  1  0.87294444  0.50517752  0.75155362  1
  O  O283  1  0.12598520  0.36867186  0.36319676  1
  O  O284  1  0.10796195  0.37799840  0.86272223  1
  O  O285  1  0.13156770  0.86751404  0.36271366  1
  O  O286  1  0.12012761  0.86576326  0.86652030  1
  O  O287  1  0.61479870  0.38463294  0.36465983  1
  O  O288  1  0.61469774  0.38262429  0.86192368  1
  O  O289  1  0.60759470  0.88257808  0.37685085  1
  O  O290  1  0.62408652  0.86509981  0.87143059  1
  O  O291  1  0.38538367  0.12130441  0.13569108  1
  O  O292  1  0.38501366  0.13626614  0.63297895  1
  O  O293  1  0.38018625  0.62950782  0.12984375  1
  O  O294  1  0.38987180  0.61836892  0.61697903  1
  O  O295  1  0.87899356  0.13047390  0.12811823  1
  O  O296  1  0.88048898  0.12163083  0.63223841  1
  O  O297  1  0.87614711  0.61808349  0.13189625  1
  O  O298  1  0.87423319  0.63564234  0.62655713  1
  O  O299  1  0.25457329  0.25192852  0.12439382  1
  O  O300  1  0.25883455  0.24035973  0.61657163  1
  O  O301  1  0.25895305  0.75850824  0.13270997  1
  O  O302  1  0.26593032  0.74783161  0.61881815  1
  O  O303  1  0.76013091  0.25777168  0.12948774  1
  O  O304  1  0.75640521  0.24281324  0.61100234  1
  O  O305  1  0.74204523  0.75639769  0.10948037  1
  O  O306  1  0.76219015  0.76069459  0.63193819  1
  O  O307  1  0.24409256  0.24133670  0.38244211  1
  O  O308  1  0.24691869  0.24575048  0.87913721  1
  O  O309  1  0.24496123  0.74508953  0.37945448  1
  O  O310  1  0.23597726  0.74981000  0.86652797  1
  O  O311  1  0.75590276  0.23642120  0.38564702  1
  O  O312  1  0.74897341  0.23569026  0.87205129  1
  O  O313  1  0.75340604  0.73729863  0.37896825  1
  O  O314  1  0.74319807  0.74527625  0.88067650  1
  O  O315  1  -0.00960625  0.11327786  0.01122638  1
  O  O316  1  0.00216446  0.11543251  0.50708370  1
  O  O317  1  0.00237412  0.61125677  -0.00135318  1
  O  O318  1  0.00763436  0.62111007  0.49561101  1
  O  O319  1  0.51192788  0.12639466  0.00980534  1
  O  O320  1  0.50499656  0.12316754  0.50608187  1
  O  O321  1  0.50451653  0.61502348  0.00719079  1
  O  O322  1  0.51357676  0.62263409  0.50398196  1
  O  O323  1  0.49704302  0.37447766  0.48789127  1
  O  O324  1  0.50693619  0.38282668  0.99145537  1
  O  O325  1  0.50285669  0.88577637  0.49198717  1
  O  O326  1  0.48635006  0.87041587  1.00062018  1
  O  O327  1  0.99191730  0.38507639  0.49593941  1
  O  O328  1  0.98744947  0.38332390  0.99823944  1
  O  O329  1  0.98861081  0.88834061  0.50404438  1
  O  O330  1  0.99355029  0.87928878  0.99688895  1
  O  O331  1  0.49211632  0.49188621  0.37278807  1
  O  O332  1  0.49714186  0.49522796  0.88155657  1
  O  O333  1  0.49492058  0.99160344  0.38294807  1
  O  O334  1  0.48812803  0.98070976  0.82231505  1
  O  O335  1  0.98344315  0.51139494  0.38357050  1
  O  O336  1  0.99154092  0.48414383  0.88509432  1
  O  O337  1  0.98848859  1.00940452  0.38473700  1
  O  O338  1  1.00085880  0.99243921  0.88500867  1
  O  O339  1  0.00545392  0.00525425  0.11910776  1
  O  O340  1  0.00697364  0.00729401  0.61585717  1
  O  O341  1  0.00845492  0.49821308  0.11404185  1
  O  O342  1  0.00638838  0.50631665  0.60478413  1
  O  O343  1  0.50709038  0.01064154  0.13227024  1
  O  O344  1  0.50014315  0.01144625  0.62160531  1
  O  O345  1  0.50745548  0.50317756  0.11781569  1
  O  O346  1  0.51199737  0.50737637  0.62385207  1
  O  O347  1  0.23588081  0.37742932  0.24895692  1
  O  O348  1  0.24090034  0.38575384  0.75314782  1
  O  O349  1  0.24064174  0.87693494  0.24024937  1
  O  O350  1  0.23852990  0.88202215  0.75178658  1
  O  O351  1  0.73927264  0.36803744  0.24158807  1
  O  O352  1  0.73967999  0.38015809  0.75516323  1
  O  O353  1  0.75651550  0.87171076  0.23356821  1
  O  O354  1  0.74838529  0.88066995  0.74379870  1
  O  O355  1  0.25631341  0.12548743  0.25931997  1
  O  O356  1  0.25784851  0.11860241  0.75027311  1
  O  O357  1  0.25428496  0.62762696  0.26061306  1
  O  O358  1  0.21009386  0.60013476  0.75308335  1
  O  O359  1  0.75438497  0.12565095  0.25887373  1
  O  O360  1  0.75301008  0.11667443  0.75597602  1
  O  O361  1  0.74588395  0.62707149  0.26642707  1
  O  O362  1  0.75785057  0.61838028  0.75337812  1
  O  O363  1  0.36495037  0.12594392  0.36878551  1
  O  O364  1  0.38204677  0.12506101  0.85875138  1
  O  O365  1  0.37009656  0.62174975  0.37199097  1
  O  O366  1  0.37961269  0.61104409  0.87928348  1
  O  O367  1  0.86562189  0.11602332  0.37173505  1
  O  O368  1  0.86607884  0.12113439  0.86787954  1
  O  O369  1  0.86079301  0.61752552  0.37426486  1
  O  O370  1  0.87165299  0.61914382  0.86661642  1
  O  O371  1  0.12201786  0.38619392  0.13612577  1
  O  O372  1  0.12463275  0.36811177  0.63357804  1
  O  O373  1  0.13139587  0.87999042  0.13068703  1
  O  O374  1  0.11728271  0.88368887  0.63341962  1
  O  O375  1  0.62986547  0.37788419  0.13220241  1
  O  O376  1  0.61745842  0.38499880  0.63477157  1
  O  O377  1  0.63561067  0.88240640  0.11503852  1
  O  O378  1  0.63575975  0.87331502  0.63019363  1
  O  O379  1  0.11561203  0.25659990  0.25346652  1
  O  O380  1  0.12667869  0.26791188  0.75380638  1
  O  O381  1  0.11855105  0.75672470  0.25521710  1
  O  O382  1  0.11868049  0.75637098  0.75141415  1
  O  O383  1  0.61511046  0.25866768  0.24746351  1
  O  O384  1  0.61536711  0.25897864  0.74026059  1
  O  O385  1  0.61292743  0.74695560  0.24453555  1
  O  O386  1  0.62396826  0.75211192  0.75848989  1
  O  O387  1  0.38455996  0.23772287  0.25039313  1
  O  O388  1  0.38305268  0.24431821  0.74397788  1
  O  O389  1  0.38434350  0.74541957  0.23938580  1
  O  O390  1  0.38258140  0.75192494  0.73555450  1
  O  O391  1  0.88053616  0.24572140  0.24265281  1
  O  O392  1  0.86636913  0.23410808  0.74678201  1
  O  O393  1  0.89176393  0.75345731  0.25865392  1
  O  O394  1  0.88338005  0.74642383  0.74241773  1
  O  O395  1  0.37884843  0.49946215  0.48507042  1
  O  O396  1  0.38900062  0.49720415  0.99242495  1
  O  O397  1  0.38710262  1.01208674  0.50125463  1
  O  O398  1  0.37641847  0.98401975  1.00452860  1
  O  O399  1  0.87963225  0.49394542  0.49158229  1
  O  O400  1  0.87975186  0.49101128  0.99437257  1
  O  O401  1  0.87990388  0.99467825  0.49400232  1
  O  O402  1  0.88547814  0.98980255  0.99915097  1
  O  O403  1  0.11298540  -0.01138863  0.01158167  1
  O  O404  1  0.11639713  0.00395138  0.50468714  1
  O  O405  1  0.11698179  0.50468642  0.00461232  1
  O  O406  1  0.11662383  0.51049291  0.48917595  1
  O  O407  1  0.62598424  0.00921798  0.01322283  1
  O  O408  1  0.61344275  0.01293119  0.50416774  1
  O  O409  1  0.61764269  0.49852593  0.00917104  1
  O  O410  1  0.62489652  0.50368843  0.50930397  1
  O  O411  1  0.37340958  0.37416761  0.12356683  1
  O  O412  1  0.38508886  0.36169691  0.62541742  1
  O  O413  1  0.36888962  0.86849376  0.11969838  1
  O  O414  1  0.38115497  0.86822835  0.62798583  1
  O  O415  1  0.86728587  0.36887634  0.12114830  1
  O  O416  1  0.88139019  0.37821532  0.61101716  1
  O  O417  1  0.86664132  0.87836605  0.11155901  1
  O  O418  1  0.86907057  0.86986397  0.61831769  1
  O  O419  1  0.13160974  0.13076930  0.37897353  1
  O  O420  1  0.12537258  0.13158437  0.86234014  1
  O  O421  1  0.13274970  0.63542118  0.37880038  1
  O  O422  1  0.11382241  0.63397190  0.88672468  1
  O  O423  1  0.63301786  0.11754339  0.38369968  1
  O  O424  1  0.62881773  0.11934715  0.88942676  1
  O  O425  1  0.63481999  0.61835306  0.38763352  1
  O  O426  1  0.63222735  0.63286077  0.87393765  1
