# generated using pymatgen
data_V85Zn86O256
_symmetry_space_group_name_H-M   'P 1'
_cell_length_a   16.96892348
_cell_length_b   16.98310773
_cell_length_c   16.98707065
_cell_angle_alpha   90.08727491
_cell_angle_beta   89.89623028
_cell_angle_gamma   90.00279065
_symmetry_Int_Tables_number   1
_chemical_formula_structural   V85Zn86O256
_chemical_formula_sum   'V85 Zn86 O256'
_cell_volume   4895.40618470
_cell_formula_units_Z   1
loop_
 _symmetry_equiv_pos_site_id
 _symmetry_equiv_pos_as_xyz
  1  'x, y, z'
loop_
 _atom_site_type_symbol
 _atom_site_label
 _atom_site_symmetry_multiplicity
 _atom_site_fract_x
 _atom_site_fract_y
 _atom_site_fract_z
 _atom_site_occupancy
  V  V0  1  0.64544147  0.37717004  0.75666390  1
  V  V1  1  0.24906533  0.50211126  0.24553903  1
  V  V2  1  0.25107250  0.12475035  0.37442223  1
  V  V3  1  0.12386074  0.12317807  0.49946096  1
  V  V4  1  0.48987023  0.49390814  -0.01050887  1
  V  V5  1  0.50490085  0.75480635  0.25265650  1
  V  V6  1  0.62727515  0.62127381  0.00224667  1
  V  V7  1  0.24907345  0.87608283  0.62209565  1
  V  V8  1  0.25130174  0.62135415  0.88171519  1
  V  V9  1  0.62882723  0.37876442  0.24835966  1
  V  V10  1  0.62851494  0.63492869  0.49740822  1
  V  V11  1  0.74788380  0.12738952  0.87335822  1
  V  V12  1  0.87642298  0.12094083  0.75385305  1
  V  V13  1  0.75125182  0.87759516  0.13304532  1
  V  V14  1  0.87398976  0.25681527  0.61604671  1
  V  V15  1  -0.00019146  0.62381692  0.62289879  1
  V  V16  1  0.87037841  0.25455676  0.12880451  1
  V  V17  1  0.75108081  0.25454015  -0.00158667  1
  V  V18  1  0.49290855  0.87901188  0.38324567  1
  V  V19  1  0.75049538  0.86971371  0.62361416  1
  V  V20  1  0.87825527  0.50944432  0.36596333  1
  V  V21  1  0.50242523  0.62402636  0.62335952  1
  V  V22  1  0.12177636  0.87718388  0.74173492  1
  V  V23  1  0.24412706  0.00011324  0.74830934  1
  V  V24  1  0.24831453  -0.00003987  0.24889807  1
  V  V25  1  0.36975543  0.50607408  0.37365702  1
  V  V26  1  0.75540535  -0.00499074  0.75777877  1
  V  V27  1  0.50393931  0.12744273  0.12442331  1
  V  V28  1  -0.00757817  0.87776341  0.87417695  1
  V  V29  1  0.50040007  0.74373005  0.75393634  1
  V  V30  1  0.62534938  0.74304671  0.87722396  1
  V  V31  1  0.50197506  0.50252292  0.49855461  1
  V  V32  1  -0.00270464  0.37731589  0.37572858  1
  V  V33  1  0.00254032  0.12019307  0.62464102  1
  V  V34  1  0.25544427  0.87833957  0.11320986  1
  V  V35  1  0.86138554  0.12470234  0.25389590  1
  V  V36  1  0.37527196  0.75271943  0.62243310  1
  V  V37  1  0.12504391  0.25043014  0.37403420  1
  V  V38  1  -0.00310636  0.49788452  0.49678416  1
  V  V39  1  0.87602745  0.49930559  0.87268878  1
  V  V40  1  0.00198795  0.25024148  0.75164529  1
  V  V41  1  0.60888960  -0.00033986  0.63578420  1
  V  V42  1  0.50307243  0.62138852  0.12659402  1
  V  V43  1  0.75328360  0.61880135  0.87072439  1
  V  V44  1  0.01925537  0.50921538  0.00321913  1
  V  V45  1  0.24705188  0.11962526  0.87255796  1
  V  V46  1  0.63015552  0.00177804  0.13328626  1
  V  V47  1  0.37222401  0.62843527  0.25271492  1
  V  V48  1  0.38266551  0.12115511  0.74369899  1
  V  V49  1  0.25327732  0.75165089  0.49389706  1
  V  V50  1  0.37319449  -0.00196007  0.38324359  1
  V  V51  1  0.75181477  0.63435400  0.37449935  1
  V  V52  1  0.49961475  0.25317844  0.25492901  1
  V  V53  1  -0.00955334  0.00027148  -0.00424778  1
  V  V54  1  0.50290418  0.37712685  0.37467264  1
  V  V55  1  0.37860816  0.75719486  0.11597868  1
  V  V56  1  0.87494692  0.61968975  0.74780813  1
  V  V57  1  0.12546648  0.37848097  0.24555506  1
  V  V58  1  0.49617479  0.26788608  0.75285195  1
  V  V59  1  0.11992576  0.75359472  0.37022149  1
  V  V60  1  0.87152171  0.87229625  0.49929612  1
  V  V61  1  0.87255119  0.74679878  0.61990417  1
  V  V62  1  0.12220021  0.12605990  -0.00032978  1
  V  V63  1  0.13016534  0.37530527  0.74641746  1
  V  V64  1  0.01354670  0.62808556  0.13188854  1
  V  V65  1  0.88149069  0.74362056  0.13741438  1
  V  V66  1  0.75508599  0.75137260  0.00217314  1
  V  V67  1  0.25458207  0.50342789  0.74464592  1
  V  V68  1  0.85957881  0.00764453  0.37302086  1
  V  V69  1  0.13000284  0.49506014  0.62112803  1
  V  V70  1  0.37572409  0.25328220  0.12226807  1
  V  V71  1  0.62910702  0.86370371  0.75498487  1
  V  V72  1  0.25029515  0.24779888  -0.00058182  1
  V  V73  1  0.13186997  0.62590648  0.49417833  1
  V  V74  1  0.12406244  0.74633619  0.87996217  1
  V  V75  1  0.12409920  0.00039388  0.12412240  1
  V  V76  1  -0.00331359  0.12524424  0.12683739  1
  V  V77  1  -0.00025598  0.74792992  0.74842883  1
  V  V78  1  0.87416786  0.37956536  0.00666974  1
  V  V79  1  0.25146800  0.37570216  0.12174438  1
  V  V80  1  0.25100436  0.25458141  0.50501480  1
  V  V81  1  0.37022262  0.37704182  0.50472053  1
  V  V82  1  0.75110033  0.50298866  0.24429472  1
  V  V83  1  0.00757249  0.37722863  0.87786961  1
  V  V84  1  0.00260364  0.00057938  0.49886059  1
  Zn  Zn85  1  0.63011708  0.12559665  0.00247549  1
  Zn  Zn86  1  -0.00488960  0.87580054  0.36430258  1
  Zn  Zn87  1  0.37628528  0.12735258  0.25382292  1
  Zn  Zn88  1  0.37714633  0.61880012  0.75213335  1
  Zn  Zn89  1  0.64392028  0.23562591  0.38729623  1
  Zn  Zn90  1  0.11863138  0.86766184  0.24202506  1
  Zn  Zn91  1  0.24942609  0.74898670  -0.00083136  1
  Zn  Zn92  1  0.60376148  0.25598864  0.88482048  1
  Zn  Zn93  1  0.47151384  0.88030600  0.89353990  1
  Zn  Zn94  1  0.63229114  0.76057351  0.38012087  1
  Zn  Zn95  1  0.38013681  0.24586462  0.61964051  1
  Zn  Zn96  1  0.12393437  0.25081839  0.87578851  1
  Zn  Zn97  1  0.47775885  -0.00493707  0.52741485  1
  Zn  Zn98  1  0.75057862  0.36297871  0.59941307  1
  Zn  Zn99  1  0.42609346  0.33155615  -0.06825175  1
  Zn  Zn100  1  0.61649422  0.12266860  0.49914786  1
  Zn  Zn101  1  -0.00210944  0.25000461  0.25124015  1
  Zn  Zn102  1  0.87106007  0.87717845  -0.00168689  1
  Zn  Zn103  1  0.63026013  0.88437687  0.25826762  1
  Zn  Zn104  1  0.49071508  -0.01086398  0.00418029  1
  Zn  Zn105  1  0.63758890  0.49508426  0.62731089  1
  Zn  Zn106  1  0.63232630  0.49452478  0.12188951  1
  Zn  Zn107  1  0.18578951  0.18779208  0.18819998  1
  Zn  Zn108  1  0.18534288  0.18763474  0.68403343  1
  Zn  Zn109  1  0.19227371  0.69006463  0.18410574  1
  Zn  Zn110  1  0.18599238  0.68676965  0.68682822  1
  Zn  Zn111  1  0.68375876  0.19438901  0.19216833  1
  Zn  Zn112  1  0.70320626  0.16546797  0.65460440  1
  Zn  Zn113  1  0.69016266  0.68739472  0.19056740  1
  Zn  Zn114  1  0.68941996  0.68162072  0.68434339  1
  Zn  Zn115  1  0.31431871  0.31411130  0.31494354  1
  Zn  Zn116  1  0.30838864  0.30512271  0.80551997  1
  Zn  Zn117  1  0.31042884  0.81683457  0.30767282  1
  Zn  Zn118  1  0.31077943  0.80724336  0.81200084  1
  Zn  Zn119  1  0.81297845  0.31927643  0.31714449  1
  Zn  Zn120  1  0.82015688  0.30977910  0.81446126  1
  Zn  Zn121  1  0.81812850  0.81485052  0.31285089  1
  Zn  Zn122  1  0.81345314  0.80452962  0.81212178  1
  Zn  Zn123  1  0.18719802  0.43730615  0.43279569  1
  Zn  Zn124  1  0.23398971  0.41837883  0.91628146  1
  Zn  Zn125  1  0.18725439  0.93567985  0.43833657  1
  Zn  Zn126  1  0.18073637  0.93693912  0.93399291  1
  Zn  Zn127  1  0.69966578  0.44785000  0.44689518  1
  Zn  Zn128  1  0.68537308  0.43732625  0.93867769  1
  Zn  Zn129  1  0.67917285  0.94252716  0.44463970  1
  Zn  Zn130  1  0.64707000  0.95238197  0.92619244  1
  Zn  Zn131  1  0.31753744  0.06258007  0.06086671  1
  Zn  Zn132  1  0.30693567  0.06374423  0.56501893  1
  Zn  Zn133  1  0.31300799  0.56438641  0.06439486  1
  Zn  Zn134  1  0.31410846  0.56743485  0.56314140  1
  Zn  Zn135  1  0.80959508  0.06435973  0.06527377  1
  Zn  Zn136  1  0.80606111  0.06128142  0.55888141  1
  Zn  Zn137  1  0.81961178  0.56577266  0.06259932  1
  Zn  Zn138  1  0.81106152  0.55816070  0.55655520  1
  Zn  Zn139  1  0.43681127  0.43805860  0.18483148  1
  Zn  Zn140  1  0.43901778  0.43841576  0.68301681  1
  Zn  Zn141  1  0.43912866  0.94072123  0.19196647  1
  Zn  Zn142  1  0.42572784  0.92297669  0.72073892  1
  Zn  Zn143  1  0.94215443  0.44479572  0.18603956  1
  Zn  Zn144  1  0.94260163  0.43563156  0.68682448  1
  Zn  Zn145  1  0.93501475  0.93638203  0.18770526  1
  Zn  Zn146  1  0.93656934  0.93690687  0.68560825  1
  Zn  Zn147  1  0.05626764  0.06064006  0.31180595  1
  Zn  Zn148  1  0.06325870  0.05962354  0.81258495  1
  Zn  Zn149  1  0.06751054  0.56693721  0.31112846  1
  Zn  Zn150  1  0.06579467  0.56167537  0.81303821  1
  Zn  Zn151  1  0.56473670  0.06614265  0.31894418  1
  Zn  Zn152  1  0.56407749  0.06251469  0.81357009  1
  Zn  Zn153  1  0.56583481  0.56482810  0.31413565  1
  Zn  Zn154  1  0.56635999  0.55586883  0.81162746  1
  Zn  Zn155  1  0.46195703  0.19265688  0.45553576  1
  Zn  Zn156  1  0.42731158  0.15288922  0.94232440  1
  Zn  Zn157  1  0.43817067  0.69129142  0.43729620  1
  Zn  Zn158  1  0.43703051  0.67842258  0.93691173  1
  Zn  Zn159  1  0.93595566  0.18809725  0.43547348  1
  Zn  Zn160  1  0.93587932  0.18905453  0.93710354  1
  Zn  Zn161  1  0.94027957  0.68680865  0.43590315  1
  Zn  Zn162  1  0.94002956  0.68738390  0.94030148  1
  Zn  Zn163  1  0.06123626  0.31383115  0.06316579  1
  Zn  Zn164  1  0.05986304  0.30987430  0.56196733  1
  Zn  Zn165  1  0.06217177  0.81515568  0.06192960  1
  Zn  Zn166  1  0.05999933  0.81179282  0.55756470  1
  Zn  Zn167  1  0.56400809  0.31498575  0.06504201  1
  Zn  Zn168  1  0.56895854  0.30615952  0.57206816  1
  Zn  Zn169  1  0.56733453  0.81479714  0.06288217  1
  Zn  Zn170  1  0.55874213  0.81704748  0.56518227  1
  O  O171  1  0.11747283  0.12087131  0.11963351  1
  O  O172  1  0.10983912  0.12998001  0.61702495  1
  O  O173  1  0.11292557  0.64032416  0.11991959  1
  O  O174  1  0.11892987  0.61733036  0.61512062  1
  O  O175  1  0.62147370  0.12129162  0.13045507  1
  O  O176  1  0.60954562  0.09780824  0.65933868  1
  O  O177  1  0.61569645  0.62619971  0.12158589  1
  O  O178  1  0.62313952  0.61727308  0.61477062  1
  O  O179  1  0.38250277  0.38757772  0.38004108  1
  O  O180  1  0.33813374  0.37817171  0.88410457  1
  O  O181  1  0.38081254  0.88495348  0.36848285  1
  O  O182  1  0.38629491  0.88554221  0.82596027  1
  O  O183  1  0.89194067  0.38907445  0.36987909  1
  O  O184  1  0.88560482  0.38222360  0.88367380  1
  O  O185  1  0.87461824  0.88665785  0.38352099  1
  O  O186  1  0.88848579  0.86693169  0.87482694  1
  O  O187  1  0.25281404  0.00237015  0.36761814  1
  O  O188  1  0.23935662  0.00762831  0.86189253  1
  O  O189  1  0.26241362  0.49620724  0.36294931  1
  O  O190  1  0.23837378  0.51722452  0.86019903  1
  O  O191  1  0.76164417  -0.00144947  0.38401352  1
  O  O192  1  0.73855051  0.00964717  0.86440123  1
  O  O193  1  0.76193930  0.51049942  0.36859776  1
  O  O194  1  0.76264726  0.50995311  0.88364034  1
  O  O195  1  0.25985358  0.48945989  0.13576487  1
  O  O196  1  0.23665660  0.50679555  0.62770849  1
  O  O197  1  0.24781796  0.99751447  0.12920722  1
  O  O198  1  0.25053244  0.98695064  0.63380503  1
  O  O199  1  0.75233442  0.50983703  0.13866780  1
  O  O200  1  0.73872729  0.47204041  0.57090610  1
  O  O201  1  0.74546666  0.98822534  0.12176244  1
  O  O202  1  0.74179321  0.98588012  0.64181304  1
  O  O203  1  0.01028156  0.37889756  0.25667902  1
  O  O204  1  0.01084125  0.37225437  0.75766957  1
  O  O205  1  0.00787459  0.88371932  0.25240315  1
  O  O206  1  0.00350846  0.87022201  0.75336674  1
  O  O207  1  0.50430823  0.37271481  0.25591254  1
  O  O208  1  0.48739438  0.36832204  0.75909231  1
  O  O209  1  0.50124579  0.86638106  0.25768185  1
  O  O210  1  0.51938158  0.85284011  0.74842790  1
  O  O211  1  0.50109224  0.13960895  0.24355159  1
  O  O212  1  0.48299470  0.12520186  0.75975471  1
  O  O213  1  0.49305930  0.63206765  0.24480989  1
  O  O214  1  0.50410537  0.62939335  0.74323108  1
  O  O215  1  0.98808363  0.12791491  0.24426576  1
  O  O216  1  0.99559597  0.12592103  0.74435199  1
  O  O217  1  1.00481496  0.61785890  0.23163658  1
  O  O218  1  0.99563403  0.62772658  0.74260563  1
  O  O219  1  0.36918108  0.24578701  0.00989189  1
  O  O220  1  0.36907454  0.25951555  0.49794780  1
  O  O221  1  0.37480872  0.74161281  0.01368521  1
  O  O222  1  0.36633056  0.74427840  0.51096624  1
  O  O223  1  0.87132273  0.25940627  0.00756095  1
  O  O224  1  0.87987619  0.24205580  0.51777249  1
  O  O225  1  0.86644582  0.75028021  0.00538154  1
  O  O226  1  0.88244222  0.76333527  0.50394268  1
  O  O227  1  0.13132734  0.24608278  0.49345953  1
  O  O228  1  0.12966446  0.24226997  1.00154096  1
  O  O229  1  0.13211285  0.74354683  0.49311155  1
  O  O230  1  0.12781782  0.75889461  0.98345685  1
  O  O231  1  0.57780841  0.24068420  0.48484986  1
  O  O232  1  0.64023245  0.25592001  0.99996720  1
  O  O233  1  0.61749903  0.73857668  0.50018864  1
  O  O234  1  0.63516167  0.74039571  0.99738272  1
  O  O235  1  0.49470259  0.25176233  0.13765366  1
  O  O236  1  0.49585376  0.25391635  0.64833414  1
  O  O237  1  0.49584982  0.74285199  0.13357564  1
  O  O238  1  0.49446620  0.74450655  0.63162609  1
  O  O239  1  0.98657968  0.24470686  0.12540045  1
  O  O240  1  0.99321815  0.24079777  0.63096376  1
  O  O241  1  0.98982835  0.74175361  0.11561016  1
  O  O242  1  0.99373043  0.74264391  0.62777562  1
  O  O243  1  0.00463862  0.26130986  0.37515021  1
  O  O244  1  0.00246208  0.25791477  0.87021161  1
  O  O245  1  0.01563821  0.75293714  0.37972398  1
  O  O246  1  0.00571085  0.75513999  0.86877696  1
  O  O247  1  0.48410947  0.26385017  0.36106807  1
  O  O248  1  0.48552463  0.24643909  0.87004287  1
  O  O249  1  0.49663315  0.76141566  0.36742554  1
  O  O250  1  0.50767329  0.74022226  0.86658819  1
  O  O251  1  0.24315334  0.13250483  0.49371058  1
  O  O252  1  0.24178361  0.12764853  0.99187850  1
  O  O253  1  0.24022697  0.63624090  0.50497702  1
  O  O254  1  0.25078207  0.62307267  0.98543224  1
  O  O255  1  0.72187133  0.13125481  0.54579580  1
  O  O256  1  0.75332791  0.13477793  0.99057354  1
  O  O257  1  0.73915389  0.62115058  0.48749443  1
  O  O258  1  0.74796087  0.63096403  0.99345029  1
  O  O259  1  0.23773979  0.36597157  0.01774358  1
  O  O260  1  0.25851928  0.36665461  0.48888284  1
  O  O261  1  0.24983984  0.87957096  0.00971672  1
  O  O262  1  0.24180936  0.86547805  0.51326303  1
  O  O263  1  0.76484535  0.36850149  -0.00673853  1
  O  O264  1  0.74407202  0.34482630  0.46957008  1
  O  O265  1  0.74870911  0.85889075  0.01050324  1
  O  O266  1  0.76019162  0.88316140  0.51283814  1
  O  O267  1  0.13966884  0.49223534  0.25770976  1
  O  O268  1  0.12924396  0.49503855  0.73851814  1
  O  O269  1  0.13581834  1.00444063  0.24321178  1
  O  O270  1  0.12864548  0.98682159  0.74877525  1
  O  O271  1  0.63236948  0.49564291  0.24897680  1
  O  O272  1  0.62256683  0.48150796  0.74586416  1
  O  O273  1  0.61963887  1.00088601  0.23789455  1
  O  O274  1  0.63383885  0.97948541  0.74892644  1
  O  O275  1  0.36053026  0.00303965  0.25559152  1
  O  O276  1  0.35837274  0.01709697  0.74423154  1
  O  O277  1  0.37052205  0.50799930  0.25539298  1
  O  O278  1  0.35881394  0.50063225  0.73679303  1
  O  O279  1  0.87473343  0.00777311  0.26592873  1
  O  O280  1  0.86649438  0.00774074  0.74541943  1
  O  O281  1  0.86805479  0.49756812  0.25851818  1
  O  O282  1  0.88576190  0.50270499  0.76463525  1
  O  O283  1  0.11873993  0.37162273  0.36433287  1
  O  O284  1  0.12487709  0.37548049  0.86360905  1
  O  O285  1  0.12297158  0.86140938  0.37686742  1
  O  O286  1  0.11499908  0.86681619  0.86254214  1
  O  O287  1  0.60779312  0.38462855  0.36761968  1
  O  O288  1  0.63047952  0.37241733  0.86226882  1
  O  O289  1  0.61448955  0.87729134  0.37513317  1
  O  O290  1  0.64128171  0.85604743  0.86276342  1
  O  O291  1  0.38496492  0.13912628  0.13149759  1
  O  O292  1  0.36713304  0.12821437  0.63860421  1
  O  O293  1  0.38477202  0.63424026  0.13376044  1
  O  O294  1  0.38384728  0.63438599  0.62654830  1
  O  O295  1  0.87715009  0.13326736  0.13392748  1
  O  O296  1  0.88317213  0.13313654  0.63662066  1
  O  O297  1  0.88412135  0.63942643  0.12280680  1
  O  O298  1  0.87750936  0.62455143  0.62624614  1
  O  O299  1  0.25783746  0.25427918  0.12181922  1
  O  O300  1  0.24922680  0.24725860  0.60758674  1
  O  O301  1  0.25973815  0.76048525  0.12113081  1
  O  O302  1  0.25598082  0.75513712  0.61917470  1
  O  O303  1  0.76256880  0.24647031  0.11462017  1
  O  O304  1  0.77042727  0.25589962  0.63820664  1
  O  O305  1  0.76139194  0.75122270  0.12076528  1
  O  O306  1  0.75721866  0.75995394  0.63119645  1
  O  O307  1  0.24536277  0.24490193  0.38183979  1
  O  O308  1  0.24168628  0.23662125  0.88060324  1
  O  O309  1  0.24451850  0.75868274  0.38803785  1
  O  O310  1  0.24254992  0.74117148  0.87470267  1
  O  O311  1  0.74903891  0.28357418  0.40939824  1
  O  O312  1  0.75639103  0.24242496  0.88532117  1
  O  O313  1  0.75115104  0.73979982  0.36836164  1
  O  O314  1  0.74921499  0.73635387  0.88335415  1
  O  O315  1  0.00119047  0.11905928  0.00401173  1
  O  O316  1  0.00292810  0.11911275  0.50616347  1
  O  O317  1  0.00067045  0.61393026  0.00383899  1
  O  O318  1  0.01086989  0.61688517  0.50314734  1
  O  O319  1  0.51459800  0.14856796  0.02181260  1
  O  O320  1  0.50118669  0.10191255  0.50545382  1
  O  O321  1  0.50698895  0.61721756  0.00907759  1
  O  O322  1  0.50521514  0.62056365  0.50271225  1
  O  O323  1  0.48990284  0.38807863  0.49124985  1
  O  O324  1  0.50049989  0.38705181  1.00143547  1
  O  O325  1  0.49984855  0.88089653  0.48885219  1
  O  O326  1  0.49592795  0.87324917  1.00207913  1
  O  O327  1  1.01317937  0.38765467  0.48697289  1
  O  O328  1  0.99509242  0.38763699  0.99848644  1
  O  O329  1  0.98825778  0.88564433  0.50258067  1
  O  O330  1  0.99893963  0.88362044  0.99050515  1
  O  O331  1  0.48845938  0.49751813  0.37846626  1
  O  O332  1  0.49958712  0.50816723  0.89078448  1
  O  O333  1  0.48573946  0.99097805  0.36543823  1
  O  O334  1  0.53701607  0.98357995  0.88838830  1
  O  O335  1  0.99818349  0.49852040  0.37782711  1
  O  O336  1  0.99580780  0.49882435  0.88644565  1
  O  O337  1  0.98838896  1.00067547  0.38759955  1
  O  O338  1  1.00526738  0.98925368  0.88346649  1
  O  O339  1  0.00359715  0.00581583  0.11562127  1
  O  O340  1  -0.01067203  0.01101580  0.61325882  1
  O  O341  1  -0.00175153  0.51444094  0.11238742  1
  O  O342  1  0.00820050  0.50406403  0.61465325  1
  O  O343  1  0.50465150  0.01432965  0.12869737  1
  O  O344  1  0.50691955  -0.02619069  0.64210812  1
  O  O345  1  0.50140839  0.51169189  0.12175950  1
  O  O346  1  0.50186824  0.50535352  0.61170313  1
  O  O347  1  0.24500286  0.38116557  0.24309514  1
  O  O348  1  0.23609056  0.38515727  0.74921291  1
  O  O349  1  0.24381494  0.88566909  0.23861364  1
  O  O350  1  0.23847622  0.87969144  0.74234555  1
  O  O351  1  0.73903936  0.38884497  0.26136529  1
  O  O352  1  0.74547232  0.37159979  0.75182770  1
  O  O353  1  0.74802980  0.86674267  0.23746310  1
  O  O354  1  0.74969390  0.87564399  0.74519897  1
  O  O355  1  0.24933614  0.11732828  0.25589099  1
  O  O356  1  0.24109532  0.11550224  0.75338389  1
  O  O357  1  0.26334876  0.61627188  0.23907594  1
  O  O358  1  0.24998437  0.61775025  0.75306972  1
  O  O359  1  0.76234444  0.13401770  0.25012308  1
  O  O360  1  0.75771274  0.11597246  0.75411422  1
  O  O361  1  0.74221772  0.61446947  0.26314663  1
  O  O362  1  0.75761448  0.62630612  0.76184789  1
  O  O363  1  0.36582702  0.11374925  0.37269416  1
  O  O364  1  0.35298838  0.13204095  0.85312312  1
  O  O365  1  0.38111680  0.61880029  0.36354411  1
  O  O366  1  0.35638504  0.63082502  0.86898052  1
  O  O367  1  0.87465565  0.11523644  0.37103807  1
  O  O368  1  0.86611817  0.12924207  0.86239257  1
  O  O369  1  0.86874643  0.61822457  0.37869456  1
  O  O370  1  0.87176587  0.61785299  0.86998050  1
  O  O371  1  0.13303117  0.36897005  0.13884571  1
  O  O372  1  0.11555719  0.38629130  0.63159693  1
  O  O373  1  0.13597812  0.88182408  0.12305217  1
  O  O374  1  0.13153721  0.86395886  0.63446846  1
  O  O375  1  0.62167413  0.37675356  0.14338102  1
  O  O376  1  0.63159081  0.37030582  0.64058901  1
  O  O377  1  0.63444949  0.88222072  0.13000497  1
  O  O378  1  0.63489606  0.87081775  0.63773796  1
  O  O379  1  0.12301510  0.25988709  0.25641025  1
  O  O380  1  0.12008576  0.26026697  0.74702181  1
  O  O381  1  0.13797637  0.74769272  0.26858968  1
  O  O382  1  0.11819367  0.75763965  0.75532357  1
  O  O383  1  0.61792330  0.26173296  0.26125809  1
  O  O384  1  0.60497840  0.26642390  0.75841895  1
  O  O385  1  0.61200956  0.75080767  0.25306149  1
  O  O386  1  0.62174877  0.74570282  0.75557229  1
  O  O387  1  0.38130502  0.25154784  0.24151005  1
  O  O388  1  0.37799661  0.24039814  0.74353720  1
  O  O389  1  0.38165546  0.74410398  0.24297855  1
  O  O390  1  0.38632964  0.74168906  0.73993642  1
  O  O391  1  0.87396763  0.24790995  0.24531353  1
  O  O392  1  0.88537697  0.24048806  0.74564518  1
  O  O393  1  0.87862369  0.75248155  0.23601571  1
  O  O394  1  0.88160496  0.74003949  0.74135427  1
  O  O395  1  0.37885804  0.49938359  0.49166725  1
  O  O396  1  0.39137914  0.50560209  1.00523645  1
  O  O397  1  0.36446643  0.99861594  0.48791961  1
  O  O398  1  0.39573142  1.04691862  0.98454399  1
  O  O399  1  0.89241655  0.50517616  0.48722123  1
  O  O400  1  0.87998574  0.49357196  0.99164356  1
  O  O401  1  0.87862330  0.99638682  0.49251901  1
  O  O402  1  0.88688975  0.99936563  1.00461795  1
  O  O403  1  0.11445517  0.00639566  0.00510035  1
  O  O404  1  0.11232570  0.00666085  0.49308135  1
  O  O405  1  0.11462418  0.49870600  -0.00321779  1
  O  O406  1  0.12216534  0.50726307  0.50182304  1
  O  O407  1  0.62223627  0.00841055  0.02218543  1
  O  O408  1  0.62267736  -0.00760786  0.53211187  1
  O  O409  1  0.61671162  0.50348239  0.00489892  1
  O  O410  1  0.60808069  0.51180389  0.48852601  1
  O  O411  1  0.36526421  0.36413920  0.13021204  1
  O  O412  1  0.37781224  0.37556971  0.60676588  1
  O  O413  1  0.36782262  0.86752691  0.13226407  1
  O  O414  1  0.36312509  0.86116362  0.63571606  1
  O  O415  1  0.88320085  0.36894416  0.11632371  1
  O  O416  1  0.88337682  0.36048483  0.62567777  1
  O  O417  1  0.86843678  0.86429703  0.12115132  1
  O  O418  1  0.86858391  0.86913083  0.61873026  1
  O  O419  1  0.12871723  0.13077195  0.37965066  1
  O  O420  1  0.12906883  0.12632142  0.88091442  1
  O  O421  1  0.12325404  0.63662657  0.38569938  1
  O  O422  1  0.13536816  0.63737690  0.86562091  1
  O  O423  1  0.63533209  0.12210489  0.38225682  1
  O  O424  1  0.63796122  0.13581083  0.87514660  1
  O  O425  1  0.63192721  0.63185569  0.38162843  1
  O  O426  1  0.63615088  0.62418585  0.88030240  1
