# generated using pymatgen
data_V85Zn86O256
_symmetry_space_group_name_H-M   'P 1'
_cell_length_a   16.99549641
_cell_length_b   16.97881137
_cell_length_c   16.99030242
_cell_angle_alpha   90.05488852
_cell_angle_beta   89.95497333
_cell_angle_gamma   89.93059438
_symmetry_Int_Tables_number   1
_chemical_formula_structural   V85Zn86O256
_chemical_formula_sum   'V85 Zn86 O256'
_cell_volume   4902.77084159
_cell_formula_units_Z   1
loop_
 _symmetry_equiv_pos_site_id
 _symmetry_equiv_pos_as_xyz
  1  'x, y, z'
loop_
 _atom_site_type_symbol
 _atom_site_label
 _atom_site_symmetry_multiplicity
 _atom_site_fract_x
 _atom_site_fract_y
 _atom_site_fract_z
 _atom_site_occupancy
  V  V0  1  0.62636284  0.88015217  0.23467760  1
  V  V1  1  0.62577156  0.24863476  0.87582523  1
  V  V2  1  0.13345012  0.37428079  0.24694462  1
  V  V3  1  0.12454962  0.49972888  0.62558247  1
  V  V4  1  -0.00241214  0.87398586  0.37570156  1
  V  V5  1  0.25041233  0.25024944  0.50072176  1
  V  V6  1  0.87405809  0.49888861  0.87854515  1
  V  V7  1  0.75342142  0.25300687  0.01304419  1
  V  V8  1  0.49724998  0.38144213  0.87392233  1
  V  V9  1  0.12493577  0.24930332  0.87680622  1
  V  V10  1  0.50080186  0.62325984  0.11911273  1
  V  V11  1  0.61319871  0.87807271  0.75217005  1
  V  V12  1  0.50855126  0.49737886  0.00340821  1
  V  V13  1  0.48661491  -0.00057442  -0.01655167  1
  V  V14  1  0.37546015  -0.00824749  0.37691458  1
  V  V15  1  0.24955199  0.12533382  0.37482771  1
  V  V16  1  0.62041843  0.76385037  0.87435290  1
  V  V17  1  0.87184547  0.87318240  0.49922504  1
  V  V18  1  0.12209417  0.73665674  0.87741724  1
  V  V19  1  0.49752921  -0.00618925  0.49698327  1
  V  V20  1  0.25026775  0.37508741  0.62656251  1
  V  V21  1  0.25777817  0.75219380  0.50013826  1
  V  V22  1  0.13071617  0.49674765  0.12477366  1
  V  V23  1  0.87469261  0.62666825  0.74754586  1
  V  V24  1  0.37016066  0.11723541  0.75519960  1
  V  V25  1  0.37313536  0.50142893  0.37530726  1
  V  V26  1  0.62879430  0.25074363  0.37783791  1
  V  V27  1  0.87666103  0.00153928  0.87417200  1
  V  V28  1  0.87558085  0.75126565  0.12771971  1
  V  V29  1  0.74767289  0.87436887  0.62447405  1
  V  V30  1  0.00007850  0.25303565  0.25030391  1
  V  V31  1  0.86944200  0.37279662  0.01463876  1
  V  V32  1  0.87271025  -0.00030454  0.37355170  1
  V  V33  1  -0.00169483  0.37396260  0.87554581  1
  V  V34  1  0.62536283  0.00094768  0.62256983  1
  V  V35  1  0.24861398  0.25647708  0.00439746  1
  V  V36  1  0.00369398  0.50337658  0.00125800  1
  V  V37  1  -0.00274779  0.12902631  0.12683141  1
  V  V38  1  0.62692600  0.12746804  0.49870918  1
  V  V39  1  0.75158896  0.12656684  0.87314108  1
  V  V40  1  0.12298501  0.62306455  0.50111245  1
  V  V41  1  0.00402850  0.62561703  0.12381987  1
  V  V42  1  0.87349694  0.87675192  0.00359119  1
  V  V43  1  -0.00166205  0.62534082  0.62303381  1
  V  V44  1  0.50230030  0.11773318  0.12383914  1
  V  V45  1  0.75079618  0.62887728  0.87554794  1
  V  V46  1  0.12892867  -0.00373833  0.12680967  1
  V  V47  1  0.88406022  0.12882859  0.74782836  1
  V  V48  1  0.00528629  0.87446955  0.87203612  1
  V  V49  1  0.12024521  0.74772191  0.37734637  1
  V  V50  1  0.86902648  0.50090108  0.36220504  1
  V  V51  1  0.37223484  0.25525254  0.12541748  1
  V  V52  1  0.37512023  0.25134958  0.62378283  1
  V  V53  1  0.62561631  0.11780644  0.00448270  1
  V  V54  1  0.37435174  0.85077565  -0.00987488  1
  V  V55  1  0.25528102  0.62104230  0.87926238  1
  V  V56  1  0.49523834  0.75357945  0.24025206  1
  V  V57  1  0.26161247  0.50665094  0.75235764  1
  V  V58  1  0.49989188  0.25021969  0.74921320  1
  V  V59  1  0.12449729  0.37507153  0.75230736  1
  V  V60  1  0.87864952  0.24911372  0.61115819  1
  V  V61  1  0.51234560  0.51347029  0.50753632  1
  V  V62  1  0.12393376  0.87328469  0.24981833  1
  V  V63  1  0.24982429  -0.00159625  0.25074573  1
  V  V64  1  0.75157896  0.75588936  0.00305441  1
  V  V65  1  0.87300734  0.13063903  0.24666995  1
  V  V66  1  0.62830018  0.37505157  0.74743439  1
  V  V67  1  -0.00011862  0.00257979  0.50644476  1
  V  V68  1  -0.00627094  0.74363301  0.25243330  1
  V  V69  1  0.00232510  0.00033541  0.00111452  1
  V  V70  1  0.12263139  0.12268305  0.50717364  1
  V  V71  1  0.75264553  0.37013403  0.61216935  1
  V  V72  1  0.50049223  0.37636904  0.37710364  1
  V  V73  1  0.49963826  0.24917646  0.24904376  1
  V  V74  1  0.37282111  0.62803866  0.24420429  1
  V  V75  1  0.74526750  -0.00255313  0.23602476  1
  V  V76  1  0.74902200  0.12704749  0.37793295  1
  V  V77  1  0.74368408  0.73819631  0.49614626  1
  V  V78  1  0.63346146  0.38501458  0.23698183  1
  V  V79  1  0.62598758  0.74523338  0.37200918  1
  V  V80  1  0.12573059  0.12589880  0.00107305  1
  V  V81  1  0.74950815  0.49695822  0.74594814  1
  V  V82  1  0.37571695  0.37947419  -0.00294909  1
  V  V83  1  0.25519760  0.88136481  0.62220523  1
  V  V84  1  0.50139630  0.12645279  0.62348443  1
  Zn  Zn85  1  0.37697217  0.75209222  0.62706211  1
  Zn  Zn86  1  0.12422649  0.25460347  0.37729129  1
  Zn  Zn87  1  -0.01981533  0.48454109  0.50365365  1
  Zn  Zn88  1  -0.00724813  0.37475516  0.38264557  1
  Zn  Zn89  1  0.37405558  0.37961471  0.50131542  1
  Zn  Zn90  1  0.24821769  0.62120446  0.37608224  1
  Zn  Zn91  1  0.48079136  0.66661761  0.69616350  1
  Zn  Zn92  1  0.37481994  0.12278173  0.24833847  1
  Zn  Zn93  1  0.12688094  0.87459865  0.74754130  1
  Zn  Zn94  1  0.75194056  0.61826773  0.34846068  1
  Zn  Zn95  1  0.23489451  0.73483075  0.01432436  1
  Zn  Zn96  1  0.87079762  0.74764080  0.62212704  1
  Zn  Zn97  1  0.27023497  0.84997069  0.13371617  1
  Zn  Zn98  1  0.25118343  -0.01192215  0.77025284  1
  Zn  Zn99  1  0.00234737  0.24770150  0.74598429  1
  Zn  Zn100  1  0.75040014  0.00122903  0.74849794  1
  Zn  Zn101  1  0.12147307  0.00003871  0.63132185  1
  Zn  Zn102  1  0.25645677  0.11726932  0.88426828  1
  Zn  Zn103  1  0.25411459  0.49566567  0.24546268  1
  Zn  Zn104  1  0.62970009  0.61840306  0.00042147  1
  Zn  Zn105  1  0.50023315  0.87244294  0.37257681  1
  Zn  Zn106  1  0.00029831  0.75204731  0.74664740  1
  Zn  Zn107  1  0.18669302  0.18741268  0.18709590  1
  Zn  Zn108  1  0.18798436  0.18781664  0.68847921  1
  Zn  Zn109  1  0.18286710  0.67990375  0.19395414  1
  Zn  Zn110  1  0.18864310  0.69144512  0.68972724  1
  Zn  Zn111  1  0.68475772  0.18799604  0.19088660  1
  Zn  Zn112  1  0.69199275  0.19044066  0.68528305  1
  Zn  Zn113  1  0.67847293  0.69707179  0.17842915  1
  Zn  Zn114  1  0.67395039  0.69118615  0.68224397  1
  Zn  Zn115  1  0.31253290  0.31336907  0.31343267  1
  Zn  Zn116  1  0.31099512  0.30955353  0.81407534  1
  Zn  Zn117  1  0.30964084  0.81028179  0.31534101  1
  Zn  Zn118  1  0.31782157  0.80647137  0.80974510  1
  Zn  Zn119  1  0.81219406  0.31915021  0.31102043  1
  Zn  Zn120  1  0.81583710  0.31032157  0.81502199  1
  Zn  Zn121  1  0.80688788  0.81553793  0.31205471  1
  Zn  Zn122  1  0.81177189  0.81566594  0.81170476  1
  Zn  Zn123  1  0.18068883  0.43377210  0.43709590  1
  Zn  Zn124  1  0.18747300  0.43764352  0.93723505  1
  Zn  Zn125  1  0.18541770  0.93651655  0.43815377  1
  Zn  Zn126  1  0.19774156  0.92812157  0.94384675  1
  Zn  Zn127  1  0.68934710  0.44248855  0.42889304  1
  Zn  Zn128  1  0.68870478  0.43435362  0.93525670  1
  Zn  Zn129  1  0.68408797  0.93469732  0.43023895  1
  Zn  Zn130  1  0.68799779  0.94224562  0.94199936  1
  Zn  Zn131  1  0.31312207  0.06566098  0.06413356  1
  Zn  Zn132  1  0.31590061  0.06487012  0.56135178  1
  Zn  Zn133  1  0.31473125  0.56495842  0.05910870  1
  Zn  Zn134  1  0.32302014  0.56824553  0.56683681  1
  Zn  Zn135  1  0.81424280  0.06588959  0.06019194  1
  Zn  Zn136  1  0.81388551  0.06409477  0.56238340  1
  Zn  Zn137  1  0.81704740  0.56797776  0.06759803  1
  Zn  Zn138  1  0.80972809  0.55571256  0.55832563  1
  Zn  Zn139  1  0.44290663  0.43864085  0.18664593  1
  Zn  Zn140  1  0.43930420  0.43985796  0.68540996  1
  Zn  Zn141  1  0.43456491  0.93482280  0.18106542  1
  Zn  Zn142  1  0.43426240  0.93431597  0.68209305  1
  Zn  Zn143  1  0.93883268  0.43874520  0.19045395  1
  Zn  Zn144  1  0.93579489  0.43464770  0.68566856  1
  Zn  Zn145  1  0.93753060  0.93880022  0.18966597  1
  Zn  Zn146  1  0.93221326  0.93822156  0.68805923  1
  Zn  Zn147  1  0.06202378  0.06187386  0.31612464  1
  Zn  Zn148  1  0.06914360  0.05984249  0.81314957  1
  Zn  Zn149  1  0.05690549  0.55685563  0.31456799  1
  Zn  Zn150  1  0.06076202  0.55723123  0.80897351  1
  Zn  Zn151  1  0.56315312  0.06094367  0.31060178  1
  Zn  Zn152  1  0.56391706  0.06286788  0.80914548  1
  Zn  Zn153  1  0.56039929  0.56362128  0.31020107  1
  Zn  Zn154  1  0.57626605  0.57361929  0.79238768  1
  Zn  Zn155  1  0.43666956  0.18475556  0.43741422  1
  Zn  Zn156  1  0.43878882  0.19040637  0.93758053  1
  Zn  Zn157  1  0.44248107  0.68631575  0.43355070  1
  Zn  Zn158  1  0.45123865  0.67196949  0.90701446  1
  Zn  Zn159  1  0.93938909  0.18590471  0.43323590  1
  Zn  Zn160  1  0.93716474  0.19113808  0.93906295  1
  Zn  Zn161  1  0.92781785  0.67874877  0.43637040  1
  Zn  Zn162  1  0.93831133  0.68789192  0.93850144  1
  Zn  Zn163  1  0.05887221  0.31634518  0.06337455  1
  Zn  Zn164  1  0.06306030  0.30907456  0.56423835  1
  Zn  Zn165  1  0.06279274  0.81234472  0.06136379  1
  Zn  Zn166  1  0.06451922  0.81298055  0.56392367  1
  Zn  Zn167  1  0.56349925  0.30732479  0.06097999  1
  Zn  Zn168  1  0.56413036  0.31709161  0.56172478  1
  Zn  Zn169  1  0.55496039  0.81662739  0.05652766  1
  Zn  Zn170  1  0.56420770  0.80938974  0.56051692  1
  O  O171  1  0.11616247  0.11613124  0.12228216  1
  O  O172  1  0.13255528  0.12070957  0.61123644  1
  O  O173  1  0.10994488  0.61446405  0.12920500  1
  O  O174  1  0.11620735  0.62185992  0.62128794  1
  O  O175  1  0.61429915  0.13359790  0.11427664  1
  O  O176  1  0.62262397  0.12212654  0.61959995  1
  O  O177  1  0.60613330  0.63450826  0.11435366  1
  O  O178  1  0.58979249  0.62127101  0.68537348  1
  O  O179  1  0.38458276  0.38218343  0.37416400  1
  O  O180  1  0.38624290  0.36368580  0.88542282  1
  O  O181  1  0.37620992  0.88804689  0.37184842  1
  O  O182  1  0.36471233  0.87204965  0.89144291  1
  O  O183  1  0.87613938  0.38848907  0.37027017  1
  O  O184  1  0.87994807  0.38242991  0.88139946  1
  O  O185  1  0.87778179  0.88053653  0.37994362  1
  O  O186  1  0.88368380  0.88022653  0.88253757  1
  O  O187  1  0.25614022  0.00513573  0.37234608  1
  O  O188  1  0.24548285  0.00561289  0.88096506  1
  O  O189  1  0.26315136  0.49806182  0.37529317  1
  O  O190  1  0.23945468  0.50967579  0.86316762  1
  O  O191  1  0.75385533  0.00953578  0.36563160  1
  O  O192  1  0.75754758  0.01304393  0.87758970  1
  O  O193  1  0.76029319  0.50223258  0.36806402  1
  O  O194  1  0.75442013  0.51037338  0.86967268  1
  O  O195  1  0.23380879  0.50795257  0.12219848  1
  O  O196  1  0.24631108  0.49684146  0.63709479  1
  O  O197  1  0.23733276  1.00634592  0.13162295  1
  O  O198  1  0.25052750  0.98550886  0.61471915  1
  O  O199  1  0.75240653  0.54781986  0.16618987  1
  O  O200  1  0.75809916  0.48441428  0.63811606  1
  O  O201  1  0.75302406  1.00835242  0.13684297  1
  O  O202  1  0.74374836  0.99051338  0.62135202  1
  O  O203  1  0.00598028  0.36106269  0.24692274  1
  O  O204  1  0.00655226  0.37666631  0.75824199  1
  O  O205  1  0.00418438  0.86688652  0.25617313  1
  O  O206  1  -0.00432755  0.87425378  0.76181159  1
  O  O207  1  0.50407475  0.36508199  0.25892848  1
  O  O208  1  0.50865552  0.37157440  0.75459535  1
  O  O209  1  0.50427627  0.86875737  0.24814057  1
  O  O210  1  0.51441116  0.88416510  0.74630026  1
  O  O211  1  0.50065306  0.13397980  0.24263768  1
  O  O212  1  0.49282995  0.13027890  0.74291066  1
  O  O213  1  0.49312115  0.63230915  0.23951470  1
  O  O214  1  0.48137161  0.62719021  0.80307760  1
  O  O215  1  0.99363942  0.12955018  0.24568782  1
  O  O216  1  0.98763975  0.12409297  0.75528603  1
  O  O217  1  1.00264880  0.63846485  0.24279504  1
  O  O218  1  0.98890790  0.62200034  0.74144177  1
  O  O219  1  0.36891657  0.25602671  0.00684511  1
  O  O220  1  0.36853814  0.24988325  0.50640721  1
  O  O221  1  0.39013396  0.75219969  -0.01025156  1
  O  O222  1  0.35800010  0.74556475  0.49076967  1
  O  O223  1  0.86558498  0.26000139  -0.00427693  1
  O  O224  1  0.87749057  0.24175975  0.51216963  1
  O  O225  1  0.87161593  0.75850606  0.00568111  1
  O  O226  1  0.86223972  0.75550767  0.50035230  1
  O  O227  1  0.13193544  0.23818742  0.49824653  1
  O  O228  1  0.13167395  0.24876056  0.99949163  1
  O  O229  1  0.12880186  0.73999939  0.49577212  1
  O  O230  1  0.11959464  0.75140659  0.98201671  1
  O  O231  1  0.61788511  0.24458123  0.48520272  1
  O  O232  1  0.63227116  0.24071071  0.99361621  1
  O  O233  1  0.63257919  0.75924535  0.48204255  1
  O  O234  1  0.63885389  0.75982499  0.99091879  1
  O  O235  1  0.49227048  0.24123329  0.13151783  1
  O  O236  1  0.49670344  0.24675062  0.62917104  1
  O  O237  1  0.49831648  0.74417593  0.13410814  1
  O  O238  1  0.49218586  0.75074005  0.61680426  1
  O  O239  1  1.00628408  0.23633309  0.13384826  1
  O  O240  1  0.98299913  0.25620185  0.62891534  1
  O  O241  1  0.99718007  0.74512367  0.13183044  1
  O  O242  1  0.99594611  0.73822644  0.62688089  1
  O  O243  1  0.00359149  0.24840541  0.36152599  1
  O  O244  1  0.00770961  0.25760784  0.87591933  1
  O  O245  1  -0.00068845  0.75298043  0.36934658  1
  O  O246  1  0.00602688  0.75551869  0.87272554  1
  O  O247  1  0.50430734  0.25434536  0.36714104  1
  O  O248  1  0.50756235  0.25747327  0.86933409  1
  O  O249  1  0.50837357  0.75044037  0.36194966  1
  O  O250  1  0.52397376  0.76156698  0.88792403  1
  O  O251  1  0.24366021  0.12842913  0.49246910  1
  O  O252  1  0.24329278  0.13866970  1.00337390  1
  O  O253  1  0.24080343  0.63677101  0.50154211  1
  O  O254  1  0.24617276  0.62067393  0.98492332  1
  O  O255  1  0.74442644  0.11900340  0.48489771  1
  O  O256  1  0.74532807  0.13068789  0.99241233  1
  O  O257  1  0.74536007  0.63927411  0.50984572  1
  O  O258  1  0.75214380  0.63453554  0.99192315  1
  O  O259  1  0.25989809  0.36524339  -0.00639584  1
  O  O260  1  0.24931300  0.36790165  0.50723711  1
  O  O261  1  0.26075805  0.85419685  0.00481426  1
  O  O262  1  0.24171322  0.86050932  0.50694743  1
  O  O263  1  0.75722815  0.36541669  -0.00561858  1
  O  O264  1  0.74093837  0.37910174  0.51544222  1
  O  O265  1  0.76470454  0.87048468  -0.00606697  1
  O  O266  1  0.75213703  0.86992703  0.50685151  1
  O  O267  1  0.12459748  0.49196490  0.24189806  1
  O  O268  1  0.13033378  0.49283337  0.74311459  1
  O  O269  1  0.12828692  0.99425179  0.24531654  1
  O  O270  1  0.13286481  0.99586216  0.74602967  1
  O  O271  1  0.61676225  0.48302807  0.25370523  1
  O  O272  1  0.63941690  0.48428674  0.76119449  1
  O  O273  1  0.63310785  0.99272504  0.25311246  1
  O  O274  1  0.63036230  0.99600470  0.74192222  1
  O  O275  1  0.36834315  0.00181903  0.25766688  1
  O  O276  1  0.37387766  0.01499609  0.74284603  1
  O  O277  1  0.37674846  0.50649296  0.25630664  1
  O  O278  1  0.35984922  0.49436086  0.75011331  1
  O  O279  1  0.86826361  0.00814551  0.25441496  1
  O  O280  1  0.87080019  0.01048861  0.75546918  1
  O  O281  1  0.88312349  0.50359209  0.26087199  1
  O  O282  1  0.86769977  0.50695480  0.75688939  1
  O  O283  1  0.12119803  0.37401592  0.35831363  1
  O  O284  1  0.11883374  0.36904418  0.87196735  1
  O  O285  1  0.11708446  0.86865611  0.36990903  1
  O  O286  1  0.11429171  0.86687481  0.87558601  1
  O  O287  1  0.61754639  0.36540753  0.36665136  1
  O  O288  1  0.61891130  0.36678471  0.86653215  1
  O  O289  1  0.62263861  0.86456581  0.36021966  1
  O  O290  1  0.63749121  0.87132329  0.86733778  1
  O  O291  1  0.38344785  0.13783216  0.12701046  1
  O  O292  1  0.38136026  0.13194106  0.63302520  1
  O  O293  1  0.38377370  0.61917975  0.13544814  1
  O  O294  1  0.37955322  0.63460931  0.63453320  1
  O  O295  1  0.88721981  0.11805054  0.13486411  1
  O  O296  1  0.86339346  0.13966355  0.63479248  1
  O  O297  1  0.89050074  0.64273483  0.12006777  1
  O  O298  1  0.88061829  0.62249370  0.63238947  1
  O  O299  1  0.25978383  0.24610118  0.11684350  1
  O  O300  1  0.25502618  0.25558796  0.62031962  1
  O  O301  1  0.24180333  0.74222817  0.12571216  1
  O  O302  1  0.24893986  0.75661595  0.61177039  1
  O  O303  1  0.74753518  0.24159908  0.11160516  1
  O  O304  1  0.76081169  0.26200957  0.62672916  1
  O  O305  1  0.76136064  0.74722063  0.11194226  1
  O  O306  1  0.74233627  0.75914658  0.61688236  1
  O  O307  1  0.25034082  0.24020891  0.38032031  1
  O  O308  1  0.24316985  0.24527880  0.88685275  1
  O  O309  1  0.23950019  0.74931852  0.38602268  1
  O  O310  1  0.23386354  0.73484004  0.86918360  1
  O  O311  1  0.73926109  0.23853737  0.36519016  1
  O  O312  1  0.74592484  0.24018784  0.88185330  1
  O  O313  1  0.74442702  0.74516190  0.37862314  1
  O  O314  1  0.75341589  0.74529371  0.88550335  1
  O  O315  1  0.00351368  0.12102730  0.00893380  1
  O  O316  1  0.01062616  0.11383095  0.49025393  1
  O  O317  1  -0.00591724  0.61227135  0.00721583  1
  O  O318  1  0.00813238  0.62728800  0.51017237  1
  O  O319  1  0.50736017  0.12110938  0.00383465  1
  O  O320  1  0.50737504  0.11867669  0.50447994  1
  O  O321  1  0.49700069  0.61188477  0.00138021  1
  O  O322  1  0.50219159  0.61276647  0.49447380  1
  O  O323  1  0.49826928  0.37760554  0.48641221  1
  O  O324  1  0.49571569  0.37708578  0.99324044  1
  O  O325  1  0.50853218  0.89146372  0.49490298  1
  O  O326  1  0.48766460  0.89231941  1.00043387  1
  O  O327  1  1.02655602  0.38289630  0.49189209  1
  O  O328  1  0.98917087  0.38281948  0.99590849  1
  O  O329  1  0.99310506  0.88041392  0.49421382  1
  O  O330  1  0.99251786  0.87980227  0.99078782  1
  O  O331  1  0.49208226  0.49260309  0.37905876  1
  O  O332  1  0.50351500  0.48263955  0.88302839  1
  O  O333  1  0.49134913  1.00273900  0.37999159  1
  O  O334  1  0.50127938  1.00636366  0.88522408  1
  O  O335  1  0.98653793  0.49985857  0.38046423  1
  O  O336  1  0.99467039  0.49574572  0.88415959  1
  O  O337  1  0.99267412  0.99346255  0.38149497  1
  O  O338  1  0.99686087  0.99271193  0.88166651  1
  O  O339  1  0.00857517  0.00859919  0.12305053  1
  O  O340  1  -0.00268301  -0.00561433  0.60971221  1
  O  O341  1  0.00408304  0.50808324  0.11880763  1
  O  O342  1  0.00443520  0.50929105  0.62367569  1
  O  O343  1  0.49394979  0.01557637  0.11632539  1
  O  O344  1  0.50509040  0.00615235  0.61523683  1
  O  O345  1  0.49819251  0.50888382  0.11381979  1
  O  O346  1  0.49825668  0.49197039  0.60621681  1
  O  O347  1  0.23945734  0.37505259  0.24885334  1
  O  O348  1  0.24438074  0.38411244  0.74902424  1
  O  O349  1  0.24218177  0.87977125  0.24819826  1
  O  O350  1  0.25096006  0.87301292  0.73407159  1
  O  O351  1  0.73160038  0.36665874  0.24738347  1
  O  O352  1  0.74507729  0.38014337  0.75095663  1
  O  O353  1  0.74091303  0.88628225  0.25084635  1
  O  O354  1  0.74711342  0.87808872  0.73724533  1
  O  O355  1  0.24884825  0.11882085  0.25978568  1
  O  O356  1  0.26515032  0.12609494  0.74971732  1
  O  O357  1  0.25993320  0.61922642  0.25616896  1
  O  O358  1  0.24288706  0.61122862  0.75638258  1
  O  O359  1  0.75528762  0.11959406  0.25640641  1
  O  O360  1  0.75712870  0.12632116  0.76129635  1
  O  O361  1  0.75089365  0.61107662  0.21551808  1
  O  O362  1  0.75738073  0.61699704  0.75563635  1
  O  O363  1  0.36343628  0.11716429  0.37271441  1
  O  O364  1  0.37735688  0.13353888  0.85768168  1
  O  O365  1  0.37672642  0.61537029  0.36328005  1
  O  O366  1  0.35161852  0.62569382  0.87457834  1
  O  O367  1  0.86683438  0.12058421  0.36599579  1
  O  O368  1  0.86951886  0.12223378  0.86988970  1
  O  O369  1  0.86656861  0.61537955  0.36812066  1
  O  O370  1  0.86832097  0.62127099  0.86840369  1
  O  O371  1  0.11681468  0.38542300  0.13478077  1
  O  O372  1  0.13252171  0.37891878  0.63342366  1
  O  O373  1  0.11949817  0.88689492  0.13076718  1
  O  O374  1  0.13604061  0.87667497  0.62627285  1
  O  O375  1  0.61423373  0.36969647  0.13879057  1
  O  O376  1  0.63959082  0.36438186  0.63831571  1
  O  O377  1  0.62003239  0.87092908  0.13522472  1
  O  O378  1  0.63156832  0.88079981  0.63188596  1
  O  O379  1  0.11813272  0.25614582  0.24979609  1
  O  O380  1  0.12365218  0.25543385  0.75704304  1
  O  O381  1  0.11303994  0.75374789  0.25823160  1
  O  O382  1  0.11966240  0.75370575  0.76236905  1
  O  O383  1  0.61373752  0.25327396  0.25846298  1
  O  O384  1  0.62107849  0.25559801  0.75558866  1
  O  O385  1  0.61662486  0.76022565  0.25146857  1
  O  O386  1  0.63424632  0.76502741  0.76759570  1
  O  O387  1  0.38408817  0.25022838  0.24362110  1
  O  O388  1  0.38084497  0.24417825  0.74239999  1
  O  O389  1  0.38389586  0.74032355  0.25863660  1
  O  O390  1  0.38773270  0.75187621  0.74438675  1
  O  O391  1  0.88230007  0.23666216  0.25453235  1
  O  O392  1  0.87831119  0.24168789  0.74687998  1
  O  O393  1  0.88365058  0.76222542  0.23941591  1
  O  O394  1  0.87338030  0.73647140  0.74785329  1
  O  O395  1  0.38366428  0.50010821  0.48942383  1
  O  O396  1  0.38343048  0.48447472  1.00498223  1
  O  O397  1  0.38656865  1.00821575  0.48939280  1
  O  O398  1  0.38715933  1.01452030  0.99338482  1
  O  O399  1  0.87174344  0.50490007  0.48328165  1
  O  O400  1  0.87894388  0.49425461  0.99839434  1
  O  O401  1  0.88089058  0.99603890  0.49364390  1
  O  O402  1  0.88169529  0.99458465  0.99563938  1
  O  O403  1  0.12070379  0.00337373  0.01049644  1
  O  O404  1  0.11537085  0.00567217  0.49992711  1
  O  O405  1  0.11037819  0.48882031  0.00874620  1
  O  O406  1  0.13454716  0.51523267  0.50854601  1
  O  O407  1  0.61529523  0.01286539  -0.00271182  1
  O  O408  1  0.61816822  0.00763957  0.50157400  1
  O  O409  1  0.61412976  0.49956257  -0.00608287  1
  O  O410  1  0.61011766  0.49557682  0.49011092  1
  O  O411  1  0.38528197  0.36212504  0.11531932  1
  O  O412  1  0.36780288  0.36820867  0.62374755  1
  O  O413  1  0.37285461  0.88441267  0.10177254  1
  O  O414  1  0.35967619  0.87217930  0.61996117  1
  O  O415  1  0.87720973  0.37990065  0.11334971  1
  O  O416  1  0.86333707  0.36321437  0.62754864  1
  O  O417  1  0.88725069  0.86642975  0.11217015  1
  O  O418  1  0.86337077  0.87196009  0.61920123  1
  O  O419  1  0.13710052  0.12302080  0.38314352  1
  O  O420  1  0.12215563  0.13372564  0.88584261  1
  O  O421  1  0.12363663  0.62840334  0.38476260  1
  O  O422  1  0.12079587  0.63397348  0.87144628  1
  O  O423  1  0.63085322  0.13195242  0.37705657  1
  O  O424  1  0.63383103  0.12888395  0.88151012  1
  O  O425  1  0.63427033  0.64033543  0.35426990  1
  O  O426  1  0.64060251  0.64265453  0.87685248  1
