# generated using pymatgen
data_V85Zn86O256
_symmetry_space_group_name_H-M   'P 1'
_cell_length_a   16.95199323
_cell_length_b   16.95265663
_cell_length_c   16.95632580
_cell_angle_alpha   90.01662221
_cell_angle_beta   90.06134033
_cell_angle_gamma   90.10954902
_symmetry_Int_Tables_number   1
_chemical_formula_structural   V85Zn86O256
_chemical_formula_sum   'V85 Zn86 O256'
_cell_volume   4872.91939017
_cell_formula_units_Z   1
loop_
 _symmetry_equiv_pos_site_id
 _symmetry_equiv_pos_as_xyz
  1  'x, y, z'
loop_
 _atom_site_type_symbol
 _atom_site_label
 _atom_site_symmetry_multiplicity
 _atom_site_fract_x
 _atom_site_fract_y
 _atom_site_fract_z
 _atom_site_occupancy
  V  V0  1  0.62166003  0.49573581  0.11939413  1
  V  V1  1  0.23574794  0.50311454  0.74511900  1
  V  V2  1  0.12450033  0.24048646  0.37019233  1
  V  V3  1  0.37986611  0.88984217  0.00279134  1
  V  V4  1  0.62680261  0.37665682  0.74720658  1
  V  V5  1  0.25483504  0.74845403  0.50630655  1
  V  V6  1  0.50311721  0.11958089  0.11697067  1
  V  V7  1  0.87849710  0.00194522  0.87302609  1
  V  V8  1  0.25561455  0.62754017  0.86972009  1
  V  V9  1  0.87447369  0.00020716  0.37533766  1
  V  V10  1  0.87779782  0.48988392  0.87915485  1
  V  V11  1  -0.00012884  0.87357121  0.37703533  1
  V  V12  1  0.38074763  0.87181744  0.50493960  1
  V  V13  1  0.25465778  0.87572046  0.63013907  1
  V  V14  1  0.37415684  0.49769936  0.37667489  1
  V  V15  1  0.62932397  0.50630845  0.62588141  1
  V  V16  1  0.25127150  0.75112699  0.00044682  1
  V  V17  1  0.12576213  0.74940911  0.37648119  1
  V  V18  1  0.00208425  0.87696968  0.87561049  1
  V  V19  1  0.75764628  0.25181406  -0.00160592  1
  V  V20  1  -0.00031607  0.74953250  0.25005443  1
  V  V21  1  0.25010822  0.12310260  0.38894884  1
  V  V22  1  0.87581061  0.87442173  -0.00009964  1
  V  V23  1  0.76106298  0.25274413  0.50136087  1
  V  V24  1  0.12956228  0.88276315  0.75091110  1
  V  V25  1  0.11825383  0.61486698  0.50599388  1
  V  V26  1  0.49716554  0.37396340  0.37690988  1
  V  V27  1  0.75043375  0.12617519  0.37462983  1
  V  V28  1  0.87807117  0.48856446  0.38148077  1
  V  V29  1  0.75066041  0.12820533  0.87289472  1
  V  V30  1  0.24713329  0.37329325  0.13040785  1
  V  V31  1  0.00264438  0.75086025  0.74939632  1
  V  V32  1  0.48748261  0.12663028  0.62317107  1
  V  V33  1  0.75089696  0.49912232  0.24730787  1
  V  V34  1  0.75000299  0.62043952  0.87135436  1
  V  V35  1  0.87448117  0.75044316  0.12497437  1
  V  V36  1  0.37860680  0.00578159  0.85919907  1
  V  V37  1  0.50522457  0.50707298  0.50232527  1
  V  V38  1  0.38207412  -0.00124503  0.38128977  1
  V  V39  1  0.00460787  0.26264456  0.74522043  1
  V  V40  1  0.37639802  0.50040146  0.87167807  1
  V  V41  1  0.12754603  0.00214753  0.61896567  1
  V  V42  1  0.01230440  0.37461303  0.37145354  1
  V  V43  1  0.37459301  0.62461938  0.24958366  1
  V  V44  1  0.12448882  0.49776351  0.12910036  1
  V  V45  1  0.87436159  0.62342818  0.25022897  1
  V  V46  1  0.75001282  0.74946444  0.00109382  1
  V  V47  1  0.61796296  0.62056852  -0.00221649  1
  V  V48  1  0.49978570  0.37807651  0.87853245  1
  V  V49  1  0.62657131  0.73818552  0.38008573  1
  V  V50  1  0.49707200  0.62068741  0.12319149  1
  V  V51  1  0.25287390  0.25285692  -0.00217778  1
  V  V52  1  0.75771040  0.37204792  0.62244187  1
  V  V53  1  0.24716767  0.49695517  0.25102168  1
  V  V54  1  0.62712615  0.87564791  0.74983258  1
  V  V55  1  0.74523942  -0.00123431  0.24504548  1
  V  V56  1  0.87632213  0.87537143  0.50089897  1
  V  V57  1  0.11981599  0.12609634  0.00332640  1
  V  V58  1  0.22698394  0.37582193  0.62930262  1
  V  V59  1  0.74956541  0.73645003  0.50263372  1
  V  V60  1  0.11912974  0.00784258  0.12736929  1
  V  V61  1  0.00046478  0.62366084  0.12369049  1
  V  V62  1  0.37432212  0.25040568  0.12389096  1
  V  V63  1  0.62424208  0.25087932  0.37792241  1
  V  V64  1  0.25063841  0.12026001  0.86038255  1
  V  V65  1  0.25050332  0.00510846  0.25462310  1
  V  V66  1  0.48627791  0.24740561  0.74533238  1
  V  V67  1  0.37531113  0.37006471  0.51679097  1
  V  V68  1  0.24989920  0.62326469  0.37653763  1
  V  V69  1  0.12574506  0.87507431  0.25159660  1
  V  V70  1  0.48803065  0.74752853  0.74760024  1
  V  V71  1  0.62246403  0.00350094  0.61768953  1
  V  V72  1  0.88480935  0.13077884  0.24022120  1
  V  V73  1  0.00554301  0.12718439  0.61995412  1
  V  V74  1  0.87917119  0.13012915  0.74266236  1
  V  V75  1  0.50497818  0.87494971  0.37813870  1
  V  V76  1  0.25134754  0.87670084  0.12668661  1
  V  V77  1  0.50003959  0.24976081  0.24976851  1
  V  V78  1  0.12342114  0.26416776  0.86999006  1
  V  V79  1  0.75973707  0.37275695  0.11828606  1
  V  V80  1  -0.00264701  0.48886340  -0.00095032  1
  V  V81  1  0.62377317  0.74957217  0.87283590  1
  V  V82  1  0.87414970  0.62313709  0.75422527  1
  V  V83  1  0.87580522  0.75107485  0.62756562  1
  V  V84  1  0.48620250  0.62693648  0.62832887  1
  Zn  Zn85  1  0.37750277  0.75246048  0.12632568  1
  Zn  Zn86  1  0.62421911  0.25087862  0.87339680  1
  Zn  Zn87  1  0.24729133  0.24233673  0.51101485  1
  Zn  Zn88  1  0.00331653  0.00908700  0.49808686  1
  Zn  Zn89  1  0.74896824  0.87809047  0.62352233  1
  Zn  Zn90  1  0.12478337  0.62561764  -0.00220276  1
  Zn  Zn91  1  0.01419238  0.60009290  0.63250576  1
  Zn  Zn92  1  0.12774480  0.75138382  0.87510468  1
  Zn  Zn93  1  0.61672825  -0.01074805  0.11269029  1
  Zn  Zn94  1  0.62279660  0.11842099  -0.00787526  1
  Zn  Zn95  1  0.61996063  0.12069801  0.49734250  1
  Zn  Zn96  1  -0.00231880  0.00521830  0.00648751  1
  Zn  Zn97  1  0.89294478  0.25297978  0.11874465  1
  Zn  Zn98  1  0.50639964  0.88870917  0.88334987  1
  Zn  Zn99  1  0.50216353  0.74778875  0.25122465  1
  Zn  Zn100  1  0.75090917  0.00282462  0.74706691  1
  Zn  Zn101  1  0.62526963  0.37499221  0.24851196  1
  Zn  Zn102  1  0.74591845  0.87431014  0.12453169  1
  Zn  Zn103  1  0.74918951  0.61650405  0.38353831  1
  Zn  Zn104  1  0.62468787  0.87125402  0.24818593  1
  Zn  Zn105  1  0.37523652  0.12484148  0.25288139  1
  Zn  Zn106  1  0.38377970  0.38208339  0.00171864  1
  Zn  Zn107  1  0.06684397  0.19719785  0.19385895  1
  Zn  Zn108  1  0.18528861  0.19068208  0.68493367  1
  Zn  Zn109  1  0.18806008  0.68606896  0.18617049  1
  Zn  Zn110  1  0.18991636  0.68888577  0.68765523  1
  Zn  Zn111  1  0.68926974  0.18789578  0.18616966  1
  Zn  Zn112  1  0.68363860  0.19157041  0.68871882  1
  Zn  Zn113  1  0.68534676  0.68687253  0.18929418  1
  Zn  Zn114  1  0.68709282  0.68876318  0.68599959  1
  Zn  Zn115  1  0.31037340  0.30935384  0.31440701  1
  Zn  Zn116  1  0.30982966  0.31879745  0.80811044  1
  Zn  Zn117  1  0.31475168  0.81117276  0.31446778  1
  Zn  Zn118  1  0.31436101  0.81929200  0.81776050  1
  Zn  Zn119  1  0.81293116  0.31236684  0.30671663  1
  Zn  Zn120  1  0.81346937  0.31060703  0.80506485  1
  Zn  Zn121  1  0.80952294  0.81045659  0.31481502  1
  Zn  Zn122  1  0.81043686  0.81244654  0.81486372  1
  Zn  Zn123  1  0.18626935  0.43232479  0.44111916  1
  Zn  Zn124  1  0.19056890  0.44356332  0.94106802  1
  Zn  Zn125  1  0.19058172  0.93462364  0.44140344  1
  Zn  Zn126  1  0.19102162  0.94094076  0.93895948  1
  Zn  Zn127  1  0.68884800  0.43556900  0.43977041  1
  Zn  Zn128  1  0.68912407  0.43624830  0.93493850  1
  Zn  Zn129  1  0.68981616  0.93369643  0.43709934  1
  Zn  Zn130  1  0.68932748  0.94028116  0.93783411  1
  Zn  Zn131  1  0.30811368  0.06780938  0.06339471  1
  Zn  Zn132  1  0.31482423  0.05344334  0.56714711  1
  Zn  Zn133  1  0.31234188  0.56155162  0.05746853  1
  Zn  Zn134  1  0.31064027  0.55793866  0.56274253  1
  Zn  Zn135  1  0.81036595  0.06228968  0.06002204  1
  Zn  Zn136  1  0.81096330  0.06464564  0.56207236  1
  Zn  Zn137  1  0.81168808  0.56262275  0.05946679  1
  Zn  Zn138  1  0.83826623  0.54368313  0.58067064  1
  Zn  Zn139  1  0.43568365  0.43705156  0.18841175  1
  Zn  Zn140  1  0.43814588  0.44389159  0.69535276  1
  Zn  Zn141  1  0.43688741  0.93545272  0.19369157  1
  Zn  Zn142  1  0.44283991  0.93724147  0.68768788  1
  Zn  Zn143  1  0.94325525  0.43141113  0.19319144  1
  Zn  Zn144  1  0.93997891  0.43764206  0.68742612  1
  Zn  Zn145  1  0.93421742  0.93802510  0.18990680  1
  Zn  Zn146  1  0.94198399  0.94076408  0.68698827  1
  Zn  Zn147  1  0.06349032  0.06086756  0.31819227  1
  Zn  Zn148  1  0.06475380  0.06743575  0.81074916  1
  Zn  Zn149  1  0.06132098  0.56176549  0.31499280  1
  Zn  Zn150  1  0.06259406  0.56356901  0.81884717  1
  Zn  Zn151  1  0.56263836  0.06270782  0.30800029  1
  Zn  Zn152  1  0.56197009  0.06386845  0.80580409  1
  Zn  Zn153  1  0.56228996  0.56057295  0.31056478  1
  Zn  Zn154  1  0.56067359  0.56166416  0.80767906  1
  Zn  Zn155  1  0.43414339  0.18771285  0.44303150  1
  Zn  Zn156  1  0.43627402  0.18875034  0.93246799  1
  Zn  Zn157  1  0.43886960  0.68696172  0.43808129  1
  Zn  Zn158  1  0.43529626  0.69192077  0.93573439  1
  Zn  Zn159  1  0.93977911  0.19252075  0.43288447  1
  Zn  Zn160  1  0.93951487  0.19428930  0.93284804  1
  Zn  Zn161  1  0.93484423  0.68298836  0.43659132  1
  Zn  Zn162  1  0.94013221  0.68605916  0.93904496  1
  Zn  Zn163  1  0.06667379  0.31543152  0.05680183  1
  Zn  Zn164  1  0.05773212  0.31040215  0.54846950  1
  Zn  Zn165  1  0.06390572  0.81602826  0.06345722  1
  Zn  Zn166  1  0.06547097  0.80950644  0.56408443  1
  Zn  Zn167  1  0.57143865  0.30521349  0.05793330  1
  Zn  Zn168  1  0.56443275  0.31221133  0.56426604  1
  Zn  Zn169  1  0.56123900  0.80936987  0.06255569  1
  Zn  Zn170  1  0.56466936  0.80869243  0.56392268  1
  O  O171  1  0.12460676  0.11763773  0.11802476  1
  O  O172  1  0.11952874  0.11306143  0.63191054  1
  O  O173  1  0.11964680  0.61535279  0.12293825  1
  O  O174  1  0.12482929  0.62854362  0.61239022  1
  O  O175  1  0.60856357  0.12744344  0.12663593  1
  O  O176  1  0.62261595  0.11309724  0.62527493  1
  O  O177  1  0.61831624  0.61658035  0.11707012  1
  O  O178  1  0.61979436  0.61155191  0.63243515  1
  O  O179  1  0.37815431  0.38014259  0.38336323  1
  O  O180  1  0.38284224  0.37993187  0.87591847  1
  O  O181  1  0.38328201  0.87901885  0.38384004  1
  O  O182  1  0.37393230  0.89425786  0.88281770  1
  O  O183  1  0.87035089  0.38668575  0.37111763  1
  O  O184  1  0.86824892  0.39235132  0.86684809  1
  O  O185  1  0.88012967  0.87847821  0.38222163  1
  O  O186  1  0.88021149  0.88364274  0.87797415  1
  O  O187  1  0.25743920  0.00245410  0.37391703  1
  O  O188  1  0.25698787  0.01434433  0.87563784  1
  O  O189  1  0.25392377  0.50288934  0.37105299  1
  O  O190  1  0.25228040  0.50689829  0.86423890  1
  O  O191  1  0.75316143  0.00844918  0.36892660  1
  O  O192  1  0.76367799  0.00950445  0.87071901  1
  O  O193  1  0.75336894  0.49759753  0.36294441  1
  O  O194  1  0.76339379  0.51191379  0.88270863  1
  O  O195  1  0.24442430  0.49316943  0.12838108  1
  O  O196  1  0.25188861  0.49339521  0.63863544  1
  O  O197  1  0.24275486  0.99839388  0.13656843  1
  O  O198  1  0.24172522  0.98556037  0.62251209  1
  O  O199  1  0.74338658  0.49335612  0.12790317  1
  O  O200  1  0.74156577  0.48414305  0.61724295  1
  O  O201  1  0.74867155  0.99929930  0.13520328  1
  O  O202  1  0.73803512  0.99953736  0.62794735  1
  O  O203  1  -0.01290610  0.36312936  0.27065681  1
  O  O204  1  -0.00136596  0.36158581  0.74436581  1
  O  O205  1  0.00506638  0.86946389  0.25695918  1
  O  O206  1  0.00808623  0.86877182  0.75485786  1
  O  O207  1  0.50044445  0.36457453  0.25573956  1
  O  O208  1  0.50556083  0.36508852  0.75503979  1
  O  O209  1  0.49991576  0.86926433  0.26497948  1
  O  O210  1  0.51071206  0.86479602  0.75125284  1
  O  O211  1  0.49703835  0.13705815  0.24289232  1
  O  O212  1  0.50279243  0.13997977  0.74076738  1
  O  O213  1  0.49313790  0.62278663  0.24078153  1
  O  O214  1  0.50170326  0.63937784  0.74478869  1
  O  O215  1  0.98868347  0.12223516  0.25284873  1
  O  O216  1  0.99645695  0.13223119  0.74092644  1
  O  O217  1  0.99518250  0.63018684  0.24437461  1
  O  O218  1  0.99414676  0.63486989  0.74995803  1
  O  O219  1  0.36770258  0.25094855  0.00643492  1
  O  O220  1  0.36922772  0.26760159  0.49855909  1
  O  O221  1  0.36369032  0.76045821  0.00075439  1
  O  O222  1  0.36446260  0.75762899  0.49513034  1
  O  O223  1  0.86386720  0.24491624  0.00129592  1
  O  O224  1  0.85987153  0.24760922  0.49296143  1
  O  O225  1  0.87100392  0.75400341  0.00496152  1
  O  O226  1  0.87104562  0.75504068  0.50864545  1
  O  O227  1  0.13711610  0.26064766  0.47988858  1
  O  O228  1  0.13297004  0.24517228  0.98666582  1
  O  O229  1  0.13712766  0.74574161  0.49531306  1
  O  O230  1  0.13901029  0.75356948  0.99834617  1
  O  O231  1  0.62873636  0.24835223  0.48694027  1
  O  O232  1  0.63928986  0.23886679  0.99218890  1
  O  O233  1  0.63824882  0.75575616  0.49257633  1
  O  O234  1  0.62894002  0.73944532  0.99296944  1
  O  O235  1  0.49364464  0.24599695  0.13111468  1
  O  O236  1  0.50419824  0.24041870  0.63533138  1
  O  O237  1  0.49873612  0.73322098  0.12816573  1
  O  O238  1  0.50600800  0.74173317  0.63783521  1
  O  O239  1  1.00435030  0.25222560  0.12132403  1
  O  O240  1  1.01665793  0.24332974  0.63858361  1
  O  O241  1  0.99573397  0.74551589  0.13068356  1
  O  O242  1  0.99119182  0.75191313  0.63640086  1
  O  O243  1  0.01821837  0.24916950  0.37272506  1
  O  O244  1  0.01609323  0.24910165  0.86480139  1
  O  O245  1  0.00457921  0.75393254  0.36904854  1
  O  O246  1  0.00190824  0.75620298  0.86504577  1
  O  O247  1  0.50466406  0.25173360  0.36905409  1
  O  O248  1  0.50091226  0.25509070  0.86123829  1
  O  O249  1  0.50988141  0.75517171  0.37703324  1
  O  O250  1  0.50620302  0.74934923  0.86174900  1
  O  O251  1  0.25958961  0.12343312  0.49338521  1
  O  O252  1  0.24110203  0.13831653  0.99561055  1
  O  O253  1  0.24387887  0.63111004  0.49783527  1
  O  O254  1  0.24941591  0.63593750  0.99241474  1
  O  O255  1  0.74675739  0.13174846  0.48895185  1
  O  O256  1  0.75369046  0.13198133  0.98640771  1
  O  O257  1  0.76114711  0.63565856  0.50458501  1
  O  O258  1  0.74003541  0.63008401  0.99216262  1
  O  O259  1  0.25122786  0.36468377  0.00741379  1
  O  O260  1  0.26272592  0.38652007  0.51768258  1
  O  O261  1  0.25797962  0.87082651  0.00575434  1
  O  O262  1  0.25930330  0.86623181  0.50790841  1
  O  O263  1  0.74418902  0.36496400  0.00687449  1
  O  O264  1  0.74387347  0.36583455  0.51212839  1
  O  O265  1  0.75848590  0.86647099  -0.00152703  1
  O  O266  1  0.76496372  0.86691232  0.49934604  1
  O  O267  1  0.13018531  0.50521938  0.23763610  1
  O  O268  1  0.13554848  0.50262412  0.75270213  1
  O  O269  1  0.13181192  0.99589874  0.24713147  1
  O  O270  1  0.11929505  0.98832578  0.74031049  1
  O  O271  1  0.63362173  0.49931579  0.23847711  1
  O  O272  1  0.61997910  0.48794984  0.73974886  1
  O  O273  1  0.63558300  0.99835808  0.24667332  1
  O  O274  1  0.62685208  0.99087216  0.74200685  1
  O  O275  1  0.36643014  -0.00213580  0.26407827  1
  O  O276  1  0.37283849  -0.00376619  0.76064474  1
  O  O277  1  0.36848455  0.50472536  0.25651428  1
  O  O278  1  0.36081375  0.49551932  0.76359570  1
  O  O279  1  0.86717846  0.00971600  0.25556643  1
  O  O280  1  0.87623118  0.00885635  0.75743850  1
  O  O281  1  0.86581856  0.50350742  0.25363580  1
  O  O282  1  0.88242107  0.51551285  0.76709880  1
  O  O283  1  0.11799324  0.37166034  0.37026057  1
  O  O284  1  0.13435860  0.36205177  0.87774948  1
  O  O285  1  0.12093886  0.86968766  0.37135045  1
  O  O286  1  0.12277146  0.87740135  0.86662193  1
  O  O287  1  0.61733535  0.36590956  0.37341145  1
  O  O288  1  0.61849628  0.37792810  0.86440408  1
  O  O289  1  0.61673349  0.86756389  0.37605043  1
  O  O290  1  0.62371460  0.87059679  0.86710321  1
  O  O291  1  0.38245603  0.13561709  0.12765592  1
  O  O292  1  0.38859707  0.11736590  0.62590227  1
  O  O293  1  0.38339908  0.62052276  0.12843972  1
  O  O294  1  0.38663037  0.61985453  0.62542762  1
  O  O295  1  0.87309638  0.12339979  0.13807113  1
  O  O296  1  0.88443031  0.11953063  0.63626650  1
  O  O297  1  0.88042625  0.62948360  0.12989278  1
  O  O298  1  0.86545208  0.64317615  0.64072297  1
  O  O299  1  0.26092511  0.25882667  0.11563724  1
  O  O300  1  0.24231743  0.27032265  0.62650999  1
  O  O301  1  0.25186690  0.75662873  0.11779552  1
  O  O302  1  0.24708613  0.76108944  0.61599621  1
  O  O303  1  0.75001273  0.25731051  0.11631814  1
  O  O304  1  0.73881580  0.26022818  0.61317059  1
  O  O305  1  0.75666383  0.74790621  0.11886649  1
  O  O306  1  0.75673400  0.75646376  0.61925827  1
  O  O307  1  0.24857368  0.23665232  0.37772825  1
  O  O308  1  0.24423851  0.24309980  0.87773804  1
  O  O309  1  0.24565419  0.74425885  0.38409689  1
  O  O310  1  0.25213022  0.74483355  0.88123781  1
  O  O311  1  0.74216296  0.24533348  0.37817207  1
  O  O312  1  0.75348023  0.24341387  0.87936833  1
  O  O313  1  0.74467221  0.74395836  0.38404313  1
  O  O314  1  0.74408126  0.74064572  0.88114626  1
  O  O315  1  0.01622043  0.12446835  -0.01171083  1
  O  O316  1  -0.00748721  0.12981631  0.51584006  1
  O  O317  1  0.00290169  0.61744407  0.00767537  1
  O  O318  1  0.01678312  0.63388153  0.50034656  1
  O  O319  1  0.49841322  0.13293089  0.01447303  1
  O  O320  1  0.50350688  0.13420155  0.51791735  1
  O  O321  1  0.50994119  0.62926754  0.00565477  1
  O  O322  1  0.49570183  0.61421190  0.50895323  1
  O  O323  1  0.48946106  0.38089363  0.49848950  1
  O  O324  1  0.50379752  0.36430193  0.98290116  1
  O  O325  1  0.49089169  0.86593388  0.49212977  1
  O  O326  1  0.48504991  0.86660324  0.99720943  1
  O  O327  1  0.99069200  0.36161162  0.47215071  1
  O  O328  1  1.00127041  0.38954008  0.99909537  1
  O  O329  1  0.98845987  0.87003292  0.49610940  1
  O  O330  1  0.99460072  0.87783719  0.99275474  1
  O  O331  1  0.49644557  0.49507736  0.38319874  1
  O  O332  1  0.49063558  0.48921238  0.86416929  1
  O  O333  1  0.49229888  0.99123313  0.37028282  1
  O  O334  1  0.48390971  1.00773608  0.87117042  1
  O  O335  1  0.98902355  0.48803820  0.36919707  1
  O  O336  1  0.98724869  0.50662589  0.88409637  1
  O  O337  1  0.99404346  0.99250921  0.37991284  1
  O  O338  1  0.99154744  0.99699321  0.87394290  1
  O  O339  1  0.01452908  -0.00634246  0.12612233  1
  O  O340  1  0.00886450  0.00876840  0.62187510  1
  O  O341  1  0.00602775  0.50175213  0.12117609  1
  O  O342  1  -0.05100034  0.51441702  0.61105978  1
  O  O343  1  0.49578565  0.01760966  0.13476058  1
  O  O344  1  0.51174709  0.01475212  0.63379186  1
  O  O345  1  0.51007654  0.50691595  0.12875720  1
  O  O346  1  0.50647560  0.50793711  0.62150462  1
  O  O347  1  0.25833989  0.38079764  0.23789064  1
  O  O348  1  0.24565005  0.38596029  0.73790557  1
  O  O349  1  0.24588991  0.88377013  0.24936856  1
  O  O350  1  0.24097932  0.86639202  0.74131613  1
  O  O351  1  0.74642389  0.38309006  0.23845205  1
  O  O352  1  0.73745463  0.36373244  0.73520200  1
  O  O353  1  0.75130970  0.88722582  0.25093521  1
  O  O354  1  0.73889854  0.87575468  0.74817505  1
  O  O355  1  0.25403616  0.10896420  0.26614170  1
  O  O356  1  0.24763313  0.13045317  0.76224470  1
  O  O357  1  0.25427054  0.61788083  0.25616344  1
  O  O358  1  0.24751266  0.61514008  0.75564883  1
  O  O359  1  0.75613901  0.11859113  0.25759660  1
  O  O360  1  0.76256519  0.13112182  0.75549457  1
  O  O361  1  0.75523937  0.61192727  0.24750436  1
  O  O362  1  0.75902588  0.63281467  0.76237764  1
  O  O363  1  0.37105649  0.11484818  0.37664524  1
  O  O364  1  0.36187408  0.11670245  0.87892439  1
  O  O365  1  0.36955461  0.61764904  0.37154612  1
  O  O366  1  0.36351940  0.61888798  0.87857548  1
  O  O367  1  0.86710208  0.12133926  0.36700092  1
  O  O368  1  0.87255406  0.11945833  0.86537803  1
  O  O369  1  0.87407125  0.61279820  0.36599011  1
  O  O370  1  0.86698224  0.62550252  0.87004987  1
  O  O371  1  0.13771440  0.38521673  0.11981739  1
  O  O372  1  0.12989730  0.38228342  0.61440739  1
  O  O373  1  0.13224432  0.88417419  0.13245936  1
  O  O374  1  0.13234015  0.88042448  0.63224982  1
  O  O375  1  0.63138940  0.38304233  0.12396852  1
  O  O376  1  0.62576148  0.38447973  0.63139264  1
  O  O377  1  0.62673120  0.87358707  0.12986858  1
  O  O378  1  0.62238416  0.88707860  0.63133720  1
  O  O379  1  0.13644087  0.24725024  0.26880984  1
  O  O380  1  0.11804514  0.24847909  0.76227168  1
  O  O381  1  0.12087297  0.75481039  0.25548318  1
  O  O382  1  0.11639749  0.76010203  0.74899934  1
  O  O383  1  0.61745698  0.25054013  0.25983692  1
  O  O384  1  0.61486539  0.26165161  0.75176860  1
  O  O385  1  0.62559411  0.75082864  0.26426447  1
  O  O386  1  0.62132962  0.75878502  0.75421388  1
  O  O387  1  0.38305316  0.24971608  0.24134543  1
  O  O388  1  0.38728796  0.25592873  0.74877843  1
  O  O389  1  0.37624187  0.73977224  0.24803380  1
  O  O390  1  0.38995084  0.76011337  0.75270297  1
  O  O391  1  0.86934351  0.23262701  0.24740244  1
  O  O392  1  0.89504059  0.24151837  0.75821571  1
  O  O393  1  0.87974086  0.74452318  0.24600900  1
  O  O394  1  0.88362419  0.74764542  0.74766772  1
  O  O395  1  0.38461522  0.49079195  0.49671024  1
  O  O396  1  0.36538857  0.49584516  0.98092844  1
  O  O397  1  0.37194305  0.98582945  0.48949763  1
  O  O398  1  0.36736012  0.99356030  0.99740284  1
  O  O399  1  0.86220610  0.50270800  0.47694835  1
  O  O400  1  0.88178341  0.50480732  0.98829501  1
  O  O401  1  0.87551108  0.99085030  0.49540272  1
  O  O402  1  0.87762532  0.99615860  0.98979194  1
  O  O403  1  0.12791079  0.00906492  0.01051926  1
  O  O404  1  0.12124297  -0.00892694  0.51330857  1
  O  O405  1  0.11820816  0.50274281  0.01051224  1
  O  O406  1  0.12812501  0.51628466  0.49550858  1
  O  O407  1  0.62657364  0.00610001  0.00096856  1
  O  O408  1  0.62710331  -0.00228766  0.51364209  1
  O  O409  1  0.63142502  0.50969881  0.00811934  1
  O  O410  1  0.61187090  0.49187333  0.50886005  1
  O  O411  1  0.36982190  0.36796625  0.12065830  1
  O  O412  1  0.37917735  0.37835259  0.61697950  1
  O  O413  1  0.36970820  0.87602509  0.11972556  1
  O  O414  1  0.36877783  0.88378948  0.61585642  1
  O  O415  1  0.86267533  0.37363944  0.12874621  1
  O  O416  1  0.85524205  0.37236189  0.63456061  1
  O  O417  1  0.87353002  0.86832996  0.11838319  1
  O  O418  1  0.87582659  0.86745046  0.62003072  1
  O  O419  1  0.13455186  0.13028217  0.37800181  1
  O  O420  1  0.13866290  0.12860732  0.88072608  1
  O  O421  1  0.13035752  0.63003510  0.38384735  1
  O  O422  1  0.13940012  0.62970970  0.87762708  1
  O  O423  1  0.63258596  0.13205492  0.37444500  1
  O  O424  1  0.64157755  0.12496250  0.86628302  1
  O  O425  1  0.62698124  0.63304192  0.37485849  1
  O  O426  1  0.63076922  0.62509673  0.87942098  1
