# generated using pymatgen
data_V85Zn86O256
_symmetry_space_group_name_H-M   'P 1'
_cell_length_a   16.98429701
_cell_length_b   16.99452297
_cell_length_c   16.98885698
_cell_angle_alpha   90.00689583
_cell_angle_beta   90.12758967
_cell_angle_gamma   89.93453744
_symmetry_Int_Tables_number   1
_chemical_formula_structural   V85Zn86O256
_chemical_formula_sum   'V85 Zn86 O256'
_cell_volume   4903.64872099
_cell_formula_units_Z   1
loop_
 _symmetry_equiv_pos_site_id
 _symmetry_equiv_pos_as_xyz
  1  'x, y, z'
loop_
 _atom_site_type_symbol
 _atom_site_label
 _atom_site_symmetry_multiplicity
 _atom_site_fract_x
 _atom_site_fract_y
 _atom_site_fract_z
 _atom_site_occupancy
  V  V0  1  0.62797849  0.62715350  -0.00434289  1
  V  V1  1  0.50412788  0.36957272  0.38294580  1
  V  V2  1  0.74896784  0.37590076  0.12480067  1
  V  V3  1  0.87435280  0.00038762  0.87527457  1
  V  V4  1  0.00080435  0.87479766  0.87409458  1
  V  V5  1  0.75020658  0.87584471  0.12546733  1
  V  V6  1  0.36855672  0.87631205  0.00083173  1
  V  V7  1  0.49505583  0.87716197  0.87394614  1
  V  V8  1  0.12847724  0.87409571  0.24704426  1
  V  V9  1  0.00739279  0.61884785  0.61152731  1
  V  V10  1  0.62442515  0.74582171  0.38280272  1
  V  V11  1  0.75024855  0.74934969  0.00188255  1
  V  V12  1  0.36866961  0.75549497  0.12336862  1
  V  V13  1  0.49344094  0.00111683  -0.00310549  1
  V  V14  1  -0.00344078  0.39425280  0.37028983  1
  V  V15  1  0.49812869  0.87325943  0.37855617  1
  V  V16  1  0.62481660  0.50178749  0.12478447  1
  V  V17  1  0.62379127  0.87940112  0.73850871  1
  V  V18  1  0.36840036  0.73326263  0.62689803  1
  V  V19  1  0.62398513  0.13183676  0.49670954  1
  V  V20  1  0.50143856  0.75153832  0.25015294  1
  V  V21  1  0.12906269  0.74698518  0.38650657  1
  V  V22  1  0.87173709  0.50450444  0.86383356  1
  V  V23  1  0.00114349  0.25169145  0.74600887  1
  V  V24  1  0.62990739  0.38175890  0.74874305  1
  V  V25  1  0.87541979  -0.00121195  0.37751755  1
  V  V26  1  0.23923183  0.37868601  0.13080246  1
  V  V27  1  0.01061115  0.25242784  0.26052729  1
  V  V28  1  0.87574370  0.74976633  0.12759540  1
  V  V29  1  0.01323742  -0.00177695  0.50308278  1
  V  V30  1  0.36996925  0.87052518  0.50480702  1
  V  V31  1  0.12612472  0.25384401  0.87446845  1
  V  V32  1  0.87484404  0.87446032  0.00009850  1
  V  V33  1  0.49963543  0.00052935  0.50549322  1
  V  V34  1  0.24889262  0.88811364  0.63178958  1
  V  V35  1  0.62378957  0.36870713  0.25116797  1
  V  V36  1  0.49440745  0.73531611  0.74834950  1
  V  V37  1  0.87584288  0.24906876  0.61853712  1
  V  V38  1  0.87610672  0.24896212  0.12531356  1
  V  V39  1  0.24900949  0.50080345  0.74284103  1
  V  V40  1  0.37528778  0.37585613  0.00135781  1
  V  V41  1  -0.00004542  0.75040973  0.25094924  1
  V  V42  1  0.25403610  0.11536395  0.86660784  1
  V  V43  1  0.00141495  0.12591490  0.12649575  1
  V  V44  1  0.50074426  0.37394642  0.87472832  1
  V  V45  1  0.25002613  0.25128365  0.00149945  1
  V  V46  1  0.12905823  0.37938124  0.73790124  1
  V  V47  1  0.37661131  0.25278463  0.13122391  1
  V  V48  1  0.75360420  0.62369431  0.86508660  1
  V  V49  1  0.24100036  0.50323609  0.24125563  1
  V  V50  1  0.24805616  0.62676013  0.38647161  1
  V  V51  1  0.87626566  0.74327091  0.62798274  1
  V  V52  1  0.74768728  0.24847316  -0.00338459  1
  V  V53  1  0.87537163  0.12445950  0.25174344  1
  V  V54  1  0.12680873  -0.00168676  0.12613287  1
  V  V55  1  0.37512177  0.50021279  0.87192791  1
  V  V56  1  0.50018733  0.62669966  0.12345703  1
  V  V57  1  0.75016221  -0.00040896  0.25082293  1
  V  V58  1  0.62295410  0.00061459  0.12398726  1
  V  V59  1  0.12712908  0.15419966  0.49846638  1
  V  V60  1  0.37399025  0.12846625  0.25169865  1
  V  V61  1  0.38599910  0.50169701  0.37732540  1
  V  V62  1  0.37333919  -0.00053738  0.37663013  1
  V  V63  1  0.12879826  0.88672732  0.74829705  1
  V  V64  1  0.87492867  0.39437935  0.49288128  1
  V  V65  1  0.87244910  0.87701915  0.50955916  1
  V  V66  1  0.74958717  0.75229158  0.50514704  1
  V  V67  1  0.24407050  0.13272281  0.37783897  1
  V  V68  1  0.74546534  0.13141321  0.37606929  1
  V  V69  1  0.00184307  0.87328291  0.37766472  1
  V  V70  1  0.75646709  0.50141306  0.25413257  1
  V  V71  1  0.87482321  0.37754040  -0.00102635  1
  V  V72  1  0.12623099  0.12463438  -0.00041582  1
  V  V73  1  0.75590806  0.62440756  0.37719370  1
  V  V74  1  0.00570931  0.62275806  0.12520183  1
  V  V75  1  0.74991976  0.12299790  0.86890363  1
  V  V76  1  0.25018156  -0.00439506  0.24587516  1
  V  V77  1  0.25369874  0.62494793  0.87439352  1
  V  V78  1  0.00524898  0.50001684  0.00476938  1
  V  V79  1  0.37708939  0.10996728  0.75029770  1
  V  V80  1  0.12674311  0.74806320  0.87594236  1
  V  V81  1  0.00000747  0.00018313  0.00128717  1
  V  V82  1  0.74826215  0.38576229  0.62875617  1
  V  V83  1  0.00866271  0.12186174  0.62530561  1
  V  V84  1  -0.00306828  0.74267279  0.75038142  1
  Zn  Zn85  1  0.62399770  0.24874627  0.87086283  1
  Zn  Zn86  1  0.37249955  0.62671452  0.24659256  1
  Zn  Zn87  1  0.17053315  0.55713794  0.56119404  1
  Zn  Zn88  1  0.62528804  0.75205360  0.87378192  1
  Zn  Zn89  1  0.74790549  0.25185795  0.49823011  1
  Zn  Zn90  1  -0.00015116  0.37919169  0.87289696  1
  Zn  Zn91  1  0.50269864  0.12925533  0.62613659  1
  Zn  Zn92  1  0.37266137  0.24497966  0.62867310  1
  Zn  Zn93  1  0.50012383  0.24714882  0.74915630  1
  Zn  Zn94  1  0.75894797  -0.01563509  0.74041232  1
  Zn  Zn95  1  0.62603062  0.87606073  0.25323776  1
  Zn  Zn96  1  0.87535166  0.12171869  0.74611059  1
  Zn  Zn97  1  0.49916041  0.12590783  0.12483644  1
  Zn  Zn98  1  0.24775201  0.75237055  0.00386299  1
  Zn  Zn99  1  0.49974551  0.50217706  -0.00181548  1
  Zn  Zn100  1  0.52644550  0.51660742  0.51421883  1
  Zn  Zn101  1  0.50600495  0.24705142  0.25567766  1
  Zn  Zn102  1  0.12856056  0.61879805  0.00351229  1
  Zn  Zn103  1  0.29851976  0.33587390  0.53418225  1
  Zn  Zn104  1  0.87957124  0.61949081  0.25371567  1
  Zn  Zn105  1  0.62025859  0.12560296  -0.00222024  1
  Zn  Zn106  1  0.63924769  0.00104178  0.61984421  1
  Zn  Zn107  1  0.18974473  0.18818930  0.18970670  1
  Zn  Zn108  1  0.19624527  0.19676196  0.67969012  1
  Zn  Zn109  1  0.18622783  0.68786065  0.19154781  1
  Zn  Zn110  1  0.18734510  0.69255853  0.69026722  1
  Zn  Zn111  1  0.68948505  0.18551450  0.18517109  1
  Zn  Zn112  1  0.68414727  0.19132581  0.68429213  1
  Zn  Zn113  1  0.68755519  0.68768086  0.19048142  1
  Zn  Zn114  1  0.69022420  0.70332438  0.69270739  1
  Zn  Zn115  1  0.29817195  0.33085255  0.33598090  1
  Zn  Zn116  1  0.31315003  0.30879318  0.80551292  1
  Zn  Zn117  1  0.31324469  0.80943917  0.31344271  1
  Zn  Zn118  1  0.31449636  0.81346701  0.81049554  1
  Zn  Zn119  1  0.81535321  0.31280547  0.31079749  1
  Zn  Zn120  1  0.81415127  0.31211626  0.81069281  1
  Zn  Zn121  1  0.81342622  0.81284855  0.31537292  1
  Zn  Zn122  1  0.81160976  0.80951128  0.81391158  1
  Zn  Zn123  1  0.18519231  0.44432405  0.41579624  1
  Zn  Zn124  1  0.19036517  0.43530871  0.93673129  1
  Zn  Zn125  1  0.19290455  0.93408645  0.43527507  1
  Zn  Zn126  1  0.18611710  0.93663899  0.93595373  1
  Zn  Zn127  1  0.68960652  0.43420505  0.43573357  1
  Zn  Zn128  1  0.68568960  0.44174158  0.93368763  1
  Zn  Zn129  1  0.68566573  0.93668812  0.43921682  1
  Zn  Zn130  1  0.68375874  0.93734434  0.93459785  1
  Zn  Zn131  1  0.31120722  0.06432863  0.06230779  1
  Zn  Zn132  1  0.30775643  0.06714851  0.56218689  1
  Zn  Zn133  1  0.31309200  0.56461149  0.05944842  1
  Zn  Zn134  1  0.36772035  0.51877604  0.59295275  1
  Zn  Zn135  1  0.81205486  0.06309829  0.06166526  1
  Zn  Zn136  1  0.81445731  0.06326411  0.56364185  1
  Zn  Zn137  1  0.81541585  0.56285835  0.06461518  1
  Zn  Zn138  1  0.70290250  0.56785633  0.56447221  1
  Zn  Zn139  1  0.43470881  0.43949668  0.19416017  1
  Zn  Zn140  1  0.44375175  0.40930545  0.67789242  1
  Zn  Zn141  1  0.43678276  0.93704470  0.18641022  1
  Zn  Zn142  1  0.43790188  0.93468739  0.68634955  1
  Zn  Zn143  1  0.94050361  0.43610065  0.18614132  1
  Zn  Zn144  1  0.93805944  0.43846637  0.68050206  1
  Zn  Zn145  1  0.93884799  0.93708283  0.18892276  1
  Zn  Zn146  1  0.94238518  0.93672199  0.68931462  1
  Zn  Zn147  1  0.06329543  0.06397645  0.31716615  1
  Zn  Zn148  1  0.06278881  0.06519326  0.81497686  1
  Zn  Zn149  1  0.06468246  0.56542840  0.31264996  1
  Zn  Zn150  1  0.06229946  0.56173444  0.81487882  1
  Zn  Zn151  1  0.56118392  0.06090706  0.31450192  1
  Zn  Zn152  1  0.56408386  0.06038124  0.81456318  1
  Zn  Zn153  1  0.56928201  0.56371725  0.31186491  1
  Zn  Zn154  1  0.55845686  0.55928085  0.69059309  1
  Zn  Zn155  1  0.43273353  0.19033666  0.44170232  1
  Zn  Zn156  1  0.43381206  0.18777874  0.93742058  1
  Zn  Zn157  1  0.43022223  0.68491334  0.44057387  1
  Zn  Zn158  1  0.43697688  0.68935694  0.93531048  1
  Zn  Zn159  1  0.93762271  0.18571867  0.43873509  1
  Zn  Zn160  1  0.93709252  0.18696568  0.93523274  1
  Zn  Zn161  1  0.93665069  0.68633766  0.43993199  1
  Zn  Zn162  1  0.93752809  0.68569266  0.93865198  1
  Zn  Zn163  1  0.06046199  0.31117284  0.06409526  1
  Zn  Zn164  1  0.08998856  0.36889736  0.52891925  1
  Zn  Zn165  1  0.06206107  0.81147650  0.06330226  1
  Zn  Zn166  1  0.06398373  0.81222904  0.56716299  1
  Zn  Zn167  1  0.56095292  0.31382739  0.06317401  1
  Zn  Zn168  1  0.55944883  0.31104553  0.56383028  1
  Zn  Zn169  1  0.56142932  0.81516845  0.06104988  1
  Zn  Zn170  1  0.56059737  0.69636930  0.56385444  1
  O  O171  1  0.12142826  0.11966897  0.11930249  1
  O  O172  1  0.11886070  0.13660179  0.61045322  1
  O  O173  1  0.11036760  0.63467422  0.12113985  1
  O  O174  1  0.11447038  0.63352806  0.62418478  1
  O  O175  1  0.62309772  0.11350100  0.12188735  1
  O  O176  1  0.62230883  0.12124744  0.61319944  1
  O  O177  1  0.61851504  0.62319199  0.11792565  1
  O  O178  1  0.62975984  0.62937505  0.63085458  1
  O  O179  1  0.39660890  0.39243886  0.36303246  1
  O  O180  1  0.37822894  0.37900113  0.88071859  1
  O  O181  1  0.37570511  0.87734004  0.38479667  1
  O  O182  1  0.38617466  0.86967868  0.88397526  1
  O  O183  1  0.87540686  0.37290338  0.38645489  1
  O  O184  1  0.87432019  0.38491057  0.88415588  1
  O  O185  1  0.88315513  0.87895010  0.38501965  1
  O  O186  1  0.88085047  0.87956430  0.88137490  1
  O  O187  1  0.25384625  0.00766189  0.36610520  1
  O  O188  1  0.24277917  0.01748844  0.87762503  1
  O  O189  1  0.25987597  0.51415717  0.35857904  1
  O  O190  1  0.25553322  0.50671864  0.87309987  1
  O  O191  1  0.75579032  0.00584957  0.36978876  1
  O  O192  1  0.75600083  0.00856644  0.87588979  1
  O  O193  1  0.74343236  0.51189051  0.36340930  1
  O  O194  1  0.76429342  0.50763743  0.88132729  1
  O  O195  1  0.25668033  0.49485391  0.13367374  1
  O  O196  1  0.24937625  0.51569361  0.64330992  1
  O  O197  1  0.24343400  1.00518707  0.13764022  1
  O  O198  1  0.25029594  0.98657103  0.62580353  1
  O  O199  1  0.74419476  0.49503948  0.13070306  1
  O  O200  1  0.75739553  0.48349536  0.62654399  1
  O  O201  1  0.74300986  0.99632381  0.12912163  1
  O  O202  1  0.75276646  0.99924509  0.62903798  1
  O  O203  1  -0.01400039  0.36023522  0.25924224  1
  O  O204  1  0.01051100  0.36821700  0.75135823  1
  O  O205  1  0.00901947  0.87191723  0.25774092  1
  O  O206  1  0.01003682  0.86583598  0.75500638  1
  O  O207  1  0.51096012  0.37470327  0.25486911  1
  O  O208  1  0.50896464  0.37099515  0.75993919  1
  O  O209  1  0.49823204  0.86623770  0.25805976  1
  O  O210  1  0.50625997  0.87433986  0.75846305  1
  O  O211  1  0.48671802  0.12648875  0.25128654  1
  O  O212  1  0.48708953  0.12368921  0.75501856  1
  O  O213  1  0.50319049  0.63634793  0.23947725  1
  O  O214  1  0.50440547  0.63813869  0.75853685  1
  O  O215  1  0.99600946  0.13280288  0.24696450  1
  O  O216  1  1.00503034  0.13381182  0.74179484  1
  O  O217  1  0.99931850  0.63157778  0.24193753  1
  O  O218  1  1.00751993  0.64017385  0.74795638  1
  O  O219  1  0.36881482  0.25468925  0.01115869  1
  O  O220  1  0.36999104  0.24481269  0.51253548  1
  O  O221  1  0.37524427  0.75890376  0.00740478  1
  O  O222  1  0.38186382  0.76063183  0.51743017  1
  O  O223  1  0.86979225  0.25852645  0.00280549  1
  O  O224  1  0.87644541  0.25005254  0.51090536  1
  O  O225  1  0.87114505  0.75598958  0.00673247  1
  O  O226  1  0.87032059  0.75935448  0.50735755  1
  O  O227  1  0.11859914  0.25114317  0.49770623  1
  O  O228  1  0.12798662  0.24467645  0.99291523  1
  O  O229  1  0.12477388  0.75879106  0.48482185  1
  O  O230  1  0.12721209  0.75449508  0.98618149  1
  O  O231  1  0.62610685  0.23558241  0.50116599  1
  O  O232  1  0.63829183  0.25014839  1.00039322  1
  O  O233  1  0.63591660  0.75546853  0.49178007  1
  O  O234  1  0.63117619  0.74289155  1.00172064  1
  O  O235  1  0.48766030  0.24862159  0.12794342  1
  O  O236  1  0.49253260  0.24742259  0.62951260  1
  O  O237  1  0.49550619  0.74553988  0.13191189  1
  O  O238  1  0.48726707  0.74795272  0.64061456  1
  O  O239  1  0.99466760  0.24515976  0.13419669  1
  O  O240  1  0.99356767  0.24057469  0.63513281  1
  O  O241  1  0.99483661  0.74436487  0.13013611  1
  O  O242  1  0.99775404  0.74521363  0.63312515  1
  O  O243  1  -0.00488754  0.24747375  0.36108365  1
  O  O244  1  0.00887716  0.24845846  0.86469282  1
  O  O245  1  0.00875555  0.75306595  0.37027901  1
  O  O246  1  0.00562400  0.75437652  0.87020461  1
  O  O247  1  0.49361592  0.26664512  0.37390305  1
  O  O248  1  0.49990397  0.26407814  0.87995238  1
  O  O249  1  0.50467294  0.75313226  0.36819417  1
  O  O250  1  0.49796507  0.75733327  0.86357316  1
  O  O251  1  0.23236347  0.12474989  0.49475287  1
  O  O252  1  0.24593385  0.13139062  0.99082513  1
  O  O253  1  0.24496440  0.61549719  0.48396070  1
  O  O254  1  0.24549333  0.62866396  0.98992189  1
  O  O255  1  0.74208692  0.12401399  0.49107366  1
  O  O256  1  0.75227091  0.13468727  0.99115003  1
  O  O257  1  0.75377815  0.64280227  0.49016642  1
  O  O258  1  0.74437346  0.63055263  1.00024571  1
  O  O259  1  0.25611524  0.37053371  0.00914409  1
  O  O260  1  0.25648657  0.36280791  0.43731039  1
  O  O261  1  0.26370927  0.87387323  -0.00812761  1
  O  O262  1  0.26116422  0.87933359  0.51220352  1
  O  O263  1  0.75710329  0.36876950  0.00301427  1
  O  O264  1  0.76011385  0.36946967  0.50871615  1
  O  O265  1  0.75519668  0.87025734  0.00493430  1
  O  O266  1  0.76313050  0.86646975  0.49236430  1
  O  O267  1  0.14233666  0.50310520  0.25195886  1
  O  O268  1  0.13138044  0.48651752  0.75841735  1
  O  O269  1  0.13078835  0.99378025  0.24797670  1
  O  O270  1  0.11716495  0.98558837  0.75368176  1
  O  O271  1  0.63461599  0.49266380  0.24245447  1
  O  O272  1  0.62312970  0.48122401  0.74587116  1
  O  O273  1  0.62930134  0.99844257  0.24070902  1
  O  O274  1  0.62476082  0.98779262  0.74899963  1
  O  O275  1  0.36802695  0.00620328  0.25360082  1
  O  O276  1  0.37835568  0.01044691  0.75436056  1
  O  O277  1  0.37001953  0.50887751  0.25844688  1
  O  O278  1  0.35474205  0.49155700  0.76222231  1
  O  O279  1  0.87153056  0.00492665  0.25608835  1
  O  O280  1  0.87681450  0.00016331  0.76002056  1
  O  O281  1  0.85940747  0.49901525  0.24153109  1
  O  O282  1  0.87943221  0.49198181  0.76677280  1
  O  O283  1  0.09449081  0.37836211  0.37447517  1
  O  O284  1  0.12203248  0.36340395  0.87198470  1
  O  O285  1  0.12275425  0.86801191  0.36557365  1
  O  O286  1  0.12113945  0.86799919  0.86820646  1
  O  O287  1  0.61429880  0.38183636  0.36228265  1
  O  O288  1  0.61820808  0.37466454  0.86939274  1
  O  O289  1  0.61735430  0.86440297  0.37443175  1
  O  O290  1  0.60880598  0.87131735  0.87552499  1
  O  O291  1  0.37195136  0.13432972  0.13524797  1
  O  O292  1  0.37275010  0.11912151  0.64253754  1
  O  O293  1  0.38754467  0.63527850  0.12061013  1
  O  O294  1  0.36596355  0.63572688  0.61934904  1
  O  O295  1  0.88148394  0.12825111  0.13035512  1
  O  O296  1  0.88869460  0.13303105  0.62540059  1
  O  O297  1  0.88601250  0.63276674  0.12731336  1
  O  O298  1  0.89246321  0.64352501  0.62615375  1
  O  O299  1  0.25803627  0.25739889  0.12346416  1
  O  O300  1  0.25885116  0.26908711  0.62568431  1
  O  O301  1  0.26472052  0.74385696  0.12533253  1
  O  O302  1  0.26571083  0.75710859  0.63542192  1
  O  O303  1  0.75664973  0.25419277  0.11538817  1
  O  O304  1  0.76535677  0.25300285  0.62383171  1
  O  O305  1  0.75496652  0.75603001  0.12208652  1
  O  O306  1  0.76174447  0.74905127  0.61511657  1
  O  O307  1  0.24949333  0.22842003  0.35627359  1
  O  O308  1  0.24047983  0.24504224  0.88047897  1
  O  O309  1  0.24527100  0.73513785  0.36888121  1
  O  O310  1  0.24341955  0.74111701  0.87082995  1
  O  O311  1  0.75665241  0.23463481  0.37540952  1
  O  O312  1  0.75347849  0.24323692  0.88369385  1
  O  O313  1  0.74290917  0.74672813  0.38123658  1
  O  O314  1  0.75096842  0.74054697  0.88572531  1
  O  O315  1  0.00577981  0.12074107  0.00528321  1
  O  O316  1  0.01430998  0.12023529  0.50410062  1
  O  O317  1  0.00048699  0.61691262  0.00826485  1
  O  O318  1  0.00080615  0.62698114  0.51173358  1
  O  O319  1  0.49802527  0.11532181  0.00187302  1
  O  O320  1  0.50734841  0.11478987  0.49404610  1
  O  O321  1  0.50952792  0.62735104  0.00748771  1
  O  O322  1  0.50627773  0.62723773  0.49487223  1
  O  O323  1  0.51281407  0.38308412  0.48311985  1
  O  O324  1  0.49426731  0.37891047  0.99377017  1
  O  O325  1  0.48371513  0.88710996  0.49376228  1
  O  O326  1  0.49101724  0.88084314  0.99391448  1
  O  O327  1  0.98303347  0.37669876  0.48358277  1
  O  O328  1  0.98992073  0.37997514  1.00034384  1
  O  O329  1  0.99392878  0.88066775  0.49733123  1
  O  O330  1  0.99525879  0.88058800  0.99489784  1
  O  O331  1  0.49313920  0.50223066  0.37231834  1
  O  O332  1  0.48500375  0.48561903  0.87582428  1
  O  O333  1  0.49229213  0.99288197  0.38110302  1
  O  O334  1  0.50357619  0.99213369  0.88909379  1
  O  O335  1  0.98880945  0.49324157  0.35643884  1
  O  O336  1  0.98638128  0.50086309  0.88438489  1
  O  O337  1  0.99573614  0.99455312  0.38384448  1
  O  O338  1  0.99581208  0.99567241  0.88259659  1
  O  O339  1  0.00611416  0.00609383  0.12113786  1
  O  O340  1  -0.00333134  0.01343143  0.61731903  1
  O  O341  1  -0.00532942  0.50944382  0.11717436  1
  O  O342  1  -0.00263752  0.52111352  0.63287179  1
  O  O343  1  0.50787978  0.00004128  0.11821946  1
  O  O344  1  0.49869344  0.00265100  0.61188214  1
  O  O345  1  0.50423526  0.51291837  0.12584849  1
  O  O346  1  0.48427050  0.50446077  0.62345021  1
  O  O347  1  0.25782085  0.39233155  0.24358484  1
  O  O348  1  0.23668989  0.38658627  0.75689914  1
  O  O349  1  0.24175823  0.88540403  0.25807535  1
  O  O350  1  0.24494450  0.87475136  0.74103197  1
  O  O351  1  0.74388050  0.38081435  0.24556917  1
  O  O352  1  0.74727384  0.36881967  0.73664384  1
  O  O353  1  0.75019198  0.88216902  0.24412160  1
  O  O354  1  0.72833756  0.86980328  0.76273397  1
  O  O355  1  0.25499724  0.11337999  0.25537774  1
  O  O356  1  0.25562162  0.12852843  0.76091798  1
  O  O357  1  0.25304461  0.61498852  0.24827865  1
  O  O358  1  0.23727457  0.61060660  0.76466168  1
  O  O359  1  0.75504298  0.11897968  0.25620517  1
  O  O360  1  0.75238331  0.12853050  0.76293317  1
  O  O361  1  0.75223067  0.61806655  0.25597154  1
  O  O362  1  0.74619500  0.63463652  0.76729748  1
  O  O363  1  0.36648969  0.11903823  0.36786864  1
  O  O364  1  0.36043208  0.12833280  0.86843634  1
  O  O365  1  0.36276133  0.62266182  0.36960612  1
  O  O366  1  0.36515314  0.61457223  0.88095915  1
  O  O367  1  0.86762457  0.11689754  0.37219818  1
  O  O368  1  0.86845368  0.11850446  0.87299690  1
  O  O369  1  0.86105033  0.63495771  0.37028679  1
  O  O370  1  0.86898197  0.61215983  0.88053122  1
  O  O371  1  0.14011285  0.37008453  0.12144943  1
  O  O372  1  0.12139748  0.37225347  0.64078558  1
  O  O373  1  0.11929780  0.88005746  0.13935179  1
  O  O374  1  0.14169163  0.86575748  0.63376639  1
  O  O375  1  0.62976622  0.38187884  0.13012495  1
  O  O376  1  0.64323677  0.36651825  0.62874851  1
  O  O377  1  0.63071810  0.88509748  0.12624518  1
  O  O378  1  0.62021726  0.87653756  0.64061807  1
  O  O379  1  0.10926316  0.24635807  0.24768514  1
  O  O380  1  0.12171070  0.26034436  0.75588016  1
  O  O381  1  0.12049551  0.75932863  0.25670844  1
  O  O382  1  0.11851581  0.75894653  0.76205613  1
  O  O383  1  0.62572010  0.26332529  0.24097357  1
  O  O384  1  0.62183469  0.26053244  0.75312566  1
  O  O385  1  0.61518894  0.75414244  0.25688311  1
  O  O386  1  0.60918490  0.76233263  0.75298273  1
  O  O387  1  0.37234799  0.24089638  0.24347350  1
  O  O388  1  0.37892374  0.23698814  0.74923083  1
  O  O389  1  0.38544225  0.74991153  0.24201412  1
  O  O390  1  0.38550271  0.75133444  0.74124719  1
  O  O391  1  0.87963924  0.24166644  0.24264123  1
  O  O392  1  0.88756604  0.25095462  0.74267512  1
  O  O393  1  0.88351782  0.75283930  0.24431519  1
  O  O394  1  0.88672988  0.76188245  0.74137315  1
  O  O395  1  0.37231292  0.50710086  0.47538669  1
  O  O396  1  0.37543999  0.49330767  0.99081310  1
  O  O397  1  0.37888719  0.99747968  0.49503665  1
  O  O398  1  0.38453225  0.99089731  1.01149000  1
  O  O399  1  0.86850477  0.48905037  0.49870225  1
  O  O400  1  0.88242260  0.49050078  0.99727869  1
  O  O401  1  0.88583820  0.99369733  0.49618439  1
  O  O402  1  0.88097363  0.99417048  0.99626056  1
  O  O403  1  0.11968047  0.00392178  0.00581465  1
  O  O404  1  0.11312122  -0.00926271  0.49854337  1
  O  O405  1  0.10880118  0.49759649  -0.00895191  1
  O  O406  1  0.12697876  0.47388224  0.50493287  1
  O  O407  1  0.61507119  -0.00040127  0.00967260  1
  O  O408  1  0.61448756  0.00530542  0.49937277  1
  O  O409  1  0.62377009  0.50990506  0.00691283  1
  O  O410  1  0.63629052  0.50243017  0.50286107  1
  O  O411  1  0.36938892  0.36798740  0.12245617  1
  O  O412  1  0.35909904  0.40133271  0.60800375  1
  O  O413  1  0.38139020  0.86493578  0.11525172  1
  O  O414  1  0.36352346  0.87197992  0.62255354  1
  O  O415  1  0.86933368  0.36987762  0.11551683  1
  O  O416  1  0.87057045  0.36951877  0.61406306  1
  O  O417  1  0.87072998  0.87127926  0.11943775  1
  O  O418  1  0.88624904  0.86730064  0.61380800  1
  O  O419  1  0.12835744  0.12275069  0.39185386  1
  O  O420  1  0.13381283  0.13491247  0.87807036  1
  O  O421  1  0.13837869  0.63296315  0.36874337  1
  O  O422  1  0.13078047  0.63426942  0.87898519  1
  O  O423  1  0.63526684  0.11764198  0.38190103  1
  O  O424  1  0.63559528  0.12758513  0.87909112  1
  O  O425  1  0.63732109  0.63988031  0.36736247  1
  O  O426  1  0.63670319  0.62768902  0.89140664  1
