# generated using pymatgen
data_V85Zn86O256
_symmetry_space_group_name_H-M   'P 1'
_cell_length_a   17.00734125
_cell_length_b   17.00959428
_cell_length_c   16.99609260
_cell_angle_alpha   90.08683295
_cell_angle_beta   90.19442074
_cell_angle_gamma   90.05446177
_symmetry_Int_Tables_number   1
_chemical_formula_structural   V85Zn86O256
_chemical_formula_sum   'V85 Zn86 O256'
_cell_volume   4916.72900367
_cell_formula_units_Z   1
loop_
 _symmetry_equiv_pos_site_id
 _symmetry_equiv_pos_as_xyz
  1  'x, y, z'
loop_
 _atom_site_type_symbol
 _atom_site_label
 _atom_site_symmetry_multiplicity
 _atom_site_fract_x
 _atom_site_fract_y
 _atom_site_fract_z
 _atom_site_occupancy
  V  V0  1  0.12156825  -0.00060173  0.62188354  1
  V  V1  1  0.75211240  0.12116316  0.36027509  1
  V  V2  1  0.74341836  0.37519683  0.61974978  1
  V  V3  1  0.48581681  0.24695972  0.75383031  1
  V  V4  1  0.86916647  0.12305885  0.75073033  1
  V  V5  1  0.50261460  0.49861869  0.00400340  1
  V  V6  1  0.36897176  0.24203634  0.62857265  1
  V  V7  1  0.13205652  0.88188194  0.75060115  1
  V  V8  1  0.25144962  0.62482520  0.87189923  1
  V  V9  1  0.61932142  0.37448326  0.74635070  1
  V  V10  1  0.12158335  0.24995705  0.37147211  1
  V  V11  1  0.87733414  0.50722859  0.36210316  1
  V  V12  1  0.75097403  0.62943084  0.37176370  1
  V  V13  1  0.87020471  0.36573479  -0.00109275  1
  V  V14  1  0.87616853  0.74852216  0.61818421  1
  V  V15  1  0.12624014  0.74958124  0.87530583  1
  V  V16  1  0.25475205  0.50058096  0.25547668  1
  V  V17  1  0.87394836  0.00274144  0.87641407  1
  V  V18  1  0.49141033  0.74031927  0.75083029  1
  V  V19  1  0.12185385  0.62279503  0.00120609  1
  V  V20  1  0.13051472  0.75034651  0.37878570  1
  V  V21  1  0.74602192  0.74969388  0.49309172  1
  V  V22  1  0.50181682  0.12601209  0.11721352  1
  V  V23  1  0.24749034  0.25707763  0.50404509  1
  V  V24  1  0.38326974  0.87848775  0.50209238  1
  V  V25  1  0.00149668  0.87912011  0.38332122  1
  V  V26  1  0.38058975  0.37982225  0.50554683  1
  V  V27  1  0.36560588  -0.00141016  0.86513954  1
  V  V28  1  0.62305831  0.74924558  0.88004419  1
  V  V29  1  0.00161473  0.87597418  0.87853032  1
  V  V30  1  0.13419055  0.62938964  0.50175583  1
  V  V31  1  0.87588694  0.49780456  0.87486265  1
  V  V32  1  0.87940725  0.89007455  0.50256366  1
  V  V33  1  0.74133948  0.35903181  0.12317690  1
  V  V34  1  0.00026670  0.74952315  0.75037383  1
  V  V35  1  0.73408737  0.24212018  -0.02547215  1
  V  V36  1  0.12603759  0.49719252  0.62530608  1
  V  V37  1  0.50252265  0.37547385  0.87361169  1
  V  V38  1  0.86941708  0.24721746  0.61910730  1
  V  V39  1  0.12346970  0.24763898  0.87186144  1
  V  V40  1  0.49684507  0.87157223  0.87747380  1
  V  V41  1  0.38725956  0.00172863  0.38309881  1
  V  V42  1  0.11676924  0.12021564  0.49965234  1
  V  V43  1  0.24767904  0.49657770  0.74878799  1
  V  V44  1  0.37698704  0.62717761  0.25299412  1
  V  V45  1  0.49908358  0.62332863  0.12695793  1
  V  V46  1  0.74847801  0.87266682  0.62659631  1
  V  V47  1  0.12040237  0.50011777  0.12443371  1
  V  V48  1  0.74387388  0.49854847  0.74211291  1
  V  V49  1  0.73803753  0.25339419  0.48633171  1
  V  V50  1  0.37050399  0.74465721  0.62095193  1
  V  V51  1  0.24990943  0.11898984  0.85941917  1
  V  V52  1  0.12426173  0.12374831  -0.00020154  1
  V  V53  1  0.50715849  0.25306158  0.25573672  1
  V  V54  1  0.24842891  0.87356070  0.61911375  1
  V  V55  1  0.63065418  -0.00159046  0.12259038  1
  V  V56  1  0.11983630  0.86835191  0.25199066  1
  V  V57  1  0.12363222  0.37303364  0.74443999  1
  V  V58  1  0.50386974  0.00322285  -0.00370498  1
  V  V59  1  0.37527581  0.12536691  0.25163724  1
  V  V60  1  0.24874492  0.24873584  -0.00092622  1
  V  V61  1  -0.00457294  0.13959877  0.13841301  1
  V  V62  1  0.74818483  0.50972080  0.23574276  1
  V  V63  1  0.62537586  0.86830735  0.74838222  1
  V  V64  1  0.87421623  0.62412221  0.74931811  1
  V  V65  1  0.37592527  0.87481637  0.00326765  1
  V  V66  1  0.00020874  0.37467112  0.37125371  1
  V  V67  1  0.88020874  0.74573522  0.13648950  1
  V  V68  1  0.86247316  0.87173527  0.00348468  1
  V  V69  1  0.00098091  0.62332702  0.62482883  1
  V  V70  1  0.12322387  -0.00009414  0.12637917  1
  V  V71  1  0.37356736  0.50433881  0.87032976  1
  V  V72  1  0.37316679  0.24894786  0.12475748  1
  V  V73  1  0.50468783  0.61680361  0.62187512  1
  V  V74  1  0.25412893  -0.00046204  0.25262083  1
  V  V75  1  0.12720945  0.37316695  0.25061567  1
  V  V76  1  -0.00331483  0.24713810  0.74611321  1
  V  V77  1  -0.00051689  0.50241667  0.49859972  1
  V  V78  1  0.37363499  0.37448445  -0.00064624  1
  V  V79  1  0.62534783  0.61880341  0.00587750  1
  V  V80  1  0.25037249  0.12489219  0.37723248  1
  V  V81  1  0.74786280  0.62355008  0.87481835  1
  V  V82  1  0.24968142  0.37432750  0.12456616  1
  V  V83  1  0.75072809  -0.00878948  0.75663223  1
  V  V84  1  0.25171739  0.87271013  0.12690609  1
  Zn  Zn85  1  0.00041489  0.62838577  0.14286608  1
  Zn  Zn86  1  0.62738341  0.62183056  0.49565334  1
  Zn  Zn87  1  0.25095129  0.74820394  0.00121270  1
  Zn  Zn88  1  -0.01451917  0.11118466  0.61335623  1
  Zn  Zn89  1  0.63097391  0.87205943  0.26120724  1
  Zn  Zn90  1  -0.00426169  0.49632365  0.00264869  1
  Zn  Zn91  1  0.51865375  0.74672136  0.26497127  1
  Zn  Zn92  1  -0.00284463  0.00256032  0.00267808  1
  Zn  Zn93  1  0.38584398  0.49825252  0.38035622  1
  Zn  Zn94  1  0.51198142  0.09613162  0.61560157  1
  Zn  Zn95  1  0.37494721  0.75144878  0.13025907  1
  Zn  Zn96  1  0.87433198  0.37833351  0.49873686  1
  Zn  Zn97  1  0.76513925  -0.00862321  0.23285949  1
  Zn  Zn98  1  0.51181562  0.86584460  0.38124978  1
  Zn  Zn99  1  0.88837621  0.01521504  0.35719213  1
  Zn  Zn100  1  0.52718411  0.48692222  0.50662279  1
  Zn  Zn101  1  0.51309647  0.37233996  0.38411225  1
  Zn  Zn102  1  0.62552711  0.37899550  0.25164265  1
  Zn  Zn103  1  0.74740611  0.75131617  0.00437946  1
  Zn  Zn104  1  -0.00137852  0.37221963  0.87621080  1
  Zn  Zn105  1  0.25732449  0.63234209  0.38353602  1
  Zn  Zn106  1  0.61748254  0.10564790  0.49127715  1
  Zn  Zn107  1  0.18657724  0.18614710  0.18829063  1
  Zn  Zn108  1  0.18376099  0.18661735  0.68222680  1
  Zn  Zn109  1  0.18820486  0.68639967  0.19090646  1
  Zn  Zn110  1  0.18807655  0.68816615  0.68927988  1
  Zn  Zn111  1  0.68560211  0.18366261  0.18142012  1
  Zn  Zn112  1  0.65642130  0.16098048  0.74346074  1
  Zn  Zn113  1  0.69888042  0.69271748  0.18708073  1
  Zn  Zn114  1  0.68571335  0.68733511  0.68706621  1
  Zn  Zn115  1  0.31603131  0.31254140  0.31724563  1
  Zn  Zn116  1  0.30738995  0.31465644  0.81638373  1
  Zn  Zn117  1  0.31642036  0.81373000  0.31791256  1
  Zn  Zn118  1  0.31170112  0.81250992  0.81113261  1
  Zn  Zn119  1  0.81408486  0.30862190  0.30942522  1
  Zn  Zn120  1  0.81012292  0.31223331  0.80839805  1
  Zn  Zn121  1  0.81016650  0.82612063  0.31414522  1
  Zn  Zn122  1  0.81406081  0.80797795  0.81779777  1
  Zn  Zn123  1  0.18877279  0.43854346  0.43922615  1
  Zn  Zn124  1  0.18545214  0.43543256  0.93527540  1
  Zn  Zn125  1  0.19270761  0.93794501  0.43922443  1
  Zn  Zn126  1  0.18805943  0.93812568  0.94035706  1
  Zn  Zn127  1  0.68517567  0.44140100  0.43051400  1
  Zn  Zn128  1  0.68794319  0.43557363  0.93504439  1
  Zn  Zn129  1  0.68755767  0.94862793  0.43781426  1
  Zn  Zn130  1  0.67825258  1.07212224  0.92281489  1
  Zn  Zn131  1  0.31311350  0.06123678  0.05942677  1
  Zn  Zn132  1  0.30502714  0.06096078  0.56546230  1
  Zn  Zn133  1  0.31177544  0.56064122  0.06276936  1
  Zn  Zn134  1  0.31533734  0.56200896  0.57050689  1
  Zn  Zn135  1  0.81558554  0.07128872  0.05809189  1
  Zn  Zn136  1  0.77812614  0.05893298  0.55927996  1
  Zn  Zn137  1  0.81692581  0.56539311  0.06152660  1
  Zn  Zn138  1  0.81274123  0.56205553  0.55685098  1
  Zn  Zn139  1  0.43619422  0.43709456  0.18725687  1
  Zn  Zn140  1  0.42928369  0.43325026  0.68357835  1
  Zn  Zn141  1  0.44572687  0.93688529  0.19306972  1
  Zn  Zn142  1  0.43519909  0.93089076  0.68694790  1
  Zn  Zn143  1  0.91537694  0.38818153  0.20268073  1
  Zn  Zn144  1  0.93585613  0.43427791  0.68711819  1
  Zn  Zn145  1  0.93925400  0.93366439  0.18571426  1
  Zn  Zn146  1  0.93975681  0.93562670  0.68846891  1
  Zn  Zn147  1  0.06390177  0.05919410  0.31157623  1
  Zn  Zn148  1  0.05812049  0.06307983  0.80865458  1
  Zn  Zn149  1  0.07153898  0.55943669  0.31525432  1
  Zn  Zn150  1  0.06161651  0.56174738  0.81381595  1
  Zn  Zn151  1  0.56924567  0.06667614  0.30812874  1
  Zn  Zn152  1  0.54125058  0.04603784  0.78864164  1
  Zn  Zn153  1  0.56681470  0.55644245  0.31782373  1
  Zn  Zn154  1  0.56173574  0.56131959  0.81162973  1
  Zn  Zn155  1  0.44025409  0.18702388  0.44276398  1
  Zn  Zn156  1  0.43142369  0.18448528  0.93215017  1
  Zn  Zn157  1  0.43822914  0.68802575  0.43967601  1
  Zn  Zn158  1  0.43603669  0.68726720  0.94294209  1
  Zn  Zn159  1  0.93319099  0.19140103  0.43375472  1
  Zn  Zn160  1  0.93671538  0.18837960  0.93907361  1
  Zn  Zn161  1  0.94556301  0.69304055  0.31510665  1
  Zn  Zn162  1  0.93896063  0.68690896  0.93943191  1
  Zn  Zn163  1  0.06101463  0.31405101  0.05972952  1
  Zn  Zn164  1  0.05829633  0.30999182  0.56110214  1
  Zn  Zn165  1  0.06185524  0.80927584  0.06307661  1
  Zn  Zn166  1  0.06116194  0.81054906  0.56098935  1
  Zn  Zn167  1  0.56342976  0.30930275  0.06069416  1
  Zn  Zn168  1  0.58447660  0.25172201  0.59327011  1
  Zn  Zn169  1  0.58331057  0.79585024  0.09526698  1
  Zn  Zn170  1  0.56156027  0.80638324  0.56190358  1
  O  O171  1  0.12186027  0.11740469  0.11885451  1
  O  O172  1  0.12203052  0.11569469  0.61635526  1
  O  O173  1  0.12977427  0.61742348  0.11604201  1
  O  O174  1  0.12035009  0.61951893  0.62145368  1
  O  O175  1  0.60688894  0.12090947  0.12187229  1
  O  O176  1  0.61600323  0.15129207  0.63780611  1
  O  O177  1  0.61682859  0.62586000  0.11080129  1
  O  O178  1  0.60768643  0.63061518  0.62597931  1
  O  O179  1  0.37946732  0.37313446  0.39079803  1
  O  O180  1  0.37853063  0.38686901  0.88114416  1
  O  O181  1  0.37605705  0.88554004  0.38693474  1
  O  O182  1  0.37509023  0.87762278  0.88566675  1
  O  O183  1  0.88799938  0.38678030  0.37773379  1
  O  O184  1  0.87192384  0.38337911  0.87871330  1
  O  O185  1  0.88640311  0.87646156  0.38807082  1
  O  O186  1  0.88336582  0.88040713  0.88204542  1
  O  O187  1  0.25868566  0.00645002  0.37064182  1
  O  O188  1  0.25384097  0.00864120  0.88246117  1
  O  O189  1  0.25058140  0.49959651  0.36157640  1
  O  O190  1  0.25474070  0.50575324  0.87009852  1
  O  O191  1  0.76077085  0.01625220  0.36780701  1
  O  O192  1  0.76481818  -0.00266793  0.86786071  1
  O  O193  1  0.76250362  0.50947780  0.36541166  1
  O  O194  1  0.75688699  0.50281273  0.86377863  1
  O  O195  1  0.24433893  0.49321536  0.13260193  1
  O  O196  1  0.24281380  0.50669858  0.64226282  1
  O  O197  1  0.24258603  0.99227292  0.12987938  1
  O  O198  1  0.23554272  0.98764619  0.62503903  1
  O  O199  1  0.75443318  0.50102529  0.13410022  1
  O  O200  1  0.76019673  0.49040461  0.63481460  1
  O  O201  1  0.73240883  1.02114791  0.11810990  1
  O  O202  1  0.76300888  0.97905310  0.64717262  1
  O  O203  1  0.01470619  0.38826732  0.26473232  1
  O  O204  1  0.00676173  0.36727961  0.75255747  1
  O  O205  1  0.01662500  0.87934557  0.25739888  1
  O  O206  1  0.00712631  0.86930859  0.76127630  1
  O  O207  1  0.49977465  0.35995635  0.24244326  1
  O  O208  1  0.50173848  0.38013555  0.75736257  1
  O  O209  1  0.50706512  0.86867909  0.25605140  1
  O  O210  1  0.50831925  0.85897853  0.75689458  1
  O  O211  1  0.49383745  0.13583436  0.23965559  1
  O  O212  1  0.48080572  0.15082204  0.76234278  1
  O  O213  1  0.49465284  0.61979210  0.24167639  1
  O  O214  1  0.50223688  0.63285680  0.74206542  1
  O  O215  1  1.00911664  0.12354915  0.23708683  1
  O  O216  1  0.98603607  0.12797802  0.74161912  1
  O  O217  1  1.01051110  0.62668074  0.25380978  1
  O  O218  1  0.99518092  0.62908958  0.74472609  1
  O  O219  1  0.36761964  0.25523939  0.00437723  1
  O  O220  1  0.36709121  0.25696491  0.51065507  1
  O  O221  1  0.37171233  0.76306731  0.00290057  1
  O  O222  1  0.37680251  0.76086851  0.51355917  1
  O  O223  1  0.85826058  0.25957050  -0.01477593  1
  O  O224  1  0.87121806  0.25729347  0.50784563  1
  O  O225  1  0.87381531  0.76340365  -0.00618625  1
  O  O226  1  0.86861561  0.75749501  0.51582823  1
  O  O227  1  0.13067288  0.24427901  0.49410064  1
  O  O228  1  0.12977597  0.24292103  0.99245978  1
  O  O229  1  0.12075388  0.73837071  0.49458343  1
  O  O230  1  0.12854818  0.74047650  0.99408950  1
  O  O231  1  0.63903242  0.26238596  0.49361638  1
  O  O232  1  0.63573225  0.25121132  0.99391416  1
  O  O233  1  0.64313896  0.74581631  0.50555074  1
  O  O234  1  0.62501873  0.73858425  0.99517136  1
  O  O235  1  0.49145125  0.24313489  0.12623610  1
  O  O236  1  0.47941269  0.25849629  0.64248087  1
  O  O237  1  0.49029842  0.72889460  0.11652427  1
  O  O238  1  0.49103507  0.74199017  0.63340112  1
  O  O239  1  1.01127720  0.23834954  0.12535920  1
  O  O240  1  0.98513311  0.24904631  0.62839455  1
  O  O241  1  0.98737157  0.74835223  0.11996018  1
  O  O242  1  0.99326231  0.74406992  0.63083426  1
  O  O243  1  0.01227625  0.26270763  0.38401823  1
  O  O244  1  0.00606825  0.24749642  0.86470521  1
  O  O245  1  0.01738634  0.76738543  0.37122430  1
  O  O246  1  0.00601255  0.75682580  0.87007923  1
  O  O247  1  0.49370219  0.24909194  0.35720964  1
  O  O248  1  0.47754138  0.26801595  0.86510437  1
  O  O249  1  0.50307418  0.75040225  0.37650429  1
  O  O250  1  0.50305396  0.74875996  0.87047361  1
  O  O251  1  0.23944289  0.13526710  0.49588045  1
  O  O252  1  0.23781625  0.12976175  0.99843116  1
  O  O253  1  0.23768531  0.61596957  0.50287784  1
  O  O254  1  0.24102199  0.62351223  0.99024562  1
  O  O255  1  0.75012157  0.14941295  0.49192963  1
  O  O256  1  0.74988799  0.13727235  0.98828580  1
  O  O257  1  0.75591521  0.63474214  0.48977911  1
  O  O258  1  0.73902017  0.62032264  0.99233398  1
  O  O259  1  0.25360965  0.36860772  0.00330382  1
  O  O260  1  0.25477200  0.36143892  0.49455327  1
  O  O261  1  0.25687772  0.87560166  0.01125806  1
  O  O262  1  0.25832030  0.87450496  0.51323526  1
  O  O263  1  0.74941301  0.36374607  0.00197396  1
  O  O264  1  0.75395618  0.37105531  0.50469405  1
  O  O265  1  0.76507211  0.87444834  -0.00142625  1
  O  O266  1  0.76119867  0.86537430  0.51102269  1
  O  O267  1  0.13814222  0.49389905  0.24245382  1
  O  O268  1  0.12750876  0.49190964  0.74681731  1
  O  O269  1  0.13488103  0.99085937  0.24303906  1
  O  O270  1  0.11889999  0.98792370  0.74241703  1
  O  O271  1  0.64559598  0.49907892  0.25056952  1
  O  O272  1  0.63527360  0.49108890  0.75363033  1
  O  O273  1  0.62228478  1.00250380  0.22720042  1
  O  O274  1  0.64133494  0.97228359  0.76378376  1
  O  O275  1  0.37210028  0.00595026  0.25968722  1
  O  O276  1  0.36676192  -0.01748538  0.76788355  1
  O  O277  1  0.36884852  0.50687328  0.25084953  1
  O  O278  1  0.36235762  0.49176664  0.76216710  1
  O  O279  1  0.87619330  -0.00078280  0.24531990  1
  O  O280  1  0.87241602  0.00145091  0.75868990  1
  O  O281  1  0.86224483  0.48614577  0.25637113  1
  O  O282  1  0.86628000  0.50347369  0.75639877  1
  O  O283  1  0.12094786  0.36810864  0.37208460  1
  O  O284  1  0.12132244  0.36672204  0.86563381  1
  O  O285  1  0.12420935  0.87132871  0.37177263  1
  O  O286  1  0.12113627  0.87167284  0.86930620  1
  O  O287  1  0.62490787  0.37388652  0.36497138  1
  O  O288  1  0.60903718  0.38221023  0.86596796  1
  O  O289  1  0.62222395  0.88892125  0.37539436  1
  O  O290  1  0.61576823  0.85556494  0.86925852  1
  O  O291  1  0.37968443  0.12827409  0.13081266  1
  O  O292  1  0.37332956  0.14059335  0.62011163  1
  O  O293  1  0.38067701  0.62228728  0.13413248  1
  O  O294  1  0.38508304  0.63641787  0.62224295  1
  O  O295  1  0.89967404  0.12117497  0.11361160  1
  O  O296  1  0.86843652  0.13235392  0.62998955  1
  O  O297  1  0.88471204  0.64009630  0.11497513  1
  O  O298  1  0.88018610  0.63063587  0.62942995  1
  O  O299  1  0.25318386  0.25466442  0.11973039  1
  O  O300  1  0.25772177  0.24664688  0.61727635  1
  O  O301  1  0.25140813  0.76239562  0.12470070  1
  O  O302  1  0.26023002  0.75822678  0.63413115  1
  O  O303  1  0.74633565  0.25779452  0.11512496  1
  O  O304  1  0.75782906  0.26194178  0.60984261  1
  O  O305  1  0.77381756  0.74538597  0.11709107  1
  O  O306  1  0.75921711  0.75423216  0.62205709  1
  O  O307  1  0.24153739  0.24442433  0.38387252  1
  O  O308  1  0.24435506  0.23948857  0.87983942  1
  O  O309  1  0.23694993  0.75171028  0.37555676  1
  O  O310  1  0.24517419  0.74009110  0.87459214  1
  O  O311  1  0.75485481  0.24878211  0.38206167  1
  O  O312  1  0.73892896  0.25285339  0.87456974  1
  O  O313  1  0.76581409  0.74201954  0.38439277  1
  O  O314  1  0.73917863  0.74155479  0.87729084  1
  O  O315  1  0.01475804  0.12477171  0.00415608  1
  O  O316  1  0.01297474  0.13172995  0.49850646  1
  O  O317  1  0.01495438  0.61924348  -0.00314135  1
  O  O318  1  0.01469632  0.61008033  0.50771020  1
  O  O319  1  0.48419801  0.11574281  0.00730070  1
  O  O320  1  0.51307225  0.14075671  0.51266930  1
  O  O321  1  0.50443590  0.61476554  0.00462963  1
  O  O322  1  0.50224267  0.62447213  0.51521084  1
  O  O323  1  0.48407443  0.37508287  0.50517652  1
  O  O324  1  0.49544219  0.38105720  0.99309136  1
  O  O325  1  0.48707083  0.87588097  0.50733436  1
  O  O326  1  0.48905940  0.88475757  0.99556189  1
  O  O327  1  1.00386161  0.38799039  0.49170489  1
  O  O328  1  0.98650074  0.37544557  0.99654167  1
  O  O329  1  0.99164517  0.87244719  0.49518117  1
  O  O330  1  1.00219773  0.87697938  0.98589428  1
  O  O331  1  0.50129620  0.49415177  0.38639396  1
  O  O332  1  0.49036502  0.49564053  0.88105313  1
  O  O333  1  0.48700306  1.00957182  0.37230856  1
  O  O334  1  0.48617009  0.99092109  0.88022339  1
  O  O335  1  0.99818174  0.49493124  0.38219810  1
  O  O336  1  0.98598644  0.49804356  0.87435322  1
  O  O337  1  1.00339910  0.98566188  0.37424064  1
  O  O338  1  0.99229400  0.99113110  0.87543143  1
  O  O339  1  0.01614602  0.00311125  0.12310031  1
  O  O340  1  0.01433390  -0.00363738  0.62548033  1
  O  O341  1  0.01779815  0.50105178  0.12385015  1
  O  O342  1  0.00392588  0.50267357  0.61875395  1
  O  O343  1  0.50351828  0.00824524  0.11509669  1
  O  O344  1  0.50891400  0.01095588  0.68302714  1
  O  O345  1  0.49367972  0.50680931  0.11181718  1
  O  O346  1  0.49065211  0.51424189  0.62680546  1
  O  O347  1  0.24825508  0.38099117  0.24489489  1
  O  O348  1  0.23471713  0.38560305  0.75897227  1
  O  O349  1  0.24693171  0.88027556  0.24259148  1
  O  O350  1  0.23692418  0.86972268  0.74199614  1
  O  O351  1  0.74886264  0.37954699  0.23047029  1
  O  O352  1  0.73968222  0.38003652  0.74259331  1
  O  O353  1  0.74298951  0.88134265  0.24732523  1
  O  O354  1  0.74672885  0.87003940  0.74638598  1
  O  O355  1  0.25544756  0.11974361  0.25609633  1
  O  O356  1  0.24155209  0.12643344  0.76089600  1
  O  O357  1  0.25961641  0.61507883  0.25017221  1
  O  O358  1  0.24006514  0.61343736  0.76472903  1
  O  O359  1  0.74872753  0.13005330  0.25849813  1
  O  O360  1  0.76381961  0.10798678  0.74715262  1
  O  O361  1  0.75339927  0.61508524  0.25181074  1
  O  O362  1  0.75315845  0.61632821  0.75286599  1
  O  O363  1  0.36906080  0.12073071  0.37362581  1
  O  O364  1  0.36019603  0.11182095  0.88036492  1
  O  O365  1  0.37287964  0.61895304  0.36799331  1
  O  O366  1  0.36472134  0.61430859  0.88364485  1
  O  O367  1  0.86086372  0.12738089  0.37908768  1
  O  O368  1  0.88428421  0.11224563  0.86569654  1
  O  O369  1  0.87025567  0.61482874  0.36627542  1
  O  O370  1  0.86944261  0.61747160  0.86981034  1
  O  O371  1  0.13106860  0.38109806  0.12880687  1
  O  O372  1  0.11848694  0.37915729  0.63685134  1
  O  O373  1  0.13205292  0.88005932  0.13115605  1
  O  O374  1  0.12978777  0.87756244  0.63018829  1
  O  O375  1  0.63839143  0.37530291  0.12166785  1
  O  O376  1  0.63496981  0.36374071  0.63568499  1
  O  O377  1  0.62407335  0.90041578  0.10564102  1
  O  O378  1  0.63747940  0.85895320  0.63744815  1
  O  O379  1  0.13494063  0.25632342  0.26477668  1
  O  O380  1  0.11866508  0.25555605  0.75078562  1
  O  O381  1  0.13337368  0.76193500  0.25844857  1
  O  O382  1  0.11857871  0.75846939  0.75553182  1
  O  O383  1  0.60756891  0.24816911  0.24091817  1
  O  O384  1  0.59708275  0.26664496  0.75391528  1
  O  O385  1  0.61766134  0.76497401  0.20674625  1
  O  O386  1  0.61734666  0.75029907  0.76057382  1
  O  O387  1  0.38019522  0.24468739  0.24278416  1
  O  O388  1  0.37304437  0.26463866  0.73717980  1
  O  O389  1  0.37284133  0.73452290  0.25080846  1
  O  O390  1  0.38521276  0.75691650  0.74122393  1
  O  O391  1  0.89104584  0.28430819  0.23760077  1
  O  O392  1  0.87423671  0.24046423  0.74250182  1
  O  O393  1  0.87728645  0.75565303  0.23958492  1
  O  O394  1  0.87987009  0.74380396  0.74279118  1
  O  O395  1  0.36428386  0.48386261  0.50239619  1
  O  O396  1  0.38224468  0.49456312  0.99174927  1
  O  O397  1  0.36853522  0.99295264  0.49428166  1
  O  O398  1  0.37911415  0.98924105  0.99504411  1
  O  O399  1  0.88665677  0.50092096  0.48990668  1
  O  O400  1  0.87169598  0.49210921  0.98727686  1
  O  O401  1  0.86661335  0.98875868  0.50976641  1
  O  O402  1  0.87786979  0.98872182  0.99313348  1
  O  O403  1  0.12542522  0.00756581  0.00995033  1
  O  O404  1  0.13172513  0.01107553  0.50648654  1
  O  O405  1  0.12666657  0.50512236  0.00716459  1
  O  O406  1  0.12056606  0.50431846  0.50618132  1
  O  O407  1  0.60797433  0.01265735  -0.00026186  1
  O  O408  1  0.67442850  0.01533192  0.52481149  1
  O  O409  1  0.61232335  0.50727645  -0.01149286  1
  O  O410  1  0.63713691  0.50850619  0.50629645  1
  O  O411  1  0.36846722  0.36998460  0.11761762  1
  O  O412  1  0.36853392  0.36592746  0.61177565  1
  O  O413  1  0.36722642  0.87796430  0.12053602  1
  O  O414  1  0.36666067  0.86978222  0.62028946  1
  O  O415  1  0.85479329  0.38333354  0.10436010  1
  O  O416  1  0.86343913  0.36581779  0.62696668  1
  O  O417  1  0.88620065  0.86427962  0.10757583  1
  O  O418  1  0.87087379  0.86555975  0.62361458  1
  O  O419  1  0.12899734  0.13172994  0.38050534  1
  O  O420  1  0.12949210  0.12606607  0.88120298  1
  O  O421  1  0.13093934  0.63292486  0.38555542  1
  O  O422  1  0.13171805  0.62774975  0.88214303  1
  O  O423  1  0.64397994  0.11984972  0.37665436  1
  O  O424  1  0.61836762  0.11294841  0.83957126  1
  O  O425  1  0.64714717  0.62474670  0.37110701  1
  O  O426  1  0.62580154  0.63197946  0.88219773  1
