# generated using pymatgen
data_V85Zn86O256
_symmetry_space_group_name_H-M   'P 1'
_cell_length_a   16.97743835
_cell_length_b   16.97105221
_cell_length_c   16.97571729
_cell_angle_alpha   90.02067932
_cell_angle_beta   90.00031616
_cell_angle_gamma   90.05153900
_symmetry_Int_Tables_number   1
_chemical_formula_structural   V85Zn86O256
_chemical_formula_sum   'V85 Zn86 O256'
_cell_volume   4891.12612412
_cell_formula_units_Z   1
loop_
 _symmetry_equiv_pos_site_id
 _symmetry_equiv_pos_as_xyz
  1  'x, y, z'
loop_
 _atom_site_type_symbol
 _atom_site_label
 _atom_site_symmetry_multiplicity
 _atom_site_fract_x
 _atom_site_fract_y
 _atom_site_fract_z
 _atom_site_occupancy
  V  V0  1  0.88416391  0.13089410  0.74890563  1
  V  V1  1  0.00302792  0.61890807  0.62388566  1
  V  V2  1  0.38165563  0.88014859  0.00017601  1
  V  V3  1  -0.00973914  0.87849529  0.38082952  1
  V  V4  1  0.49892651  0.74794136  0.75122641  1
  V  V5  1  0.13039003  0.39496707  0.75099277  1
  V  V6  1  0.62520891  0.13134165  0.49066412  1
  V  V7  1  0.37381662  0.25528509  0.61585382  1
  V  V8  1  0.87453111  0.87557261  0.00003784  1
  V  V9  1  0.87326040  0.75076422  0.12632132  1
  V  V10  1  0.87615663  0.00053104  0.87428184  1
  V  V11  1  0.75184185  0.12457303  0.87463107  1
  V  V12  1  0.11738582  0.49950009  0.12161709  1
  V  V13  1  0.61274507  0.00447466  0.12318945  1
  V  V14  1  0.12358375  0.12065508  0.00331994  1
  V  V15  1  0.12313859  0.24753124  0.86531060  1
  V  V16  1  0.11720334  0.37864336  0.26285903  1
  V  V17  1  0.87382262  0.62538831  0.24929022  1
  V  V18  1  0.37776218  0.74748729  0.13299557  1
  V  V19  1  0.49389245  0.37378439  0.87916450  1
  V  V20  1  0.00200134  -0.00040973  0.00272350  1
  V  V21  1  0.22080406  0.24355276  0.50332580  1
  V  V22  1  0.74899515  0.37638433  0.61766804  1
  V  V23  1  0.25242270  0.87292239  0.62280443  1
  V  V24  1  0.25442077  0.50027348  0.25168302  1
  V  V25  1  0.61684890  0.74923901  0.37225188  1
  V  V26  1  0.50147360  0.37136534  0.37739690  1
  V  V27  1  0.25176777  0.39219431  0.62869342  1
  V  V28  1  0.25024792  0.37323916  0.11481669  1
  V  V29  1  -0.00003192  0.75107877  0.74876451  1
  V  V30  1  0.62485480  0.49805253  0.12365269  1
  V  V31  1  0.49699556  0.62291677  0.13259074  1
  V  V32  1  0.12511760  0.75085765  0.37710845  1
  V  V33  1  0.74840359  0.74996701  0.00010612  1
  V  V34  1  0.25031848  0.62084316  0.86868748  1
  V  V35  1  0.87744605  0.24959341  0.62078781  1
  V  V36  1  0.37644560  0.87329644  0.49634785  1
  V  V37  1  0.12446241  0.75013867  0.87486879  1
  V  V38  1  0.61821037  0.00884428  0.62265447  1
  V  V39  1  0.87890978  0.49349369  0.37375519  1
  V  V40  1  0.12064365  0.62201745  -0.00004372  1
  V  V41  1  0.37463525  0.01688193  0.37214608  1
  V  V42  1  0.00341216  0.12324428  0.12620752  1
  V  V43  1  0.12885450  0.00492911  0.61495768  1
  V  V44  1  0.62373073  0.36852138  0.24950479  1
  V  V45  1  0.75068471  0.37433872  0.12227114  1
  V  V46  1  0.24993579  0.74889269  0.00146621  1
  V  V47  1  0.62756479  0.38085472  0.74929981  1
  V  V48  1  0.00095211  0.87415344  0.87499285  1
  V  V49  1  0.62453139  0.24761656  0.87489404  1
  V  V50  1  0.49671094  0.49658790  0.50261287  1
  V  V51  1  0.00776213  0.24933829  0.25958517  1
  V  V52  1  0.61462451  0.11850993  -0.00030715  1
  V  V53  1  0.62427089  0.87282751  0.74914035  1
  V  V54  1  0.88324840  0.37670550  -0.00156851  1
  V  V55  1  0.75338591  0.01260794  0.25695529  1
  V  V56  1  0.75433906  0.87497057  0.61984186  1
  V  V57  1  0.75358945  0.75216098  0.49784265  1
  V  V58  1  0.24555242  0.87751100  0.12631146  1
  V  V59  1  0.00000014  0.37085191  0.86870724  1
  V  V60  1  0.12513712  0.61968671  0.50135531  1
  V  V61  1  0.61759968  0.87234460  0.25048561  1
  V  V62  1  0.87936725  0.24492067  0.12744607  1
  V  V63  1  0.75192250  0.49989568  0.24869909  1
  V  V64  1  0.37148866  0.49919245  0.87108599  1
  V  V65  1  0.87597650  0.75207777  0.62099297  1
  V  V66  1  0.37815883  0.12591329  0.74179976  1
  V  V67  1  0.74952168  0.87786053  0.12646950  1
  V  V68  1  0.75135902  0.00056414  0.74920456  1
  V  V69  1  -0.00963574  0.00214316  0.50551019  1
  V  V70  1  0.75032104  0.62420455  0.87548821  1
  V  V71  1  0.49277602  0.49578593  0.00140264  1
  V  V72  1  0.12283026  0.87876233  0.24922139  1
  V  V73  1  0.87863986  0.49890460  0.87650233  1
  V  V74  1  0.25201193  -0.00148736  0.74978804  1
  V  V75  1  0.62417734  0.62439100  0.00024410  1
  V  V76  1  0.87478104  0.62442003  0.74978936  1
  V  V77  1  0.49941125  0.24758103  0.74430780  1
  V  V78  1  0.75065936  0.24772244  -0.00042882  1
  V  V79  1  0.25038039  0.12530814  0.87549978  1
  V  V80  1  0.62760200  0.61798038  0.50306254  1
  V  V81  1  -0.00185353  0.49519151  0.49562181  1
  V  V82  1  -0.00209961  0.62468415  0.12266134  1
  V  V83  1  0.24911843  0.00786515  0.25261536  1
  V  V84  1  0.50613340  0.61830540  0.62773480  1
  Zn  Zn85  1  0.37909422  0.62837787  0.25663630  1
  Zn  Zn86  1  0.37416767  0.49873890  0.38019146  1
  Zn  Zn87  1  0.50500782  0.87776377  0.88181860  1
  Zn  Zn88  1  0.12615018  0.87395722  0.74863812  1
  Zn  Zn89  1  0.75068029  0.62483653  0.37511862  1
  Zn  Zn90  1  0.25142967  0.62393442  0.37623445  1
  Zn  Zn91  1  0.43019616  0.20319160  0.19217802  1
  Zn  Zn92  1  0.25165156  0.74563144  0.50098355  1
  Zn  Zn93  1  -0.00352428  0.75408532  0.25206015  1
  Zn  Zn94  1  0.62397288  0.74929901  0.87641995  1
  Zn  Zn95  1  0.38368594  0.00685690  0.88479077  1
  Zn  Zn96  1  0.49583020  0.00158558  0.50114920  1
  Zn  Zn97  1  0.49522648  0.87309306  0.37067564  1
  Zn  Zn98  1  0.36956662  0.62251574  0.74574783  1
  Zn  Zn99  1  0.79583985  0.18054048  0.42871009  1
  Zn  Zn100  1  0.63485979  0.24818008  0.37179955  1
  Zn  Zn101  1  0.37713524  0.74808734  0.62369158  1
  Zn  Zn102  1  0.25260910  0.25086887  0.00463132  1
  Zn  Zn103  1  0.74656098  0.50237593  0.74618644  1
  Zn  Zn104  1  0.87405342  0.01834898  0.37193988  1
  Zn  Zn105  1  0.01808474  0.14303042  0.62693464  1
  Zn  Zn106  1  0.87559323  0.36412285  0.48901222  1
  Zn  Zn107  1  0.22618568  0.21753910  0.23024233  1
  Zn  Zn108  1  0.19398801  0.19072668  0.68560675  1
  Zn  Zn109  1  0.18641935  0.68957721  0.18953302  1
  Zn  Zn110  1  0.18487885  0.68747737  0.68639434  1
  Zn  Zn111  1  0.68423476  0.18625619  0.18430333  1
  Zn  Zn112  1  0.69334128  0.19161743  0.68598585  1
  Zn  Zn113  1  0.68575010  0.68700304  0.18776645  1
  Zn  Zn114  1  0.68794070  0.68757024  0.68681259  1
  Zn  Zn115  1  0.33042039  0.29515611  0.34273774  1
  Zn  Zn116  1  0.31108227  0.31188292  0.81036326  1
  Zn  Zn117  1  0.30906035  0.81521471  0.31402442  1
  Zn  Zn118  1  0.31336007  0.80900462  0.81360568  1
  Zn  Zn119  1  0.81544331  0.31064711  0.30591878  1
  Zn  Zn120  1  0.81130503  0.31070319  0.80867170  1
  Zn  Zn121  1  0.80668980  0.81638078  0.31131149  1
  Zn  Zn122  1  0.81212390  0.81144254  0.81112324  1
  Zn  Zn123  1  0.18856428  0.43224485  0.44085700  1
  Zn  Zn124  1  0.18508030  0.43898469  0.93679290  1
  Zn  Zn125  1  0.18910133  0.93946759  0.43441535  1
  Zn  Zn126  1  0.18982644  0.93795782  0.93794919  1
  Zn  Zn127  1  0.69093854  0.43524016  0.43412908  1
  Zn  Zn128  1  0.68787452  0.43679528  0.93630012  1
  Zn  Zn129  1  0.68633801  0.93808739  0.43560922  1
  Zn  Zn130  1  0.68786542  0.93814177  0.93767524  1
  Zn  Zn131  1  0.31089534  0.06440701  0.06660346  1
  Zn  Zn132  1  0.30927691  0.06665292  0.55675062  1
  Zn  Zn133  1  0.31034114  0.56013372  0.06270777  1
  Zn  Zn134  1  0.31709642  0.56547237  0.56222915  1
  Zn  Zn135  1  0.81006030  0.06139735  0.06533649  1
  Zn  Zn136  1  0.80945726  0.06371607  0.56523955  1
  Zn  Zn137  1  0.81283876  0.56099018  0.06050278  1
  Zn  Zn138  1  0.81417064  0.56088066  0.56210128  1
  Zn  Zn139  1  0.44832143  0.39313898  0.17265323  1
  Zn  Zn140  1  0.43825978  0.43690144  0.68910635  1
  Zn  Zn141  1  0.43361569  0.94173789  0.18893291  1
  Zn  Zn142  1  0.43775748  0.93636213  0.69063089  1
  Zn  Zn143  1  0.93784738  0.43609523  0.18643029  1
  Zn  Zn144  1  0.93700816  0.43590675  0.68888806  1
  Zn  Zn145  1  0.93548486  0.94080318  0.19000809  1
  Zn  Zn146  1  0.93837000  0.93845192  0.68795509  1
  Zn  Zn147  1  0.06845313  0.06761402  0.32225732  1
  Zn  Zn148  1  0.06469728  0.05869582  0.80971685  1
  Zn  Zn149  1  0.06061532  0.56542944  0.31196818  1
  Zn  Zn150  1  0.05690740  0.56343523  0.81622943  1
  Zn  Zn151  1  0.55333022  0.06963844  0.30733137  1
  Zn  Zn152  1  0.56093048  0.05981590  0.81349812  1
  Zn  Zn153  1  0.56635688  0.55665129  0.31618932  1
  Zn  Zn154  1  0.56118224  0.56186490  0.81599036  1
  Zn  Zn155  1  0.45106825  0.18545236  0.44332856  1
  Zn  Zn156  1  0.43551747  0.18695376  0.93661639  1
  Zn  Zn157  1  0.43613752  0.68313579  0.43906924  1
  Zn  Zn158  1  0.43646205  0.68854114  0.94011466  1
  Zn  Zn159  1  0.96460965  0.18421537  0.44244742  1
  Zn  Zn160  1  0.93945986  0.18934976  0.93740484  1
  Zn  Zn161  1  0.93787924  0.68558257  0.43503902  1
  Zn  Zn162  1  0.93614768  0.68861723  0.93822755  1
  Zn  Zn163  1  0.06774988  0.30689841  0.05890296  1
  Zn  Zn164  1  0.06113281  0.32279115  0.57444106  1
  Zn  Zn165  1  0.06179750  0.81078039  0.06305821  1
  Zn  Zn166  1  0.06381835  0.81503708  0.56120390  1
  Zn  Zn167  1  0.56037006  0.30287830  0.06323903  1
  Zn  Zn168  1  0.56571534  0.31327350  0.56373049  1
  Zn  Zn169  1  0.56203374  0.80952825  0.06875766  1
  Zn  Zn170  1  0.56243287  0.81069999  0.56176954  1
  O  O171  1  0.11453438  0.12982144  0.10711060  1
  O  O172  1  0.12765721  0.10984691  0.63839483  1
  O  O173  1  0.11700369  0.62171322  0.11897874  1
  O  O174  1  0.11330072  0.63119907  0.61498826  1
  O  O175  1  0.62798998  0.11220501  0.11518467  1
  O  O176  1  0.63185788  0.11125391  0.62464246  1
  O  O177  1  0.61639846  0.61864928  0.12047271  1
  O  O178  1  0.61737437  0.62948425  0.61568067  1
  O  O179  1  0.39716245  0.38064607  0.37490015  1
  O  O180  1  0.38547901  0.38070739  0.86987378  1
  O  O181  1  0.37504618  0.87743241  0.38436388  1
  O  O182  1  0.36959200  0.87111941  0.89478646  1
  O  O183  1  0.87500053  0.38932972  0.37292906  1
  O  O184  1  0.88128043  0.37780823  0.87765981  1
  O  O185  1  0.88859666  0.87875468  0.36784936  1
  O  O186  1  0.87999374  0.87982160  0.87988372  1
  O  O187  1  0.26089482  -0.00220861  0.36376415  1
  O  O188  1  0.25424704  0.00692277  0.86541075  1
  O  O189  1  0.24918181  0.49537158  0.36170520  1
  O  O190  1  0.25993244  0.50946636  0.88453871  1
  O  O191  1  0.75120536  -0.00477100  0.36155385  1
  O  O192  1  0.75701099  0.00427558  0.86925436  1
  O  O193  1  0.76034688  0.50266135  0.36741164  1
  O  O194  1  0.76070133  0.50509714  0.87294992  1
  O  O195  1  0.23448756  0.49893786  0.13116314  1
  O  O196  1  0.25886480  0.49106870  0.62891750  1
  O  O197  1  0.26059829  0.98623184  0.13831299  1
  O  O198  1  0.24653631  0.99382993  0.62964330  1
  O  O199  1  0.74555815  0.49396926  0.12723930  1
  O  O200  1  0.76329274  0.48235568  0.63123430  1
  O  O201  1  0.74425482  0.99535272  0.13554253  1
  O  O202  1  0.74252817  0.99072607  0.62975405  1
  O  O203  1  0.01112340  0.36599164  0.24044819  1
  O  O204  1  0.01547464  0.38074675  0.75858568  1
  O  O205  1  0.00853920  0.87845256  0.25735682  1
  O  O206  1  0.00132207  0.86910845  0.75712721  1
  O  O207  1  0.51383111  0.38959265  0.26800424  1
  O  O208  1  0.50761872  0.36802721  0.75968494  1
  O  O209  1  0.51341806  0.87873132  0.24822841  1
  O  O210  1  0.50982665  0.86251290  0.74452480  1
  O  O211  1  0.49360107  0.12143513  0.23253410  1
  O  O212  1  0.49031423  0.13763219  0.75671948  1
  O  O213  1  0.49863245  0.61025685  0.23552480  1
  O  O214  1  0.50517095  0.63236918  0.74368953  1
  O  O215  1  1.01128983  0.14121232  0.23820038  1
  O  O216  1  0.98789852  0.11395135  0.74273988  1
  O  O217  1  0.99355845  0.62998565  0.23877000  1
  O  O218  1  0.99587289  0.62999026  0.74239535  1
  O  O219  1  0.36597868  0.21710818  0.02450099  1
  O  O220  1  0.38649050  0.24951072  0.51648690  1
  O  O221  1  0.36818060  0.75670513  0.01163128  1
  O  O222  1  0.37234502  0.75912847  0.50222792  1
  O  O223  1  0.87099907  0.25811538  0.00564266  1
  O  O224  1  0.88003323  0.24813152  0.51246629  1
  O  O225  1  0.86866271  0.75579467  0.00598190  1
  O  O226  1  0.86194049  0.74275054  0.50417661  1
  O  O227  1  0.12013334  0.24680706  0.51402138  1
  O  O228  1  0.12786599  0.23827863  0.98481285  1
  O  O229  1  0.12461289  0.74081155  0.49242805  1
  O  O230  1  0.12952616  0.74115462  0.99579646  1
  O  O231  1  0.62172964  0.23310400  0.50406742  1
  O  O232  1  0.63020746  0.23992670  0.99596561  1
  O  O233  1  0.63313713  0.74178611  0.49341484  1
  O  O234  1  0.63070781  0.74394963  1.00035657  1
  O  O235  1  0.48435770  0.28947250  0.14016900  1
  O  O236  1  0.49146488  0.26425387  0.63976249  1
  O  O237  1  0.49025919  0.73476585  0.12093816  1
  O  O238  1  0.50130898  0.73950946  0.63353255  1
  O  O239  1  0.99571718  0.24168115  0.12404189  1
  O  O240  1  0.98370008  0.25410057  0.62899262  1
  O  O241  1  0.99257714  0.74190061  0.12732960  1
  O  O242  1  0.99525313  0.74411836  0.62812177  1
  O  O243  1  0.00011349  0.25333552  0.35763115  1
  O  O244  1  0.00829564  0.26047504  0.87561219  1
  O  O245  1  0.00760491  0.75935906  0.37551153  1
  O  O246  1  0.00389083  0.75419453  0.86961609  1
  O  O247  1  0.50803305  0.26763853  0.38259150  1
  O  O248  1  0.50207199  0.25733142  0.86844430  1
  O  O249  1  0.51349672  0.74987711  0.38151036  1
  O  O250  1  0.50249858  0.75335998  0.86590696  1
  O  O251  1  0.24760120  0.14621495  0.50569648  1
  O  O252  1  0.23926131  0.11648081  0.98716113  1
  O  O253  1  0.23897143  0.62396844  0.49959301  1
  O  O254  1  0.24001932  0.62964114  0.99379237  1
  O  O255  1  0.73279823  0.11733016  0.50124665  1
  O  O256  1  0.74456320  0.12911927  0.99319107  1
  O  O257  1  0.74262169  0.63349082  0.50238073  1
  O  O258  1  0.74472184  0.62993222  0.99629622  1
  O  O259  1  0.24221484  0.37351441  0.00900563  1
  O  O260  1  0.23375302  0.37289760  0.52669408  1
  O  O261  1  0.25429218  0.86989456  0.00997585  1
  O  O262  1  0.25827557  0.87449231  0.50765779  1
  O  O263  1  0.75813686  0.36718729  0.00262277  1
  O  O264  1  0.75375219  0.37942600  0.51469867  1
  O  O265  1  0.75562170  0.87058907  0.00527383  1
  O  O266  1  0.74143094  0.86451148  0.50998417  1
  O  O267  1  0.12198373  0.49426778  0.24091749  1
  O  O268  1  0.12992805  0.49362117  0.76086225  1
  O  O269  1  0.13677404  0.98672380  0.26067829  1
  O  O270  1  0.13928190  0.99491618  0.74398844  1
  O  O271  1  0.63358148  0.49252238  0.24276758  1
  O  O272  1  0.62416766  0.48499576  0.75636440  1
  O  O273  1  0.63194291  0.99415741  0.23893734  1
  O  O274  1  0.63118514  0.99338960  0.73972364  1
  O  O275  1  0.36279274  -0.00402475  0.26202868  1
  O  O276  1  0.36427345  0.00932867  0.74403645  1
  O  O277  1  0.35499145  0.49744739  0.24673384  1
  O  O278  1  0.38378157  0.50502542  0.76689218  1
  O  O279  1  0.85794767  -0.00046043  0.25030906  1
  O  O280  1  0.86967046  0.00696584  0.75415070  1
  O  O281  1  0.87233029  0.50420688  0.25402681  1
  O  O282  1  0.87542023  0.50595871  0.76123665  1
  O  O283  1  0.11928310  0.38528639  0.36058336  1
  O  O284  1  0.12015132  0.36974984  0.86755740  1
  O  O285  1  0.11794097  0.86817761  0.36947774  1
  O  O286  1  0.12001571  0.86738762  0.87524247  1
  O  O287  1  0.62041169  0.37663835  0.36533372  1
  O  O288  1  0.61813968  0.36712320  0.86877613  1
  O  O289  1  0.62078087  0.86796546  0.36811158  1
  O  O290  1  0.62747171  0.87431525  0.86093633  1
  O  O291  1  0.37302677  0.15884910  0.08855496  1
  O  O292  1  0.36738153  0.13580379  0.63656474  1
  O  O293  1  0.37978547  0.63025748  0.12677182  1
  O  O294  1  0.38890812  0.62750553  0.62843534  1
  O  O295  1  0.88485769  0.13778777  0.11638628  1
  O  O296  1  0.87037864  0.13774496  0.63233760  1
  O  O297  1  0.88092889  0.62912173  0.12713031  1
  O  O298  1  0.88334943  0.63206265  0.62964072  1
  O  O299  1  0.23254768  0.27169264  0.12407407  1
  O  O300  1  0.25571210  0.25944652  0.61678208  1
  O  O301  1  0.25605899  0.75694729  0.12161354  1
  O  O302  1  0.25221297  0.76110187  0.62543003  1
  O  O303  1  0.76024322  0.25328535  0.12040583  1
  O  O304  1  0.76316932  0.26294089  0.62780522  1
  O  O305  1  0.75364773  0.75625595  0.11943406  1
  O  O306  1  0.75421862  0.75670536  0.61760274  1
  O  O307  1  0.24463285  0.27765857  0.41023373  1
  O  O308  1  0.24562670  0.23956042  0.87829027  1
  O  O309  1  0.23603493  0.74914969  0.37709450  1
  O  O310  1  0.24451348  0.74094275  0.88138730  1
  O  O311  1  0.74684543  0.26596587  0.37983015  1
  O  O312  1  0.74450782  0.24438771  0.87964976  1
  O  O313  1  0.74173734  0.75055917  0.38442242  1
  O  O314  1  0.75024840  0.74258929  0.88212339  1
  O  O315  1  0.00533479  0.11973420  0.00342630  1
  O  O316  1  0.00736199  0.10636189  0.51351432  1
  O  O317  1  0.00911804  0.63262540  0.00984252  1
  O  O318  1  0.00516954  0.61930129  0.50696744  1
  O  O319  1  0.51602634  0.12363088  -0.01101602  1
  O  O320  1  0.51798072  0.11542257  0.50471072  1
  O  O321  1  0.50393150  0.61488383  0.00814603  1
  O  O322  1  0.50861328  0.61774210  0.50867022  1
  O  O323  1  0.51791924  0.38712641  0.48977599  1
  O  O324  1  0.50823960  0.38305555  0.98678253  1
  O  O325  1  0.48825475  0.87936481  0.50140690  1
  O  O326  1  0.48467267  0.86789353  1.00325530  1
  O  O327  1  0.99619304  0.39197421  0.50971750  1
  O  O328  1  0.98922377  0.36913915  0.98932449  1
  O  O329  1  1.00608317  0.88716568  0.49119783  1
  O  O330  1  0.99467379  0.87880857  0.99577206  1
  O  O331  1  0.50098991  0.49441139  0.38705668  1
  O  O332  1  0.49303779  0.49344885  0.88312258  1
  O  O333  1  0.48295855  0.99594417  0.37354157  1
  O  O334  1  0.49081590  0.98758538  0.85933131  1
  O  O335  1  0.99013266  0.50842881  0.38359742  1
  O  O336  1  0.98817471  0.48886406  0.87488347  1
  O  O337  1  1.00124107  0.99715022  0.38889915  1
  O  O338  1  0.99466608  0.99356619  0.88019592  1
  O  O339  1  -0.00849025  0.01362370  0.11874485  1
  O  O340  1  0.01088911  -0.01028383  0.61428887  1
  O  O341  1  0.00485845  0.51352863  0.12745114  1
  O  O342  1  -0.00885374  0.51334741  0.61704281  1
  O  O343  1  0.51446574  -0.00519728  0.12476767  1
  O  O344  1  0.51654157  -0.00425139  0.62845802  1
  O  O345  1  0.50393017  0.49959392  0.11487958  1
  O  O346  1  0.49948911  0.50804318  0.61984699  1
  O  O347  1  0.22748904  0.38972194  0.23561934  1
  O  O348  1  0.23780183  0.37432839  0.74635067  1
  O  O349  1  0.24149964  0.87948156  0.24328547  1
  O  O350  1  0.25528461  0.88292230  0.74189661  1
  O  O351  1  0.74524482  0.38171681  0.24013675  1
  O  O352  1  0.74108470  0.37562833  0.74557753  1
  O  O353  1  0.73751465  0.88335804  0.24436623  1
  O  O354  1  0.74254038  0.87785144  0.74152497  1
  O  O355  1  0.23989250  0.10353703  0.23592703  1
  O  O356  1  0.25770342  0.11893770  0.75781855  1
  O  O357  1  0.24360442  0.60944323  0.25084055  1
  O  O358  1  0.24854389  0.62984815  0.76464545  1
  O  O359  1  0.74109826  0.11177843  0.25003681  1
  O  O360  1  0.75915107  0.12013623  0.75582807  1
  O  O361  1  0.75644833  0.61694415  0.24764589  1
  O  O362  1  0.75660943  0.62418432  0.75534200  1
  O  O363  1  0.37864832  0.11528318  0.38211925  1
  O  O364  1  0.36519672  0.12559940  0.86495405  1
  O  O365  1  0.36994746  0.61881471  0.37129535  1
  O  O366  1  0.36569365  0.61903103  0.87609925  1
  O  O367  1  0.88396278  0.12937113  0.38474081  1
  O  O368  1  0.87270428  0.12104472  0.86839542  1
  O  O369  1  0.87279662  0.61732213  0.36606935  1
  O  O370  1  0.87248393  0.61707103  0.87212350  1
  O  O371  1  0.12295461  0.39020175  0.12019770  1
  O  O372  1  0.13287281  0.37929926  0.64560751  1
  O  O373  1  0.13439807  0.86776291  0.13451431  1
  O  O374  1  0.13795916  0.88254117  0.62639326  1
  O  O375  1  0.63216156  0.37994614  0.12893661  1
  O  O376  1  0.64105604  0.36733300  0.63457290  1
  O  O377  1  0.62919027  0.88338773  0.12997259  1
  O  O378  1  0.63402817  0.88064653  0.63262740  1
  O  O379  1  0.11893943  0.26886673  0.24610868  1
  O  O380  1  0.13078112  0.25277735  0.76266502  1
  O  O381  1  0.12251592  0.75989227  0.25917566  1
  O  O382  1  0.11758979  0.75172599  0.75676704  1
  O  O383  1  0.63007105  0.26512366  0.24753592  1
  O  O384  1  0.61718893  0.25499272  0.75492152  1
  O  O385  1  0.63252207  0.75907199  0.26026458  1
  O  O386  1  0.61900543  0.75775163  0.75074746  1
  O  O387  1  0.33744098  0.23982075  0.25044110  1
  O  O388  1  0.38029698  0.24383390  0.74380756  1
  O  O389  1  0.36744394  0.74915049  0.23721578  1
  O  O390  1  0.38708159  0.74740941  0.74830857  1
  O  O391  1  0.89419088  0.26148186  0.23519415  1
  O  O392  1  0.87269906  0.23888303  0.74274973  1
  O  O393  1  0.87261705  0.74493010  0.24328343  1
  O  O394  1  0.88068748  0.74389246  0.74334164  1
  O  O395  1  0.39153540  0.50181739  0.50035664  1
  O  O396  1  0.38606367  0.50403414  0.99105437  1
  O  O397  1  0.37090036  0.99459979  0.48746093  1
  O  O398  1  0.36968619  0.98360084  1.00468396  1
  O  O399  1  0.88204713  0.50106570  0.48932131  1
  O  O400  1  0.86914210  0.48714171  0.98977195  1
  O  O401  1  0.88835235  1.00048561  0.50532412  1
  O  O402  1  0.87984786  0.99469168  0.99414558  1
  O  O403  1  0.11582894  0.00964851  -0.00917789  1
  O  O404  1  0.12472669  -0.00291822  0.51019364  1
  O  O405  1  0.12647349  0.51409174  0.00654615  1
  O  O406  1  0.11427621  0.51288335  0.49060672  1
  O  O407  1  0.63234123  0.00390693  0.01398231  1
  O  O408  1  0.62527651  0.00207211  0.51346372  1
  O  O409  1  0.61682392  0.50425687  0.00361262  1
  O  O410  1  0.62205407  0.51364234  0.49406530  1
  O  O411  1  0.34716432  0.39045019  0.12559967  1
  O  O412  1  0.35911212  0.36813324  0.63918175  1
  O  O413  1  0.36819736  0.86707148  0.11874886  1
  O  O414  1  0.36693396  0.87786245  0.61549926  1
  O  O415  1  0.87248894  0.36864084  0.11482293  1
  O  O416  1  0.86736141  0.36275831  0.63013960  1
  O  O417  1  0.87050949  0.87060321  0.11968652  1
  O  O418  1  0.86153303  0.86959511  0.63138118  1
  O  O419  1  0.13770885  0.14688710  0.35363087  1
  O  O420  1  0.13116917  0.12961929  0.87620252  1
  O  O421  1  0.12307770  0.63521032  0.38231859  1
  O  O422  1  0.12877358  0.62869446  0.88279271  1
  O  O423  1  0.62043120  0.12638408  0.38596447  1
  O  O424  1  0.63259177  0.12717698  0.87895432  1
  O  O425  1  0.62847517  0.63260644  0.38224171  1
  O  O426  1  0.63196889  0.62502406  0.88266744  1
