# generated using pymatgen
data_V85Zn86O256
_symmetry_space_group_name_H-M   'P 1'
_cell_length_a   16.95811622
_cell_length_b   16.95755214
_cell_length_c   16.96925831
_cell_angle_alpha   89.88927392
_cell_angle_beta   90.10788062
_cell_angle_gamma   89.96440180
_symmetry_Int_Tables_number   1
_chemical_formula_structural   V85Zn86O256
_chemical_formula_sum   'V85 Zn86 O256'
_cell_volume   4879.79933706
_cell_formula_units_Z   1
loop_
 _symmetry_equiv_pos_site_id
 _symmetry_equiv_pos_as_xyz
  1  'x, y, z'
loop_
 _atom_site_type_symbol
 _atom_site_label
 _atom_site_symmetry_multiplicity
 _atom_site_fract_x
 _atom_site_fract_y
 _atom_site_fract_z
 _atom_site_occupancy
  V  V0  1  0.37840602  0.12500448  0.24954201  1
  V  V1  1  0.75959762  0.50480231  0.24985953  1
  V  V2  1  0.87705238  0.37683061  -0.00155669  1
  V  V3  1  0.75605127  -0.00124579  0.25148304  1
  V  V4  1  0.87827737  0.73673332  0.12883372  1
  V  V5  1  0.37356482  0.37992211  -0.00753537  1
  V  V6  1  0.62157394  0.00038011  0.62445642  1
  V  V7  1  0.75029743  0.12264983  0.37251367  1
  V  V8  1  0.37964348  0.62269279  0.25164734  1
  V  V9  1  0.12176129  0.24370380  0.87975141  1
  V  V10  1  0.24900367  0.87314369  0.12539723  1
  V  V11  1  0.87471474  0.23362221  0.63017332  1
  V  V12  1  0.24589704  0.24636803  0.00221776  1
  V  V13  1  0.61390428  0.87711424  0.24888167  1
  V  V14  1  0.62660339  0.87863645  0.74529890  1
  V  V15  1  0.63053052  0.62493319  -0.00439815  1
  V  V16  1  0.76013049  0.11463407  0.85861200  1
  V  V17  1  0.12851188  0.24700932  0.38280432  1
  V  V18  1  0.49156117  0.62943182  0.62469920  1
  V  V19  1  0.00040443  0.12933095  0.12233208  1
  V  V20  1  -0.00196172  0.38180459  0.87618913  1
  V  V21  1  0.00118140  0.37215487  0.37918274  1
  V  V22  1  0.37577839  0.61792392  0.76129220  1
  V  V23  1  -0.00486358  0.73766512  0.24957704  1
  V  V24  1  -0.00213770  0.00222649  0.00004850  1
  V  V25  1  0.62477182  0.00286639  0.11697484  1
  V  V26  1  0.49999750  0.37751794  0.37227891  1
  V  V27  1  0.50228912  0.12718337  0.11452040  1
  V  V28  1  0.25602375  0.74702304  0.50695744  1
  V  V29  1  0.12519039  0.74726730  0.38196651  1
  V  V30  1  0.48824586  0.12851177  0.62086454  1
  V  V31  1  0.25629848  0.12050913  0.87940425  1
  V  V32  1  0.49732082  0.88752399  0.88012627  1
  V  V33  1  0.25778227  -0.00229125  0.75673767  1
  V  V34  1  0.11472946  0.50562793  0.11857103  1
  V  V35  1  0.24882155  0.49756598  0.75196733  1
  V  V36  1  0.75733255  0.62648926  0.37140181  1
  V  V37  1  0.12505661  0.74561788  0.87672408  1
  V  V38  1  0.49679183  0.50137366  -0.00703030  1
  V  V39  1  0.25848631  0.87245674  0.62866049  1
  V  V40  1  0.12293854  0.00361102  0.12423178  1
  V  V41  1  -0.00518563  0.23508393  0.74866398  1
  V  V42  1  0.75194701  0.87616484  0.61481439  1
  V  V43  1  0.87670707  0.87769881  -0.00166604  1
  V  V44  1  0.25490764  -0.00032654  0.25382205  1
  V  V45  1  0.01404414  0.50132291  0.50644012  1
  V  V46  1  0.11999088  0.38110876  0.74398826  1
  V  V47  1  0.87470727  0.12619343  0.24623232  1
  V  V48  1  0.75686591  0.37004974  0.12430172  1
  V  V49  1  0.62903161  0.74903024  0.87298169  1
  V  V50  1  0.62509849  0.62693279  0.49846816  1
  V  V51  1  0.25069990  0.37431997  0.12545521  1
  V  V52  1  0.75170629  0.74820709  -0.00516391  1
  V  V53  1  0.87699668  0.37554864  0.50300817  1
  V  V54  1  0.87048459  0.50807269  0.87153156  1
  V  V55  1  0.62692498  0.37489332  0.24934199  1
  V  V56  1  0.62738836  0.50229118  0.62446845  1
  V  V57  1  -0.01352503  0.88312308  0.37958134  1
  V  V58  1  0.62827178  0.50138609  0.12178967  1
  V  V59  1  0.75212459  0.24728432  -0.00161081  1
  V  V60  1  0.37339962  0.36984176  0.50908957  1
  V  V61  1  -0.00328313  0.24956434  0.25007867  1
  V  V62  1  0.61806819  0.75526490  0.37080316  1
  V  V63  1  0.24774405  0.74245524  0.00193925  1
  V  V64  1  0.49325742  0.75083891  0.74645715  1
  V  V65  1  0.75055802  0.51136752  0.75182110  1
  V  V66  1  0.37822058  0.87554007  0.48321119  1
  V  V67  1  0.50086785  0.50101907  0.49992170  1
  V  V68  1  0.62723382  0.37558913  0.74802586  1
  V  V69  1  0.75559009  0.75540989  0.49739580  1
  V  V70  1  0.00986326  0.62346672  0.62504292  1
  V  V71  1  0.00537992  0.87467146  0.87660770  1
  V  V72  1  0.49417921  -0.00203660  0.48376439  1
  V  V73  1  0.12620052  0.37348239  0.25116795  1
  V  V74  1  0.25494878  0.12349474  0.37466369  1
  V  V75  1  0.37486074  0.74897581  0.12401715  1
  V  V76  1  0.75019456  0.24972433  0.50045974  1
  V  V77  1  0.12235314  0.87330236  0.25244742  1
  V  V78  1  0.25002745  0.49912501  0.25082670  1
  V  V79  1  0.62171743  0.12619123  0.49623719  1
  V  V80  1  0.24776734  0.62389446  0.38146253  1
  V  V81  1  0.12172101  0.11560239  0.50784618  1
  V  V82  1  0.62423445  0.25013634  0.87357606  1
  V  V83  1  0.75142236  0.87569364  0.12423938  1
  V  V84  1  0.49226515  0.25090703  0.74391359  1
  Zn  Zn85  1  0.12816793  0.87329240  0.74778686  1
  Zn  Zn86  1  0.49392592  0.37855366  0.86995224  1
  Zn  Zn87  1  0.88021949  0.75624055  0.62249844  1
  Zn  Zn88  1  0.49637788  0.75723474  0.24972100  1
  Zn  Zn89  1  0.49976502  0.25218385  0.24760043  1
  Zn  Zn90  1  0.88138909  0.50675002  0.37604744  1
  Zn  Zn91  1  0.25044920  0.61504974  0.88103502  1
  Zn  Zn92  1  0.75324598  0.37589069  0.62464709  1
  Zn  Zn93  1  0.28058351  0.22136894  0.53846025  1
  Zn  Zn94  1  0.24073027  0.37340026  0.62447703  1
  Zn  Zn95  1  0.37009995  0.88772498  -0.01348106  1
  Zn  Zn96  1  0.12209462  -0.00063199  0.63105641  1
  Zn  Zn97  1  0.09285926  0.61866740  0.00035965  1
  Zn  Zn98  1  0.50354289  0.62736435  0.12449845  1
  Zn  Zn99  1  0.37939827  0.25243294  0.12401624  1
  Zn  Zn100  1  -0.02918966  -0.01607327  0.51863315  1
  Zn  Zn101  1  0.37149323  0.12717707  0.74819795  1
  Zn  Zn102  1  0.62334780  0.11830533  -0.00813638  1
  Zn  Zn103  1  0.37368856  0.49910058  0.37685822  1
  Zn  Zn104  1  0.62625744  0.25242971  0.37470133  1
  Zn  Zn105  1  0.86812399  0.64361053  0.74973375  1
  Zn  Zn106  1  -0.00018443  0.75223647  0.74561713  1
  Zn  Zn107  1  0.18582270  0.18809215  0.18912544  1
  Zn  Zn108  1  0.18552582  0.18951760  0.69394089  1
  Zn  Zn109  1  0.18606303  0.68414305  0.19132282  1
  Zn  Zn110  1  0.18899987  0.68530244  0.69024620  1
  Zn  Zn111  1  0.68676273  0.18864878  0.18400498  1
  Zn  Zn112  1  0.68460042  0.18711464  0.68314373  1
  Zn  Zn113  1  0.68985638  0.68932673  0.18522788  1
  Zn  Zn114  1  0.68350592  0.69251389  0.68350867  1
  Zn  Zn115  1  0.31444427  0.30984408  0.31487689  1
  Zn  Zn116  1  0.30661662  0.31245826  0.81239845  1
  Zn  Zn117  1  0.31138760  0.80914436  0.31009700  1
  Zn  Zn118  1  0.31428071  0.80801550  0.81461459  1
  Zn  Zn119  1  0.81506220  0.31097535  0.31513214  1
  Zn  Zn120  1  0.81224550  0.31153812  0.81298480  1
  Zn  Zn121  1  0.81091306  0.81162790  0.31079074  1
  Zn  Zn122  1  0.84043542  0.86071353  0.78271441  1
  Zn  Zn123  1  0.19013491  0.43490358  0.43819243  1
  Zn  Zn124  1  0.18545089  0.43561624  0.93503876  1
  Zn  Zn125  1  0.18849011  0.93408416  0.43803897  1
  Zn  Zn126  1  0.18713859  0.93636143  0.94191364  1
  Zn  Zn127  1  0.69048974  0.43982974  0.43678573  1
  Zn  Zn128  1  0.68899375  0.43700769  0.93469270  1
  Zn  Zn129  1  0.68166340  0.93991919  0.43435294  1
  Zn  Zn130  1  0.68827278  0.93423675  0.93302543  1
  Zn  Zn131  1  0.31390969  0.06360613  0.06215516  1
  Zn  Zn132  1  0.30972971  0.04903356  0.56280812  1
  Zn  Zn133  1  0.31104120  0.55949812  0.06634661  1
  Zn  Zn134  1  0.31068775  0.55510631  0.56722009  1
  Zn  Zn135  1  0.81330557  0.06534482  0.06104105  1
  Zn  Zn136  1  0.80630677  0.05675874  0.56425918  1
  Zn  Zn137  1  0.81899657  0.56049838  0.05819283  1
  Zn  Zn138  1  0.81886786  0.56670291  0.56561921  1
  Zn  Zn139  1  0.43853520  0.44056975  0.18077788  1
  Zn  Zn140  1  0.43809785  0.44221703  0.68847564  1
  Zn  Zn141  1  0.42671735  0.95060781  0.15529835  1
  Zn  Zn142  1  0.43709280  0.93837863  0.68358901  1
  Zn  Zn143  1  0.93770590  0.43588503  0.18837049  1
  Zn  Zn144  1  0.93751424  0.43720744  0.68755769  1
  Zn  Zn145  1  0.93748190  0.93229014  0.18784882  1
  Zn  Zn146  1  0.93727535  0.97666067  0.69864576  1
  Zn  Zn147  1  0.06410105  0.06337834  0.31479934  1
  Zn  Zn148  1  0.07105102  0.05795506  0.81632035  1
  Zn  Zn149  1  0.06493916  0.55785430  0.31593287  1
  Zn  Zn150  1  0.06033062  0.56548852  0.80964754  1
  Zn  Zn151  1  0.56549219  0.06230414  0.30471461  1
  Zn  Zn152  1  0.56386614  0.06722452  0.80837638  1
  Zn  Zn153  1  0.56800040  0.56234864  0.31238171  1
  Zn  Zn154  1  0.56434037  0.56416532  0.81230336  1
  Zn  Zn155  1  0.44070410  0.18948112  0.43114713  1
  Zn  Zn156  1  0.43476411  0.19322975  0.93596043  1
  Zn  Zn157  1  0.43557269  0.68901239  0.43683709  1
  Zn  Zn158  1  0.44141207  0.69345549  0.93849908  1
  Zn  Zn159  1  0.91682504  0.15141011  0.45984133  1
  Zn  Zn160  1  0.93354503  0.18739668  0.93581003  1
  Zn  Zn161  1  0.94226279  0.69014204  0.44139411  1
  Zn  Zn162  1  0.93634658  0.68732080  0.93825272  1
  Zn  Zn163  1  0.06259523  0.31637441  0.06390673  1
  Zn  Zn164  1  0.05992123  0.30285456  0.56428212  1
  Zn  Zn165  1  0.06132387  0.80674179  0.06466053  1
  Zn  Zn166  1  0.06532670  0.81640723  0.56396914  1
  Zn  Zn167  1  0.56342380  0.31411415  0.06095854  1
  Zn  Zn168  1  0.56201973  0.31312274  0.56188158  1
  Zn  Zn169  1  0.56203265  0.81371564  0.06349880  1
  Zn  Zn170  1  0.56055254  0.81203707  0.55764127  1
  O  O171  1  0.11321622  0.11365761  0.13565374  1
  O  O172  1  0.13501249  0.12404414  0.61043634  1
  O  O173  1  0.12935351  0.60842021  0.12720985  1
  O  O174  1  0.10978134  0.62778575  0.62893845  1
  O  O175  1  0.62024989  0.12033640  0.12073642  1
  O  O176  1  0.61499911  0.11748777  0.61667866  1
  O  O177  1  0.62647042  0.62067653  0.11321017  1
  O  O178  1  0.61574402  0.62074159  0.61836129  1
  O  O179  1  0.38545066  0.37811685  0.37969113  1
  O  O180  1  0.37454550  0.37108705  0.88846704  1
  O  O181  1  0.37047304  0.87474444  0.38396787  1
  O  O182  1  0.39188214  0.87105567  0.87323127  1
  O  O183  1  0.88328935  0.37027645  0.38894785  1
  O  O184  1  0.88037497  0.38137615  0.87928721  1
  O  O185  1  0.88742524  0.87313707  0.37075545  1
  O  O186  1  0.88915570  0.86669649  0.89457674  1
  O  O187  1  0.24270972  0.00912979  0.36226679  1
  O  O188  1  0.24414671  0.00947421  0.87397050  1
  O  O189  1  0.24945467  0.50873686  0.37049201  1
  O  O190  1  0.24569297  0.49996870  0.86167644  1
  O  O191  1  0.74173289  0.01133699  0.36303482  1
  O  O192  1  0.73932083  0.01766274  0.87875285  1
  O  O193  1  0.75183771  0.50946683  0.36715205  1
  O  O194  1  0.75711997  0.49529934  0.86309094  1
  O  O195  1  0.24270540  0.49217989  0.13294202  1
  O  O196  1  0.25344610  0.49132662  0.64266912  1
  O  O197  1  0.23782734  0.99620248  0.13626785  1
  O  O198  1  0.24645380  0.98970944  0.63700838  1
  O  O199  1  0.74791541  0.49210753  0.13095666  1
  O  O200  1  0.74479617  0.49807376  0.63284126  1
  O  O201  1  0.74454879  0.99732423  0.13207611  1
  O  O202  1  0.72909567  0.99130508  0.61264200  1
  O  O203  1  0.00466950  0.36682397  0.25698572  1
  O  O204  1  0.00384782  0.36877811  0.75961199  1
  O  O205  1  0.00800740  0.86700076  0.25901908  1
  O  O206  1  0.00790054  0.87742360  0.77186139  1
  O  O207  1  0.50971280  0.38029696  0.25453867  1
  O  O208  1  0.50988189  0.37087712  0.74937654  1
  O  O209  1  0.51314985  0.88065169  0.23842805  1
  O  O210  1  0.50596504  0.86787950  0.75278535  1
  O  O211  1  0.49188643  0.12824516  0.24452295  1
  O  O212  1  0.49588380  0.13311456  0.73893162  1
  O  O213  1  0.49012630  0.62200415  0.24772705  1
  O  O214  1  0.49553981  0.62987958  0.74437018  1
  O  O215  1  0.99333595  0.12966306  0.24551164  1
  O  O216  1  1.00306550  0.13664254  0.76057825  1
  O  O217  1  1.00241869  0.63880288  0.26323212  1
  O  O218  1  0.99505700  0.62766864  0.73664594  1
  O  O219  1  0.36343652  0.26019456  0.00286641  1
  O  O220  1  0.37773674  0.26456069  0.49265368  1
  O  O221  1  0.36837670  0.75414033  0.01037883  1
  O  O222  1  0.36788300  0.76261657  0.49526098  1
  O  O223  1  0.86177315  0.26367882  -0.00852065  1
  O  O224  1  0.87109912  0.25023762  0.51026605  1
  O  O225  1  0.86629297  0.75666948  0.00790764  1
  O  O226  1  0.85826816  0.75047443  0.49830976  1
  O  O227  1  0.12912417  0.24138962  0.49108589  1
  O  O228  1  0.13462744  0.25948406  0.99106533  1
  O  O229  1  0.13888461  0.75667553  0.48726743  1
  O  O230  1  0.13245516  0.74317800  0.99781186  1
  O  O231  1  0.63120157  0.24470155  0.49868178  1
  O  O232  1  0.63424044  0.25437560  0.98798366  1
  O  O233  1  0.62942973  0.74643151  0.48849769  1
  O  O234  1  0.63133928  0.74483886  0.99487669  1
  O  O235  1  0.50274854  0.24248769  0.12864213  1
  O  O236  1  0.50668016  0.23930069  0.63177638  1
  O  O237  1  0.48961042  0.74796324  0.12683562  1
  O  O238  1  0.50868924  0.73988734  0.63452084  1
  O  O239  1  1.01210526  0.24063985  0.13741426  1
  O  O240  1  0.99268217  0.24656873  0.64134888  1
  O  O241  1  0.99101783  0.75411545  0.13738508  1
  O  O242  1  1.00030179  0.74034414  0.62021651  1
  O  O243  1  0.01312667  0.25300199  0.36540353  1
  O  O244  1  0.00285174  0.25607181  0.86783013  1
  O  O245  1  0.00820741  0.75907111  0.37152699  1
  O  O246  1  0.01041399  0.75853201  0.88025942  1
  O  O247  1  0.50545463  0.26457602  0.36897724  1
  O  O248  1  0.50989679  0.25127524  0.86519828  1
  O  O249  1  0.51377839  0.74411193  0.36999912  1
  O  O250  1  0.51124014  0.75811614  0.86550920  1
  O  O251  1  0.24862841  0.12207184  0.49038283  1
  O  O252  1  0.25448111  0.13677956  0.99654079  1
  O  O253  1  0.26284866  0.63156669  0.49086017  1
  O  O254  1  0.25523570  0.63617473  0.99980362  1
  O  O255  1  0.74099829  0.12997093  0.48956844  1
  O  O256  1  0.74799323  0.13678645  0.99590473  1
  O  O257  1  0.74332674  0.63320886  0.49228883  1
  O  O258  1  0.74120722  0.63522723  1.00208840  1
  O  O259  1  0.25580733  0.36856378  0.00421806  1
  O  O260  1  0.26796521  0.37921489  0.50203187  1
  O  O261  1  0.25033751  0.86179675  0.00800628  1
  O  O262  1  0.26150317  0.86888590  0.50452473  1
  O  O263  1  0.75445459  0.36852457  0.00574674  1
  O  O264  1  0.75985579  0.36903735  0.49900891  1
  O  O265  1  0.75725926  0.86901302  0.00373711  1
  O  O266  1  0.73635171  0.86621935  0.50298250  1
  O  O267  1  0.13099801  0.49248552  0.24483594  1
  O  O268  1  0.12964809  0.48905547  0.75539336  1
  O  O269  1  0.13019094  0.99094502  0.24429412  1
  O  O270  1  0.14061338  0.99429595  0.75180058  1
  O  O271  1  0.63587958  0.49125741  0.24363949  1
  O  O272  1  0.63090999  0.49413903  0.74666563  1
  O  O273  1  0.63695774  0.99469298  0.24077863  1
  O  O274  1  0.61365765  0.99135892  0.73438936  1
  O  O275  1  0.36257266  0.01058456  0.24010611  1
  O  O276  1  0.36237823  0.00279823  0.74714162  1
  O  O277  1  0.36916697  0.50781204  0.24908766  1
  O  O278  1  0.36949346  0.50819855  0.75157869  1
  O  O279  1  0.86322149  0.00722578  0.24288603  1
  O  O280  1  0.85925592  -0.03000342  0.76854609  1
  O  O281  1  0.86347058  0.49266028  0.25529879  1
  O  O282  1  0.86261731  0.49474960  0.75619919  1
  O  O283  1  0.12271252  0.36549696  0.37210810  1
  O  O284  1  0.11445085  0.36557862  0.86931119  1
  O  O285  1  0.12480013  0.86547826  0.36566863  1
  O  O286  1  0.11964756  0.86233316  0.88336053  1
  O  O287  1  0.61889411  0.37816458  0.36588854  1
  O  O288  1  0.62459842  0.36618658  0.86453705  1
  O  O289  1  0.62978416  0.86608816  0.36142713  1
  O  O290  1  0.61743717  0.86935366  0.86433271  1
  O  O291  1  0.38483754  0.12941166  0.13319625  1
  O  O292  1  0.38422260  0.12213957  0.62032600  1
  O  O293  1  0.37324361  0.63350985  0.13520177  1
  O  O294  1  0.38796421  0.62009816  0.63357579  1
  O  O295  1  0.88492908  0.12443130  0.13646300  1
  O  O296  1  0.86621556  0.13492346  0.63075252  1
  O  O297  1  0.86384495  0.63802250  0.12707973  1
  O  O298  1  0.88297981  0.63432086  0.62985477  1
  O  O299  1  0.24577016  0.25531765  0.11648074  1
  O  O300  1  0.25050841  0.25998857  0.63561481  1
  O  O301  1  0.25304273  0.75138736  0.12066495  1
  O  O302  1  0.24754734  0.75228184  0.61313364  1
  O  O303  1  0.74505634  0.26170287  0.11458192  1
  O  O304  1  0.75671962  0.25308196  0.61918104  1
  O  O305  1  0.75547457  0.75700595  0.11561313  1
  O  O306  1  0.74221952  0.75991509  0.61114531  1
  O  O307  1  0.24014312  0.23760083  0.36974492  1
  O  O308  1  0.24064893  0.24378638  0.88258013  1
  O  O309  1  0.24480829  0.74226876  0.38203964  1
  O  O310  1  0.24206655  0.74847543  0.88555748  1
  O  O311  1  0.74808403  0.24095193  0.38007849  1
  O  O312  1  0.74158128  0.24397085  0.87900319  1
  O  O313  1  0.74071590  0.74498493  0.37778299  1
  O  O314  1  0.73671258  0.76003673  0.88775579  1
  O  O315  1  -0.00936175  0.11790399  0.01231846  1
  O  O316  1  0.02329212  0.12703532  0.49415000  1
  O  O317  1  -0.01643053  0.62009286  0.01010296  1
  O  O318  1  -0.00450728  0.61491175  0.51118933  1
  O  O319  1  0.50169654  0.13271255  0.01003630  1
  O  O320  1  0.50108889  0.11952133  0.50249080  1
  O  O321  1  0.51056364  0.61965152  0.00094161  1
  O  O322  1  0.50316768  0.62250148  0.50631682  1
  O  O323  1  0.49496438  0.37979674  0.49093702  1
  O  O324  1  0.49213255  0.38285788  0.99848581  1
  O  O325  1  0.48541299  0.88053180  0.50177092  1
  O  O326  1  0.50464213  0.87111397  0.98186059  1
  O  O327  1  0.99475965  0.37804081  0.49910007  1
  O  O328  1  0.98845184  0.36540020  0.98933075  1
  O  O329  1  1.00514438  0.87551186  0.48321355  1
  O  O330  1  0.99543540  0.88219379  1.00053592  1
  O  O331  1  0.50175654  0.49195163  0.38008636  1
  O  O332  1  0.50790433  0.49776088  0.88836473  1
  O  O333  1  0.50474570  1.00530809  0.38500638  1
  O  O334  1  0.50776486  0.98645628  0.86887214  1
  O  O335  1  0.99972791  0.49196320  0.38530263  1
  O  O336  1  0.98987314  0.48758525  0.86775020  1
  O  O337  1  1.00439118  0.98310498  0.36829190  1
  O  O338  1  1.01445775  0.99184222  0.89378398  1
  O  O339  1  0.00501501  0.00684985  0.12210133  1
  O  O340  1  0.01140413  -0.02256424  0.62243495  1
  O  O341  1  0.01614603  0.49252887  0.13068924  1
  O  O342  1  -0.00613608  0.51256341  0.61946676  1
  O  O343  1  0.51742983  0.01616179  0.13530097  1
  O  O344  1  0.50402711  0.00889804  0.61349080  1
  O  O345  1  0.51032329  0.50241836  0.11195482  1
  O  O346  1  0.50765727  0.51037151  0.61997757  1
  O  O347  1  0.24599808  0.37841069  0.24721233  1
  O  O348  1  0.23640551  0.38043482  0.75407034  1
  O  O349  1  0.24078786  0.88027831  0.24782394  1
  O  O350  1  0.25355311  0.87855531  0.74631561  1
  O  O351  1  0.74668283  0.38075229  0.24398957  1
  O  O352  1  0.73809567  0.37996233  0.74777612  1
  O  O353  1  0.74454814  0.88342308  0.24361124  1
  O  O354  1  0.72905594  0.86739362  0.73379878  1
  O  O355  1  0.25595039  0.11824662  0.25432936  1
  O  O356  1  0.25032953  0.11698980  0.76092358  1
  O  O357  1  0.25917121  0.62072586  0.26074605  1
  O  O358  1  0.25995824  0.61758655  0.75177636  1
  O  O359  1  0.75445980  0.11999278  0.25116909  1
  O  O360  1  0.74393253  0.12883920  0.75993826  1
  O  O361  1  0.74264941  0.61514126  0.25804275  1
  O  O362  1  0.74628538  0.61500765  0.74518754  1
  O  O363  1  0.36522569  0.13032911  0.36418875  1
  O  O364  1  0.36037118  0.13196799  0.87283176  1
  O  O365  1  0.36780605  0.62268566  0.36731116  1
  O  O366  1  0.37565598  0.63084560  0.86503094  1
  O  O367  1  0.86109564  0.13224133  0.35605872  1
  O  O368  1  0.85898449  0.12824290  0.87495747  1
  O  O369  1  0.86081473  0.62745763  0.38058279  1
  O  O370  1  0.87884888  0.61167006  0.86678359  1
  O  O371  1  0.13135410  0.38270030  0.13169212  1
  O  O372  1  0.11730662  0.36864666  0.64079829  1
  O  O373  1  0.12753364  0.87958501  0.13664812  1
  O  O374  1  0.14513439  0.87184741  0.62632359  1
  O  O375  1  0.63585943  0.38155134  0.13022550  1
  O  O376  1  0.62448829  0.38278121  0.63300248  1
  O  O377  1  0.63161171  0.88223796  0.12940795  1
  O  O378  1  0.62144933  0.88300329  0.62728661  1
  O  O379  1  0.11849120  0.25336813  0.25927583  1
  O  O380  1  0.11071455  0.25657235  0.76055486  1
  O  O381  1  0.11936121  0.75670651  0.25759014  1
  O  O382  1  0.12472646  0.75177283  0.76473045  1
  O  O383  1  0.62780907  0.26619766  0.24957589  1
  O  O384  1  0.61677437  0.25825130  0.75364617  1
  O  O385  1  0.62464044  0.75952564  0.25300427  1
  O  O386  1  0.61549561  0.75569845  0.75614712  1
  O  O387  1  0.37514910  0.23891309  0.24565049  1
  O  O388  1  0.38962747  0.25403721  0.75521550  1
  O  O389  1  0.37599622  0.73776299  0.24628652  1
  O  O390  1  0.38791943  0.74018185  0.75184672  1
  O  O391  1  0.88855436  0.24530068  0.25077951  1
  O  O392  1  0.88782460  0.25581918  0.74537815  1
  O  O393  1  0.88279113  0.75660584  0.24037149  1
  O  O394  1  0.88103140  0.76098756  0.74384271  1
  O  O395  1  0.38337537  0.48932197  0.49786794  1
  O  O396  1  0.38473574  0.49294750  1.00643010  1
  O  O397  1  0.37973794  0.98518178  0.49795964  1
  O  O398  1  0.38154815  0.97806420  1.04871248  1
  O  O399  1  0.88132495  0.48761255  0.49939464  1
  O  O400  1  0.86364048  0.48573334  0.98559903  1
  O  O401  1  0.88332315  1.04247838  0.48718511  1
  O  O402  1  0.88620460  0.98975888  1.01022061  1
  O  O403  1  0.11615791  -0.00684130  0.01782169  1
  O  O404  1  0.13134103  0.01123364  0.50055247  1
  O  O405  1  0.12956326  0.49910874  0.01470803  1
  O  O406  1  0.11351231  0.49096531  0.50172949  1
  O  O407  1  0.63217121  -0.00083431  0.01352081  1
  O  O408  1  0.61247278  0.00523288  0.50403135  1
  O  O409  1  0.62309613  0.50761329  0.00154310  1
  O  O410  1  0.62103721  0.50619778  0.50395074  1
  O  O411  1  0.36809524  0.37359120  0.11575959  1
  O  O412  1  0.38507590  0.37565709  0.60930874  1
  O  O413  1  0.36392518  0.85376538  0.14316189  1
  O  O414  1  0.36354947  0.87558604  0.61739289  1
  O  O415  1  0.86538903  0.38163476  0.11439682  1
  O  O416  1  0.87649214  0.36489783  0.61417413  1
  O  O417  1  0.87064789  0.86699621  0.11586527  1
  O  O418  1  0.85174204  0.87971697  0.61931196  1
  O  O419  1  0.13565077  0.12911116  0.38124311  1
  O  O420  1  0.13394545  0.13825339  0.87549370  1
  O  O421  1  0.13761023  0.63474161  0.37010303  1
  O  O422  1  0.12440419  0.63332999  0.88139563  1
  O  O423  1  0.63341615  0.12917727  0.37562965  1
  O  O424  1  0.63024480  0.13681335  0.87440927  1
  O  O425  1  0.63456405  0.63331676  0.37830819  1
  O  O426  1  0.62105996  0.63704519  0.88389910  1
