# generated using pymatgen
data_V85Zn86O256
_symmetry_space_group_name_H-M   'P 1'
_cell_length_a   16.98977051
_cell_length_b   16.95956988
_cell_length_c   16.98768214
_cell_angle_alpha   90.28614667
_cell_angle_beta   89.98993827
_cell_angle_gamma   90.02152081
_symmetry_Int_Tables_number   1
_chemical_formula_structural   V85Zn86O256
_chemical_formula_sum   'V85 Zn86 O256'
_cell_volume   4894.75568294
_cell_formula_units_Z   1
loop_
 _symmetry_equiv_pos_site_id
 _symmetry_equiv_pos_as_xyz
  1  'x, y, z'
loop_
 _atom_site_type_symbol
 _atom_site_label
 _atom_site_symmetry_multiplicity
 _atom_site_fract_x
 _atom_site_fract_y
 _atom_site_fract_z
 _atom_site_occupancy
  V  V0  1  0.38082440  -0.00555969  0.37168066  1
  V  V1  1  0.37375824  0.11893130  0.24818874  1
  V  V2  1  0.75290109  0.24830184  0.49983662  1
  V  V3  1  0.62474974  0.61963946  0.50347082  1
  V  V4  1  0.24725724  0.25459338  0.00386373  1
  V  V5  1  0.25130075  0.11641270  0.36987675  1
  V  V6  1  0.75069616  0.12441716  0.87596017  1
  V  V7  1  0.75115003  0.37770756  0.62246345  1
  V  V8  1  0.74572442  0.48699990  0.24566269  1
  V  V9  1  0.87218954  0.88025386  0.49165059  1
  V  V10  1  0.24838247  0.12129494  0.86771545  1
  V  V11  1  0.37085690  -0.00118062  0.86826651  1
  V  V12  1  0.86745539  0.74874858  0.62397047  1
  V  V13  1  0.50264092  0.00318886  0.49784588  1
  V  V14  1  0.74614911  0.87727948  0.62031778  1
  V  V15  1  0.12245587  0.62302010  0.00889977  1
  V  V16  1  0.62645944  0.12443618  -0.00039587  1
  V  V17  1  0.50039299  0.49452284  0.00171222  1
  V  V18  1  -0.00111027  0.24848209  0.24775018  1
  V  V19  1  0.50042705  0.86637115  0.87245145  1
  V  V20  1  0.37505590  0.24721120  0.62707144  1
  V  V21  1  0.62204000  0.00647256  0.62123827  1
  V  V22  1  0.49944826  0.24658123  0.75169128  1
  V  V23  1  0.87697485  0.24862951  0.12676545  1
  V  V24  1  0.38004864  0.74988787  0.13011464  1
  V  V25  1  0.50573116  0.49676065  0.51214470  1
  V  V26  1  0.12852458  0.89069265  0.24445234  1
  V  V27  1  0.50365066  0.62771168  0.13052069  1
  V  V28  1  0.50155523  0.12362852  0.12381741  1
  V  V29  1  0.37367415  0.49699828  0.87756297  1
  V  V30  1  0.25015084  0.74698601  0.00724271  1
  V  V31  1  0.12517735  0.49685004  0.12902054  1
  V  V32  1  0.87744001  -0.00775332  0.87581591  1
  V  V33  1  0.12546449  0.24607794  0.37179644  1
  V  V34  1  0.88394725  0.62485370  0.24598226  1
  V  V35  1  0.73839693  0.75201383  0.48949775  1
  V  V36  1  0.13194084  0.36976480  0.24267548  1
  V  V37  1  0.50350647  -0.00026769  0.00007151  1
  V  V38  1  0.88231246  0.63157338  0.74677145  1
  V  V39  1  0.74451677  0.62788257  0.36940994  1
  V  V40  1  0.37602434  0.87488033  0.00221918  1
  V  V41  1  0.12191203  0.37985011  0.74796364  1
  V  V42  1  -0.00079390  0.50224450  0.00715242  1
  V  V43  1  0.62722895  0.24566583  0.37937723  1
  V  V44  1  0.24716373  0.62446079  0.37738813  1
  V  V45  1  0.24895834  0.89131245  0.12934461  1
  V  V46  1  0.87106264  0.37523904  0.00627150  1
  V  V47  1  0.62827480  0.48700824  0.12907962  1
  V  V48  1  0.37697127  0.74404381  0.63876726  1
  V  V49  1  0.50751911  0.25141267  0.25006934  1
  V  V50  1  -0.00369394  0.87950534  0.37041011  1
  V  V51  1  -0.00187460  0.37200834  0.86889739  1
  V  V52  1  0.75154336  0.11341527  0.37394483  1
  V  V53  1  0.62022202  0.86773822  0.74846607  1
  V  V54  1  0.74940993  0.62611609  0.87582860  1
  V  V55  1  0.87300906  0.11332721  0.25102406  1
  V  V56  1  0.12655987  0.74998969  0.37142314  1
  V  V57  1  0.24548122  0.38025538  0.62376288  1
  V  V58  1  0.12068745  0.24832333  0.86904044  1
  V  V59  1  0.37828237  0.37354615  0.49918747  1
  V  V60  1  0.50673490  0.37573686  0.37286434  1
  V  V61  1  0.74955106  0.25249978  0.00509694  1
  V  V62  1  0.25338862  0.49300867  0.24426338  1
  V  V63  1  0.37751118  0.62568100  0.25194307  1
  V  V64  1  0.12387067  0.11693179  0.49911500  1
  V  V65  1  -0.00113668  0.12477566  0.62839728  1
  V  V66  1  0.74955697  0.00017121  0.74916995  1
  V  V67  1  0.25197984  0.24729210  0.49864990  1
  V  V68  1  0.74634654  0.50167581  0.74500368  1
  V  V69  1  0.37070428  0.86803970  0.50464553  1
  V  V70  1  0.62766172  0.62434868  0.00196351  1
  V  V71  1  0.87914063  0.49755777  0.37998041  1
  V  V72  1  0.13734996  -0.00855671  0.63939936  1
  V  V73  1  0.37078042  0.25476455  0.12519063  1
  V  V74  1  0.62538699  0.37535788  0.74794643  1
  V  V75  1  0.87975070  0.74595001  0.12251557  1
  V  V76  1  0.75346598  0.75736098  -0.00082058  1
  V  V77  1  0.25109051  0.50511774  0.75185644  1
  V  V78  1  0.12069602  0.75615281  0.88090342  1
  V  V79  1  0.11702997  0.12138943  0.00989075  1
  V  V80  1  -0.00073881  -0.00518606  0.00788204  1
  V  V81  1  0.87517778  0.50176461  0.87546762  1
  V  V82  1  0.87833950  0.13082189  0.74882897  1
  V  V83  1  0.75446375  0.88042152  0.13322039  1
  V  V84  1  0.61366022  0.86675294  0.25355110  1
  Zn  Zn85  1  0.37133153  0.11737557  0.74532479  1
  Zn  Zn86  1  0.63848912  0.00404294  0.13342471  1
  Zn  Zn87  1  0.62117261  0.74498020  0.87112593  1
  Zn  Zn88  1  0.88456452  0.37737027  0.50396000  1
  Zn  Zn89  1  0.24618173  0.74513454  0.50175139  1
  Zn  Zn90  1  0.88188734  0.25622290  0.62900269  1
  Zn  Zn91  1  0.49940824  0.37223974  0.87627659  1
  Zn  Zn92  1  0.00511567  0.74767920  0.24152555  1
  Zn  Zn93  1  0.62422344  0.24916542  0.87567815  1
  Zn  Zn94  1  0.38696163  0.62604756  0.75725077  1
  Zn  Zn95  1  0.51157988  0.63297274  0.63505746  1
  Zn  Zn96  1  0.03129925  0.75697461  0.72150046  1
  Zn  Zn97  1  0.03700671  0.63313079  0.60140382  1
  Zn  Zn98  1  -0.00451180  -0.00228404  0.49953826  1
  Zn  Zn99  1  0.50355904  0.12722593  0.62073208  1
  Zn  Zn100  1  0.50280917  0.84008474  0.37275279  1
  Zn  Zn101  1  0.00722745  0.37891477  0.38134258  1
  Zn  Zn102  1  0.05462046  0.46767939  0.55349440  1
  Zn  Zn103  1  0.37762831  0.49806463  0.37517970  1
  Zn  Zn104  1  0.24851100  0.62483461  0.87676798  1
  Zn  Zn105  1  0.00293913  0.87541433  0.86401346  1
  Zn  Zn106  1  0.36750684  0.37593734  0.00479216  1
  Zn  Zn107  1  0.18922079  0.18116686  0.18661813  1
  Zn  Zn108  1  0.18461724  0.18751015  0.68575020  1
  Zn  Zn109  1  0.18731074  0.68701196  0.19239469  1
  Zn  Zn110  1  0.18795016  0.79561090  0.67858232  1
  Zn  Zn111  1  0.69075441  0.18727678  0.18807320  1
  Zn  Zn112  1  0.69088126  0.18934591  0.68745640  1
  Zn  Zn113  1  0.69216835  0.68734332  0.18674138  1
  Zn  Zn114  1  0.69173585  0.68723625  0.68475852  1
  Zn  Zn115  1  0.31616867  0.30834550  0.31264740  1
  Zn  Zn116  1  0.30924579  0.31319665  0.81433830  1
  Zn  Zn117  1  0.31018673  0.81417623  0.31032043  1
  Zn  Zn118  1  0.30589274  0.81574512  0.81529396  1
  Zn  Zn119  1  0.81267589  0.31181648  0.31447141  1
  Zn  Zn120  1  0.81087298  0.31273192  0.81561159  1
  Zn  Zn121  1  0.81133736  0.81207479  0.30690278  1
  Zn  Zn122  1  0.80819542  0.81410981  0.81065788  1
  Zn  Zn123  1  0.19406957  0.43299128  0.42876058  1
  Zn  Zn124  1  0.18476990  0.43690637  0.93657720  1
  Zn  Zn125  1  0.18768142  0.93388025  0.43320718  1
  Zn  Zn126  1  0.18961810  0.93843170  0.94213101  1
  Zn  Zn127  1  0.68847354  0.43693339  0.43458880  1
  Zn  Zn128  1  0.68654064  0.43755396  0.93422540  1
  Zn  Zn129  1  0.68153372  0.93588027  0.43248674  1
  Zn  Zn130  1  0.68805309  0.93650118  0.93635636  1
  Zn  Zn131  1  0.31410851  0.06919711  0.05356482  1
  Zn  Zn132  1  0.31298077  0.05770050  0.55813056  1
  Zn  Zn133  1  0.31232878  0.56146679  0.06558920  1
  Zn  Zn134  1  0.31673709  0.56255481  0.56244359  1
  Zn  Zn135  1  0.81928771  0.06447545  0.06184958  1
  Zn  Zn136  1  0.81023299  0.06376853  0.56141011  1
  Zn  Zn137  1  0.81071858  0.56346011  0.06472634  1
  Zn  Zn138  1  0.81172584  0.56590982  0.56044456  1
  Zn  Zn139  1  0.44163959  0.43668995  0.18796326  1
  Zn  Zn140  1  0.43571100  0.43444808  0.69059267  1
  Zn  Zn141  1  0.44189321  0.93539147  0.18730650  1
  Zn  Zn142  1  0.43854502  0.93306064  0.68542601  1
  Zn  Zn143  1  0.93969332  0.43660286  0.19346244  1
  Zn  Zn144  1  0.93803580  0.45219720  0.68340529  1
  Zn  Zn145  1  0.93915860  0.93211115  0.18491068  1
  Zn  Zn146  1  0.94339026  0.93451226  0.68579607  1
  Zn  Zn147  1  0.05604805  0.06229383  0.31018327  1
  Zn  Zn148  1  0.06028687  0.06075737  0.81363436  1
  Zn  Zn149  1  0.06323285  0.57147127  0.41830312  1
  Zn  Zn150  1  0.06256358  0.56627912  0.81465736  1
  Zn  Zn151  1  0.56704393  0.05785242  0.30882907  1
  Zn  Zn152  1  0.56195560  0.06032078  0.81144044  1
  Zn  Zn153  1  0.56373787  0.56581695  0.31547618  1
  Zn  Zn154  1  0.56309712  0.56061981  0.81393943  1
  Zn  Zn155  1  0.43881407  0.18513386  0.43657981  1
  Zn  Zn156  1  0.43468934  0.18632662  0.93648585  1
  Zn  Zn157  1  0.44230759  0.68172565  0.43863745  1
  Zn  Zn158  1  0.43734347  0.68275075  0.94233123  1
  Zn  Zn159  1  0.93671972  0.18699586  0.43583791  1
  Zn  Zn160  1  0.93651032  0.18463350  0.93605871  1
  Zn  Zn161  1  0.93378655  0.69615575  0.43543198  1
  Zn  Zn162  1  0.93676274  0.68651409  0.93931991  1
  Zn  Zn163  1  0.05910428  0.31113517  0.06088331  1
  Zn  Zn164  1  0.06345672  0.30098792  0.56091183  1
  Zn  Zn165  1  0.06301617  0.81958093  0.06193258  1
  Zn  Zn166  1  0.06243282  0.80757715  0.55718855  1
  Zn  Zn167  1  0.56131937  0.30920644  0.06408245  1
  Zn  Zn168  1  0.56673586  0.31141774  0.56271959  1
  Zn  Zn169  1  0.56958005  0.81315327  0.06434118  1
  Zn  Zn170  1  0.55572655  0.81521267  0.55832420  1
  O  O171  1  0.12699177  0.12651269  0.10844610  1
  O  O172  1  0.11887800  0.11967826  0.61719223  1
  O  O173  1  0.12730484  0.61312268  0.11831796  1
  O  O174  1  0.10628503  0.72290464  0.63337436  1
  O  O175  1  0.62051806  0.12253057  0.11884687  1
  O  O176  1  0.62544409  0.11055693  0.63035832  1
  O  O177  1  0.61828495  0.61728769  0.12182402  1
  O  O178  1  0.62930588  0.62766484  0.60845099  1
  O  O179  1  0.38734819  0.37081714  0.38168240  1
  O  O180  1  0.37599930  0.38441587  0.88132396  1
  O  O181  1  0.38015338  0.88355783  0.37471280  1
  O  O182  1  0.38124586  0.87963344  0.88223173  1
  O  O183  1  0.87567744  0.38864045  0.37514864  1
  O  O184  1  0.88168776  0.37981536  0.88204769  1
  O  O185  1  0.88290892  0.86622887  0.37984121  1
  O  O186  1  0.87024660  0.88965794  0.87211539  1
  O  O187  1  0.26403420  0.00969345  0.37877824  1
  O  O188  1  0.26024118  0.00875565  0.88466878  1
  O  O189  1  0.25538966  0.50553240  0.35899001  1
  O  O190  1  0.25777242  0.49760148  0.87142681  1
  O  O191  1  0.74627975  0.01534842  0.37889835  1
  O  O192  1  0.75680552  0.00562101  0.87150069  1
  O  O193  1  0.75523253  0.50509863  0.36183616  1
  O  O194  1  0.75686159  0.50469712  0.86690777  1
  O  O195  1  0.24125573  0.50049949  0.13411216  1
  O  O196  1  0.25878528  0.48632574  0.63272530  1
  O  O197  1  0.25978099  0.98977346  0.11606220  1
  O  O198  1  0.23576326  1.01050194  0.62467627  1
  O  O199  1  0.74279451  0.50332299  0.13724495  1
  O  O200  1  0.75635500  0.49155272  0.63553359  1
  O  O201  1  0.75597604  0.98367013  0.11307794  1
  O  O202  1  0.74032281  0.99610974  0.62718065  1
  O  O203  1  0.01134161  0.36438524  0.25348757  1
  O  O204  1  0.00611880  0.38533709  0.76103174  1
  O  O205  1  0.00876841  0.87293958  0.25354303  1
  O  O206  1  -0.00748955  0.85866093  0.75183033  1
  O  O207  1  0.49316623  0.36200326  0.26060201  1
  O  O208  1  0.50949150  0.36554838  0.74937387  1
  O  O209  1  0.50861858  0.86789535  0.24782106  1
  O  O210  1  0.50859249  0.87923697  0.76128826  1
  O  O211  1  0.49305648  0.13278793  0.24518705  1
  O  O212  1  0.49639980  0.13549339  0.74697299  1
  O  O213  1  0.49124169  0.61416934  0.23815402  1
  O  O214  1  0.49885269  0.61585598  0.74516951  1
  O  O215  1  0.98460283  0.13701994  0.25767483  1
  O  O216  1  0.98893294  0.11953697  0.74146233  1
  O  O217  1  0.98282848  0.62702074  0.25269663  1
  O  O218  1  0.98610791  0.63706348  0.75700379  1
  O  O219  1  0.36577937  0.24805086  0.00781690  1
  O  O220  1  0.37244748  0.25272786  0.50771869  1
  O  O221  1  0.36878732  0.75252435  0.01079933  1
  O  O222  1  0.37662520  0.76357258  0.49275966  1
  O  O223  1  0.87078819  0.25435850  0.00709486  1
  O  O224  1  0.86453669  0.25583898  0.49915111  1
  O  O225  1  0.86262900  0.74091844  0.00817624  1
  O  O226  1  0.85660511  0.75862787  0.50226524  1
  O  O227  1  0.13244668  0.23602626  0.49293197  1
  O  O228  1  0.12723335  0.24105261  0.99232155  1
  O  O229  1  0.13397271  0.76494882  0.47452921  1
  O  O230  1  0.13247506  0.74059839  1.00436259  1
  O  O231  1  0.63665173  0.24990103  0.49077226  1
  O  O232  1  0.63347418  0.24501536  1.00009624  1
  O  O233  1  0.63372253  0.74420648  0.50045494  1
  O  O234  1  0.63533714  0.74078961  1.00024177  1
  O  O235  1  0.49364622  0.24320210  0.13195883  1
  O  O236  1  0.49230645  0.24968060  0.63126795  1
  O  O237  1  0.49125865  0.73851451  0.11544904  1
  O  O238  1  0.48314723  0.74985421  0.61678363  1
  O  O239  1  0.98938131  0.25235085  0.13414193  1
  O  O240  1  0.99781353  0.23134217  0.62168176  1
  O  O241  1  0.98429899  0.75911994  0.12085085  1
  O  O242  1  0.96741577  0.75236337  0.61099689  1
  O  O243  1  0.00701978  0.25160579  0.36567444  1
  O  O244  1  0.00791917  0.26092053  0.88131012  1
  O  O245  1  0.00846044  0.76172128  0.36792857  1
  O  O246  1  0.01569386  0.75273664  0.89110630  1
  O  O247  1  0.50798741  0.25206867  0.37018410  1
  O  O248  1  0.49962950  0.25146564  0.86524658  1
  O  O249  1  0.50587288  0.73002292  0.36526918  1
  O  O250  1  0.50018318  0.76233236  0.88544930  1
  O  O251  1  0.24456085  0.12802195  0.48914045  1
  O  O252  1  0.23744303  0.13294656  0.98936817  1
  O  O253  1  0.26163501  0.62426895  0.48075887  1
  O  O254  1  0.24168540  0.63090037  1.00485682  1
  O  O255  1  0.75970244  0.13494048  0.48398378  1
  O  O256  1  0.74692701  0.13279466  0.99670100  1
  O  O257  1  0.74369389  0.63184472  0.49057843  1
  O  O258  1  0.74524728  0.62973945  0.99492567  1
  O  O259  1  0.24554333  0.35882891  -0.00267966  1
  O  O260  1  0.25601935  0.36768583  0.50553910  1
  O  O261  1  0.25612775  0.86630198  0.01067284  1
  O  O262  1  0.26879248  0.87605197  0.49097463  1
  O  O263  1  0.76208655  0.36706426  -0.00838756  1
  O  O264  1  0.74982437  0.36908383  0.50918311  1
  O  O265  1  0.74254884  0.86307784  0.00808745  1
  O  O266  1  0.75124143  0.86927236  0.49805039  1
  O  O267  1  0.13561139  0.48644164  0.24056814  1
  O  O268  1  0.13533484  0.48782843  0.76208094  1
  O  O269  1  0.12151990  0.99073186  0.24964510  1
  O  O270  1  0.12364363  1.00398618  0.73796887  1
  O  O271  1  0.63809319  0.50490986  0.24432707  1
  O  O272  1  0.63833875  0.48938784  0.75634976  1
  O  O273  1  0.61877774  0.98309535  0.24292910  1
  O  O274  1  0.62850336  0.99093691  0.74201090  1
  O  O275  1  0.38524211  0.01146438  0.25635970  1
  O  O276  1  0.38296846  -0.00110709  0.76433138  1
  O  O277  1  0.36893444  0.50648576  0.24597224  1
  O  O278  1  0.36764631  0.49350224  0.76228581  1
  O  O279  1  0.88064955  0.01552384  0.24372187  1
  O  O280  1  0.86867262  0.00763895  0.75585742  1
  O  O281  1  0.86336588  0.50435717  0.25279651  1
  O  O282  1  0.86646528  0.51167722  0.75607201  1
  O  O283  1  0.12783261  0.36325292  0.36026850  1
  O  O284  1  0.11673927  0.36789763  0.86966524  1
  O  O285  1  0.12077256  0.87155219  0.36189186  1
  O  O286  1  0.12868429  0.85899042  0.88771808  1
  O  O287  1  0.61507004  0.36226515  0.37761469  1
  O  O288  1  0.62398292  0.37068198  0.86220964  1
  O  O289  1  0.62091120  0.87596937  0.35865524  1
  O  O290  1  0.61689122  0.87401488  0.86643860  1
  O  O291  1  0.38055013  0.13191778  0.13046164  1
  O  O292  1  0.37159962  0.13750040  0.62608777  1
  O  O293  1  0.38326700  0.63037954  0.13137259  1
  O  O294  1  0.37969423  0.63594228  0.62662154  1
  O  O295  1  0.86748965  0.13726021  0.14044995  1
  O  O296  1  0.88157594  0.12227815  0.63224714  1
  O  O297  1  0.86734265  0.63492063  0.13303844  1
  O  O298  1  0.86282044  0.63408799  0.63556922  1
  O  O299  1  0.25999759  0.24000479  0.11602029  1
  O  O300  1  0.25591118  0.25821311  0.62037979  1
  O  O301  1  0.26011886  0.75191044  0.11907611  1
  O  O302  1  0.27519431  0.75099963  0.61248527  1
  O  O303  1  0.75868222  0.24887797  0.11312937  1
  O  O304  1  0.75387219  0.25708524  0.61596235  1
  O  O305  1  0.75772512  0.75876135  0.11697822  1
  O  O306  1  0.75050750  0.75810543  0.61080791  1
  O  O307  1  0.24713250  0.23760798  0.37841517  1
  O  O308  1  0.24084931  0.24316721  0.88327434  1
  O  O309  1  0.24519301  0.73999091  0.36944058  1
  O  O310  1  0.24593291  0.74698942  0.89606416  1
  O  O311  1  0.74273227  0.24895076  0.38130374  1
  O  O312  1  0.75117899  0.24317846  0.88833797  1
  O  O313  1  0.75513951  0.73938984  0.37971455  1
  O  O314  1  0.74827036  0.74491713  0.88355472  1
  O  O315  1  0.01229717  0.12082843  -0.00447786  1
  O  O316  1  0.00817047  0.12140304  0.50303385  1
  O  O317  1  0.00635793  0.60955952  -0.00247702  1
  O  O318  1  0.00044687  0.62910758  0.49356180  1
  O  O319  1  0.50540048  0.11876279  0.00262395  1
  O  O320  1  0.49317432  0.10993184  0.50302256  1
  O  O321  1  0.50525968  0.61311581  0.01057285  1
  O  O322  1  0.50889815  0.61167659  0.50388679  1
  O  O323  1  0.49943732  0.37779743  0.49297018  1
  O  O324  1  0.49897912  0.38577480  1.00068110  1
  O  O325  1  0.48990999  0.88420149  0.48890071  1
  O  O326  1  0.49736403  0.88199935  0.99484451  1
  O  O327  1  1.00238359  0.37629903  0.50034920  1
  O  O328  1  0.99213095  0.38238052  0.99069875  1
  O  O329  1  0.98818727  0.87296031  0.48936497  1
  O  O330  1  1.00761507  0.89279209  0.99151535  1
  O  O331  1  0.50098066  0.48802415  0.37956106  1
  O  O332  1  0.49260052  0.49759783  0.88731134  1
  O  O333  1  0.48989775  1.00657689  0.38166401  1
  O  O334  1  0.49383162  0.99198912  0.88394277  1
  O  O335  1  0.98112076  0.49990526  0.36797184  1
  O  O336  1  0.99534622  0.49196647  0.88485052  1
  O  O337  1  1.00396166  0.98448651  0.37827851  1
  O  O338  1  0.99165666  0.99720405  0.87879901  1
  O  O339  1  -0.00719031  -0.00218373  0.10697109  1
  O  O340  1  0.01055293  0.00952299  0.61972798  1
  O  O341  1  0.00990507  0.49137933  0.11612547  1
  O  O342  1  0.01240535  0.52443132  0.63792257  1
  O  O343  1  0.49478995  0.00542336  0.10989135  1
  O  O344  1  0.50566714  0.00031352  0.61714942  1
  O  O345  1  0.50726466  0.50639465  0.11965166  1
  O  O346  1  0.49779355  0.49274207  0.61317517  1
  O  O347  1  0.24471056  0.37912371  0.25354173  1
  O  O348  1  0.24186041  0.38014238  0.74251954  1
  O  O349  1  0.24267089  0.87501365  0.23995877  1
  O  O350  1  0.24096260  0.86675139  0.74530978  1
  O  O351  1  0.75139449  0.38831822  0.25178092  1
  O  O352  1  0.74647601  0.38089317  0.74415396  1
  O  O353  1  0.74448096  0.87611946  0.23675968  1
  O  O354  1  0.74015721  0.88245638  0.74216462  1
  O  O355  1  0.26171040  0.12848339  0.25848156  1
  O  O356  1  0.25161446  0.13361884  0.76410235  1
  O  O357  1  0.26022070  0.61473292  0.25278992  1
  O  O358  1  0.25714316  0.60692694  0.75485082  1
  O  O359  1  0.76184614  0.13049687  0.26072461  1
  O  O360  1  0.75613548  0.11853894  0.75494306  1
  O  O361  1  0.75592368  0.61916124  0.25683836  1
  O  O362  1  0.75245610  0.61697566  0.75576109  1
  O  O363  1  0.36951326  0.11866547  0.36722742  1
  O  O364  1  0.36566911  0.11618767  0.87473955  1
  O  O365  1  0.36853194  0.62080241  0.36217081  1
  O  O366  1  0.37167048  0.61071408  0.87876068  1
  O  O367  1  0.86378638  0.13004893  0.36217517  1
  O  O368  1  0.87067912  0.11804261  0.86647616  1
  O  O369  1  0.86366504  0.61470022  0.36687864  1
  O  O370  1  0.86904909  0.62185195  0.86719342  1
  O  O371  1  0.12248751  0.37911045  0.13337440  1
  O  O372  1  0.13249082  0.36933083  0.63277680  1
  O  O373  1  0.13756701  0.87160712  0.13226838  1
  O  O374  1  0.12458043  0.89113514  0.61629537  1
  O  O375  1  0.61972092  0.38776279  0.12449282  1
  O  O376  1  0.63844690  0.36886150  0.63699558  1
  O  O377  1  0.63749311  0.87830070  0.13051724  1
  O  O378  1  0.62603508  0.88251449  0.63057185  1
  O  O379  1  0.11891568  0.25032020  0.24955350  1
  O  O380  1  0.12988822  0.26291151  0.76107737  1
  O  O381  1  0.12395990  0.76009245  0.25473309  1
  O  O382  1  0.13378766  0.73591194  0.78394467  1
  O  O383  1  0.61345484  0.24480697  0.25647934  1
  O  O384  1  0.61700412  0.25606828  0.75061627  1
  O  O385  1  0.63155050  0.76714761  0.23962602  1
  O  O386  1  0.63229027  0.76368313  0.74983385  1
  O  O387  1  0.38350230  0.23869867  0.24434119  1
  O  O388  1  0.38262809  0.25361672  0.74215993  1
  O  O389  1  0.36888274  0.73887462  0.23782013  1
  O  O390  1  0.37306814  0.74846339  0.74132081  1
  O  O391  1  0.88159465  0.25206893  0.24243392  1
  O  O392  1  0.86687263  0.23549521  0.74921981  1
  O  O393  1  0.87412188  0.74142721  0.23925542  1
  O  O394  1  0.85863161  0.74133812  0.73790784  1
  O  O395  1  0.38668848  0.49121978  0.49680524  1
  O  O396  1  0.38222823  0.49728120  0.99823810  1
  O  O397  1  0.38233324  0.98914168  0.49253644  1
  O  O398  1  0.38456193  0.99578821  0.98992049  1
  O  O399  1  0.86455185  0.49991824  0.48277824  1
  O  O400  1  0.88001110  0.49389335  0.99828860  1
  O  O401  1  0.87163920  0.98386752  0.50303987  1
  O  O402  1  0.89099974  1.01369357  0.98781968  1
  O  O403  1  0.11442617  0.01408563  -0.00806861  1
  O  O404  1  0.12745869  0.01106446  0.50071866  1
  O  O405  1  0.11942954  0.50198270  0.00895764  1
  O  O406  1  0.12996604  0.50507050  0.48300923  1
  O  O407  1  0.61588645  0.00507407  0.00046687  1
  O  O408  1  0.61395969  -0.00916437  0.50950509  1
  O  O409  1  0.62019921  0.50343541  0.00755724  1
  O  O410  1  0.61813174  0.50627937  0.49530422  1
  O  O411  1  0.38030025  0.35884395  0.12551640  1
  O  O412  1  0.36675866  0.36420997  0.62028308  1
  O  O413  1  0.37009458  0.86652193  0.12289889  1
  O  O414  1  0.38140564  0.86686755  0.60999304  1
  O  O415  1  0.88070766  0.36723556  0.11303786  1
  O  O416  1  0.86665517  0.37641688  0.62600745  1
  O  O417  1  0.86121382  0.86391425  0.13057649  1
  O  O418  1  0.86274311  0.87009213  0.61490502  1
  O  O419  1  0.13252745  0.12524955  0.37805257  1
  O  O420  1  0.12936073  0.13352154  0.87785983  1
  O  O421  1  0.13780199  0.63736100  0.36108280  1
  O  O422  1  0.12747747  0.62807330  0.89511934  1
  O  O423  1  0.64048059  0.13419308  0.36638939  1
  O  O424  1  0.63225725  0.12525716  0.88112031  1
  O  O425  1  0.63799861  0.61895510  0.38493298  1
  O  O426  1  0.63137761  0.62464651  0.88366001  1
