# generated using pymatgen
data_V85Zn86O256
_symmetry_space_group_name_H-M   'P 1'
_cell_length_a   16.95735580
_cell_length_b   16.98116567
_cell_length_c   16.98811597
_cell_angle_alpha   90.02500709
_cell_angle_beta   90.27302970
_cell_angle_gamma   89.95584568
_symmetry_Int_Tables_number   1
_chemical_formula_structural   V85Zn86O256
_chemical_formula_sum   'V85 Zn86 O256'
_cell_volume   4891.76683390
_cell_formula_units_Z   1
loop_
 _symmetry_equiv_pos_site_id
 _symmetry_equiv_pos_as_xyz
  1  'x, y, z'
loop_
 _atom_site_type_symbol
 _atom_site_label
 _atom_site_symmetry_multiplicity
 _atom_site_fract_x
 _atom_site_fract_y
 _atom_site_fract_z
 _atom_site_occupancy
  V  V0  1  0.49793319  0.74810679  0.74489192  1
  V  V1  1  0.62425207  0.25273530  0.37470790  1
  V  V2  1  0.24952321  0.63235389  0.37792794  1
  V  V3  1  0.49568443  0.37566625  0.88714968  1
  V  V4  1  0.61591689  0.48675917  0.12255579  1
  V  V5  1  0.62726654  0.37680438  0.74836133  1
  V  V6  1  0.25177616  0.49957422  0.75383255  1
  V  V7  1  0.62498058  0.87571971  0.74772080  1
  V  V8  1  0.87433297  0.87065682  0.49878204  1
  V  V9  1  0.12750169  0.63044915  0.50057598  1
  V  V10  1  0.87162655  0.00472422  0.87507011  1
  V  V11  1  0.75226652  0.12272819  0.37679001  1
  V  V12  1  0.00023369  0.00059375  0.49970448  1
  V  V13  1  -0.00612052  0.49796247  0.49841125  1
  V  V14  1  0.12664453  0.00082118  0.62527393  1
  V  V15  1  0.37804868  -0.00598118  0.88548661  1
  V  V16  1  0.87546971  0.75110251  0.62410473  1
  V  V17  1  0.85936605  0.63131753  0.25128285  1
  V  V18  1  0.37412994  0.12380547  0.24866767  1
  V  V19  1  0.50154554  0.24928042  0.74992129  1
  V  V20  1  -0.00072604  0.87574053  0.87600458  1
  V  V21  1  0.75783325  0.24772025  0.01755296  1
  V  V22  1  0.87390956  0.12886611  0.24220392  1
  V  V23  1  0.12417043  0.49974285  0.62685601  1
  V  V24  1  0.50070883  0.86866613  0.88115114  1
  V  V25  1  0.24664521  0.50255103  0.24912257  1
  V  V26  1  0.25678777  0.37747486  0.12153026  1
  V  V27  1  0.87904054  0.12871692  0.75080822  1
  V  V28  1  -0.00015444  0.87583836  0.37464069  1
  V  V29  1  0.12418388  0.75139641  0.37657910  1
  V  V30  1  0.37621130  0.25046366  0.62432962  1
  V  V31  1  0.00071209  0.12817275  0.62668866  1
  V  V32  1  -0.00121886  0.00127469  0.00195979  1
  V  V33  1  0.75077665  0.48575279  0.24839339  1
  V  V34  1  0.75594926  0.25601656  0.50066467  1
  V  V35  1  0.62379529  0.11977316  0.00201190  1
  V  V36  1  -0.00505829  0.62149869  0.12204577  1
  V  V37  1  0.00061349  0.62549472  0.62655263  1
  V  V38  1  0.87805902  0.50077478  0.87703081  1
  V  V39  1  0.61872963  0.88344306  0.24317438  1
  V  V40  1  0.12610696  0.13027570  -0.00621202  1
  V  V41  1  -0.00408538  0.25146325  0.24421495  1
  V  V42  1  0.24951793  0.12500405  0.37550112  1
  V  V43  1  0.62970949  0.61057071  0.00615890  1
  V  V44  1  0.38892224  0.63799299  0.24840762  1
  V  V45  1  0.87820194  0.37547142  0.01318652  1
  V  V46  1  0.38075384  0.00144146  0.38718682  1
  V  V47  1  0.12386690  0.87576848  0.75085433  1
  V  V48  1  0.12269325  0.50390593  0.11659225  1
  V  V49  1  0.12341086  0.87619238  0.24900059  1
  V  V50  1  0.25016019  0.37504501  0.62716254  1
  V  V51  1  0.49683290  0.62577008  0.61953309  1
  V  V52  1  0.37508736  0.62341341  0.74685256  1
  V  V53  1  -0.00921610  0.37819703  0.37858883  1
  V  V54  1  0.64357693  0.73399804  0.86744493  1
  V  V55  1  0.50033077  0.87222758  0.38462540  1
  V  V56  1  0.62229380  0.12210788  0.50158280  1
  V  V57  1  0.12236080  0.36288240  0.75544782  1
  V  V58  1  0.63861170  0.75346571  0.37788964  1
  V  V59  1  0.25778233  0.86196017  0.12232012  1
  V  V60  1  0.75083291  0.87243833  0.61977265  1
  V  V61  1  0.64065182  0.63061980  0.49705797  1
  V  V62  1  0.25403543  0.25357858  -0.00768369  1
  V  V63  1  0.75364523  0.37728231  0.62498885  1
  V  V64  1  -0.00536694  0.74992470  0.24220953  1
  V  V65  1  0.00073009  0.75070079  0.75347578  1
  V  V66  1  0.37709468  0.50122018  0.37481673  1
  V  V67  1  0.86980154  0.62578561  0.75679172  1
  V  V68  1  0.25038937  0.62858327  0.88316125  1
  V  V69  1  0.49786603  0.24959027  0.24982883  1
  V  V70  1  0.49968201  0.12049504  0.62223333  1
  V  V71  1  0.74623396  -0.00320570  0.23913457  1
  V  V72  1  0.74998188  0.00698725  0.75126849  1
  V  V73  1  0.25235773  0.86191052  0.62043624  1
  V  V74  1  0.12474214  0.12620332  0.49979696  1
  V  V75  1  0.37184603  0.86040601  0.50351994  1
  V  V76  1  0.00246972  0.36151416  0.87338693  1
  V  V77  1  0.62286065  0.00076050  0.62388357  1
  V  V78  1  0.63871227  0.24524305  0.87380527  1
  V  V79  1  0.12725558  0.00182831  0.12613413  1
  V  V80  1  0.86250294  0.87345960  0.01279871  1
  V  V81  1  0.25354755  0.00010402  0.75231280  1
  V  V82  1  0.37535702  0.37756142  0.50019640  1
  V  V83  1  0.12477011  0.25374571  0.37481438  1
  V  V84  1  0.88000281  0.25303568  0.62693166  1
  Zn  Zn85  1  0.85995063  0.50588387  0.38272687  1
  Zn  Zn86  1  0.31340263  0.79813426  -0.03738383  1
  Zn  Zn87  1  0.50068811  0.37654673  0.37469880  1
  Zn  Zn88  1  0.37669678  0.12276866  0.75184074  1
  Zn  Zn89  1  0.37831818  0.25309236  0.11976670  1
  Zn  Zn90  1  0.25242032  0.12732022  0.87475619  1
  Zn  Zn91  1  0.13073051  0.75541988  0.88138920  1
  Zn  Zn92  1  0.50358219  0.11709156  0.12630009  1
  Zn  Zn93  1  0.87590507  -0.00006666  0.37513954  1
  Zn  Zn94  1  0.38389821  0.49811071  0.89820098  1
  Zn  Zn95  1  0.74730696  0.50773779  0.75654079  1
  Zn  Zn96  1  0.25232140  -0.00180733  0.25106568  1
  Zn  Zn97  1  0.12240299  0.37733002  0.24793997  1
  Zn  Zn98  1  0.50303680  0.50206590  0.49957827  1
  Zn  Zn99  1  -0.00175767  0.13186071  0.12221309  1
  Zn  Zn100  1  0.76246546  0.73106083  0.03618396  1
  Zn  Zn101  1  0.11831902  0.63315226  0.00108603  1
  Zn  Zn102  1  0.50792269  -0.01967661  0.01650828  1
  Zn  Zn103  1  0.62716410  0.50105671  0.62098238  1
  Zn  Zn104  1  0.62602786  0.36873160  0.24306887  1
  Zn  Zn105  1  0.24956940  0.25126095  0.50055217  1
  Zn  Zn106  1  0.41312058  0.75048508  0.11401589  1
  Zn  Zn107  1  0.18866621  0.19030028  0.18532490  1
  Zn  Zn108  1  0.19040196  0.18635372  0.68730023  1
  Zn  Zn109  1  0.18410403  0.68580723  0.19091121  1
  Zn  Zn110  1  0.18441383  0.68682601  0.69305310  1
  Zn  Zn111  1  0.68596614  0.18317509  0.18695039  1
  Zn  Zn112  1  0.69012356  0.18964227  0.68694533  1
  Zn  Zn113  1  0.61132814  0.70404488  0.17630404  1
  Zn  Zn114  1  0.68620229  0.68943551  0.68235567  1
  Zn  Zn115  1  0.31029132  0.31405236  0.31042988  1
  Zn  Zn116  1  0.31457551  0.31237461  0.81228233  1
  Zn  Zn117  1  0.31256152  0.81658627  0.31301150  1
  Zn  Zn118  1  0.31668273  0.81298156  0.79917957  1
  Zn  Zn119  1  0.81482110  0.31159979  0.31262070  1
  Zn  Zn120  1  0.81658196  0.31570086  0.81288048  1
  Zn  Zn121  1  0.81051679  0.81344564  0.30891446  1
  Zn  Zn122  1  0.81699390  0.81988074  0.80877084  1
  Zn  Zn123  1  0.18546202  0.44087265  0.43808540  1
  Zn  Zn124  1  0.18871899  0.44046161  0.93856375  1
  Zn  Zn125  1  0.19106607  0.93861272  0.43807404  1
  Zn  Zn126  1  0.18708312  0.93976668  0.94061169  1
  Zn  Zn127  1  0.68791215  0.44130949  0.43678644  1
  Zn  Zn128  1  0.69574863  0.42919882  0.93698340  1
  Zn  Zn129  1  0.68860343  0.94022490  0.43765225  1
  Zn  Zn130  1  0.68534501  0.93600131  0.93133573  1
  Zn  Zn131  1  0.31186264  0.06125739  0.06433420  1
  Zn  Zn132  1  0.31086278  0.06068528  0.56360676  1
  Zn  Zn133  1  0.32921496  0.57081670  0.06462295  1
  Zn  Zn134  1  0.31130513  0.56335107  0.56355415  1
  Zn  Zn135  1  0.80696434  0.06331147  0.05921234  1
  Zn  Zn136  1  0.81302448  0.06210577  0.56337157  1
  Zn  Zn137  1  0.80869705  0.55437414  0.06662745  1
  Zn  Zn138  1  0.81469991  0.56277471  0.56911986  1
  Zn  Zn139  1  0.43699122  0.43974247  0.18938597  1
  Zn  Zn140  1  0.44055050  0.44043552  0.68809175  1
  Zn  Zn141  1  0.43751562  0.93611027  0.19166844  1
  Zn  Zn142  1  0.43520637  0.93455110  0.68645105  1
  Zn  Zn143  1  0.93866341  0.44166570  0.19299209  1
  Zn  Zn144  1  0.93914535  0.43885763  0.69216704  1
  Zn  Zn145  1  0.93655416  0.94345175  0.18866599  1
  Zn  Zn146  1  0.93826829  0.94032724  0.68674322  1
  Zn  Zn147  1  0.06141479  0.06427528  0.31192097  1
  Zn  Zn148  1  0.06145190  0.06261733  0.81357769  1
  Zn  Zn149  1  0.05868889  0.56504677  0.31124882  1
  Zn  Zn150  1  0.06030185  0.55684753  0.81682317  1
  Zn  Zn151  1  0.55834378  0.06078740  0.31624507  1
  Zn  Zn152  1  0.56165118  0.06112970  0.81716485  1
  Zn  Zn153  1  0.56925580  0.56320098  0.31362426  1
  Zn  Zn154  1  0.56178752  0.55945619  0.81555049  1
  Zn  Zn155  1  0.43655095  0.18909317  0.43772683  1
  Zn  Zn156  1  0.43770112  0.18549264  0.93468373  1
  Zn  Zn157  1  0.44192086  0.69059925  0.43282652  1
  Zn  Zn158  1  0.45276730  0.67673942  0.93499938  1
  Zn  Zn159  1  0.93804792  0.18949020  0.43649570  1
  Zn  Zn160  1  0.93772974  0.18831988  0.93794994  1
  Zn  Zn161  1  0.93657192  0.68626506  0.43323306  1
  Zn  Zn162  1  0.93185289  0.69290207  0.93964815  1
  Zn  Zn163  1  0.06766634  0.31711369  0.05964357  1
  Zn  Zn164  1  0.06260692  0.31538777  0.56302905  1
  Zn  Zn165  1  0.06230394  0.81311030  0.05876918  1
  Zn  Zn166  1  0.06208626  0.81355672  0.56474925  1
  Zn  Zn167  1  0.56616453  0.30327293  0.06294037  1
  Zn  Zn168  1  0.56296660  0.31154702  0.56183228  1
  Zn  Zn169  1  0.59434869  0.80685669  0.05851612  1
  Zn  Zn170  1  0.55993475  0.81207165  0.55914128  1
  O  O171  1  0.12666851  0.11521111  0.11826510  1
  O  O172  1  0.12055581  0.12157975  0.62031984  1
  O  O173  1  0.11536426  0.61937601  0.12610348  1
  O  O174  1  0.12114668  0.62103177  0.61920021  1
  O  O175  1  0.62513126  0.12820093  0.10740068  1
  O  O176  1  0.61967656  0.12308946  0.61905340  1
  O  O177  1  0.61605180  0.60859230  0.10862908  1
  O  O178  1  0.61926564  0.62571291  0.61089472  1
  O  O179  1  0.37177261  0.38483114  0.38287028  1
  O  O180  1  0.39287135  0.37178698  0.87021120  1
  O  O181  1  0.37962884  0.88234655  0.38303297  1
  O  O182  1  0.38423178  0.87395123  0.87660142  1
  O  O183  1  0.88719463  0.37929700  0.37457960  1
  O  O184  1  0.88930487  0.37880690  0.87543972  1
  O  O185  1  0.87989412  0.87566955  0.38366733  1
  O  O186  1  0.87997671  0.88909594  0.87895542  1
  O  O187  1  0.25830716  0.00735704  0.37252230  1
  O  O188  1  0.25992670  -0.00526760  0.86689284  1
  O  O189  1  0.25642217  0.50876374  0.36890934  1
  O  O190  1  0.25065724  0.50879990  0.86470341  1
  O  O191  1  0.75195079  0.01428435  0.37353245  1
  O  O192  1  0.75899982  -0.00468322  0.86050213  1
  O  O193  1  0.74513901  0.49890536  0.35743989  1
  O  O194  1  0.76947868  0.48600862  0.86937723  1
  O  O195  1  0.24256098  0.49833947  0.13538520  1
  O  O196  1  0.24465716  0.49540682  0.63420688  1
  O  O197  1  0.24181404  0.99015193  0.12764489  1
  O  O198  1  0.24511079  0.99495212  0.63522564  1
  O  O199  1  0.73872055  0.50216606  0.14343383  1
  O  O200  1  0.74965216  0.48752349  0.62776215  1
  O  O201  1  0.74676043  1.00671403  0.14116278  1
  O  O202  1  0.74453719  0.99348161  0.63153137  1
  O  O203  1  0.00171916  0.36876189  0.26050882  1
  O  O204  1  0.00939916  0.37820261  0.76158545  1
  O  O205  1  0.00134043  0.86946959  0.25413360  1
  O  O206  1  0.00419879  0.87234526  0.75442090  1
  O  O207  1  0.50085292  0.36178480  0.25462410  1
  O  O208  1  0.51063996  0.36344335  0.74679818  1
  O  O209  1  0.51435946  0.88786638  0.26758901  1
  O  O210  1  0.50400184  0.86511211  0.75351119  1
  O  O211  1  0.49213194  0.13308397  0.25323796  1
  O  O212  1  0.50372841  0.13555432  0.74165691  1
  O  O213  1  0.48853817  0.62339025  0.25622626  1
  O  O214  1  0.49459762  0.62800749  0.74265718  1
  O  O215  1  0.99032926  0.13355255  0.25102878  1
  O  O216  1  0.98864266  0.11814357  0.74204287  1
  O  O217  1  0.99534458  0.63459385  0.24260541  1
  O  O218  1  0.99403649  0.62999237  0.74538419  1
  O  O219  1  0.35903278  0.24135162  0.00337973  1
  O  O220  1  0.37352393  0.26147871  0.50442820  1
  O  O221  1  0.38642750  0.72889844  0.00586689  1
  O  O222  1  0.37214910  0.76125255  0.49326409  1
  O  O223  1  0.86504637  0.25386153  -0.00101532  1
  O  O224  1  0.86378922  0.24462887  0.50948266  1
  O  O225  1  0.86525572  0.76714887  -0.00120768  1
  O  O226  1  0.88444862  0.76298361  0.50617236  1
  O  O227  1  0.12449242  0.24587424  0.49053486  1
  O  O228  1  0.13626162  0.23876686  1.00692926  1
  O  O229  1  0.11555171  0.73747347  0.49422179  1
  O  O230  1  0.12260628  0.74637243  0.99324671  1
  O  O231  1  0.63433183  0.24171137  0.49451880  1
  O  O232  1  0.64121721  0.24567542  0.99286532  1
  O  O233  1  0.62420196  0.73991454  0.49316140  1
  O  O234  1  0.62791252  0.72759283  0.97248037  1
  O  O235  1  0.49802295  0.24486637  0.13785828  1
  O  O236  1  0.49778649  0.24170846  0.63203491  1
  O  O237  1  0.52137597  0.75747177  0.13042418  1
  O  O238  1  0.50770809  0.73945695  0.63599649  1
  O  O239  1  1.01087068  0.25197289  0.14145134  1
  O  O240  1  0.98767117  0.24592181  0.61756255  1
  O  O241  1  1.00310426  0.74450426  0.13818922  1
  O  O242  1  0.99566412  0.74578343  0.63324433  1
  O  O243  1  0.00593714  0.25849631  0.37030785  1
  O  O244  1  -0.00252082  0.26200615  0.87117053  1
  O  O245  1  0.00454112  0.75651128  0.36485110  1
  O  O246  1  -0.00390519  0.75965530  0.86833364  1
  O  O247  1  0.50962551  0.24886940  0.36904812  1
  O  O248  1  0.50812005  0.25760124  0.86415448  1
  O  O249  1  0.50898540  0.76657809  0.37813225  1
  O  O250  1  0.51257770  0.75212386  0.85988288  1
  O  O251  1  0.24261290  0.12804103  0.49450095  1
  O  O252  1  0.24323364  0.13464865  1.00029259  1
  O  O253  1  0.23894509  0.61785529  0.49059571  1
  O  O254  1  0.25441800  0.62302164  0.98224285  1
  O  O255  1  0.74395331  0.13420123  0.49522925  1
  O  O256  1  0.74152367  0.13791674  1.00012158  1
  O  O257  1  0.73948119  0.62446422  0.50465947  1
  O  O258  1  0.74022244  0.62231081  1.00187858  1
  O  O259  1  0.24064212  0.36026198  0.00625237  1
  O  O260  1  0.25885678  0.37757624  0.50727939  1
  O  O261  1  0.25069989  0.87670782  0.01538867  1
  O  O262  1  0.25662043  0.87894110  0.51016644  1
  O  O263  1  0.76586737  0.35823033  -0.00229539  1
  O  O264  1  0.74317599  0.36521597  0.50960018  1
  O  O265  1  0.76258633  0.88570994  -0.00188323  1
  O  O266  1  0.76147287  0.88488071  0.51043357  1
  O  O267  1  0.13542277  0.50296210  0.24623480  1
  O  O268  1  0.13415795  0.49381787  0.74553981  1
  O  O269  1  0.12473766  0.99617047  0.24185593  1
  O  O270  1  0.13324689  0.99548531  0.74584574  1
  O  O271  1  0.63258367  0.49692422  0.24181223  1
  O  O272  1  0.62829412  0.48695397  0.74777580  1
  O  O273  1  0.63794442  0.99570010  0.26346521  1
  O  O274  1  0.63251526  0.99720605  0.74559727  1
  O  O275  1  0.37418822  0.01062279  0.26393496  1
  O  O276  1  0.36630266  -0.00274091  0.75817978  1
  O  O277  1  0.36645435  0.50918361  0.25819967  1
  O  O278  1  0.36410494  0.50501345  0.74920250  1
  O  O279  1  0.86183964  0.00752531  0.25507082  1
  O  O280  1  0.86901806  0.00735997  0.75444472  1
  O  O281  1  0.86076473  0.50540745  0.25175882  1
  O  O282  1  0.87540109  0.51088808  0.75619978  1
  O  O283  1  0.11841481  0.36708394  0.37442503  1
  O  O284  1  0.11059857  0.38287026  0.87113303  1
  O  O285  1  0.12018079  0.87153009  0.37056490  1
  O  O286  1  0.11756952  0.87914932  0.86866367  1
  O  O287  1  0.62444666  0.36055669  0.37608592  1
  O  O288  1  0.61869275  0.36577446  0.86563053  1
  O  O289  1  0.61864588  0.86815660  0.38542474  1
  O  O290  1  0.61951394  0.86661547  0.86378427  1
  O  O291  1  0.37098592  0.12856113  0.14112074  1
  O  O292  1  0.38450047  0.12988886  0.62543340  1
  O  O293  1  0.36877182  0.63564174  0.14614443  1
  O  O294  1  0.38297250  0.61883048  0.63538990  1
  O  O295  1  0.87601947  0.11935907  0.13865046  1
  O  O296  1  0.87997362  0.13212113  0.63105999  1
  O  O297  1  0.88216935  0.61438345  0.14105063  1
  O  O298  1  0.88319055  0.63213412  0.63222425  1
  O  O299  1  0.25107937  0.26176230  0.11924813  1
  O  O300  1  0.25803847  0.25708386  0.62388641  1
  O  O301  1  0.24060382  0.76351501  0.12845759  1
  O  O302  1  0.24518553  0.76297055  0.63306466  1
  O  O303  1  0.75011636  0.24961139  0.11638916  1
  O  O304  1  0.75765542  0.25628530  0.61758848  1
  O  O305  1  0.69175598  0.76179228  0.11352921  1
  O  O306  1  0.75698638  0.76629120  0.63029396  1
  O  O307  1  0.23956940  0.24658204  0.37609998  1
  O  O308  1  0.25242519  0.25023932  0.88818745  1
  O  O309  1  0.24161868  0.73872261  0.36896592  1
  O  O310  1  0.25623518  0.73920891  0.87088568  1
  O  O311  1  0.74464492  0.24299579  0.38117550  1
  O  O312  1  0.74116213  0.25372245  0.87493088  1
  O  O313  1  0.73785492  0.75852795  0.38082007  1
  O  O314  1  0.74099751  0.75844554  0.86562182  1
  O  O315  1  0.00734793  0.12173476  0.00309791  1
  O  O316  1  0.00464816  0.12056221  0.50536027  1
  O  O317  1  -0.00851569  0.63203298  0.01877870  1
  O  O318  1  0.00863186  0.61838623  0.50462632  1
  O  O319  1  0.51694073  0.13498768  0.00158043  1
  O  O320  1  0.51086340  0.13456121  0.51120680  1
  O  O321  1  0.53600240  0.60491879  -0.03640359  1
  O  O322  1  0.50160105  0.62656610  0.50947806  1
  O  O323  1  0.48867585  0.37794822  0.49891212  1
  O  O324  1  0.50670977  0.36419239  0.98505547  1
  O  O325  1  0.48764106  0.87530975  0.49649373  1
  O  O326  1  0.52097918  0.86813205  0.98363193  1
  O  O327  1  1.00679447  0.38788634  0.49243421  1
  O  O328  1  0.98824918  0.36526926  0.98831449  1
  O  O329  1  0.99367993  0.88098440  0.49574001  1
  O  O330  1  0.98705379  0.88275790  0.99542800  1
  O  O331  1  0.48790669  0.49895899  0.37501206  1
  O  O332  1  0.50020843  0.47916812  0.86638556  1
  O  O333  1  0.49017805  0.99239756  0.37848844  1
  O  O334  1  0.49297364  0.98443898  0.87204476  1
  O  O335  1  1.00311255  0.49274819  0.38258568  1
  O  O336  1  0.98674813  0.49121333  0.87609728  1
  O  O337  1  0.99877942  0.99411518  0.38083954  1
  O  O338  1  0.99087353  0.99557498  0.88089993  1
  O  O339  1  0.01103133  0.00340049  0.12070709  1
  O  O340  1  0.00708312  0.00645461  0.61965593  1
  O  O341  1  0.01246872  0.50957454  0.13644233  1
  O  O342  1  0.00441275  0.50448137  0.61816346  1
  O  O343  1  0.48797087  0.00553125  0.12163225  1
  O  O344  1  0.50624365  0.01334680  0.63502005  1
  O  O345  1  0.51618589  0.49402702  0.12993915  1
  O  O346  1  0.50588331  0.51199225  0.62348312  1
  O  O347  1  0.24670700  0.38632664  0.24350639  1
  O  O348  1  0.24465570  0.38279883  0.74856303  1
  O  O349  1  0.24160838  0.87680690  0.24143216  1
  O  O350  1  0.24551687  0.88313501  0.74162233  1
  O  O351  1  0.74866110  0.38181819  0.24994661  1
  O  O352  1  0.74046103  0.37001718  0.73999074  1
  O  O353  1  0.74126192  0.89155813  0.25746422  1
  O  O354  1  0.74727470  0.88746537  0.73810685  1
  O  O355  1  0.25824154  0.12667297  0.25787080  1
  O  O356  1  0.25130916  0.11246558  0.75276703  1
  O  O357  1  0.25441753  0.61851092  0.26108756  1
  O  O358  1  0.25702942  0.61777961  0.75371153  1
  O  O359  1  0.75375448  0.11879427  0.25818606  1
  O  O360  1  0.76065850  0.11389103  0.74038755  1
  O  O361  1  0.76148099  0.62408191  0.24910815  1
  O  O362  1  0.76621148  0.62547120  0.73731623  1
  O  O363  1  0.37107475  0.11974859  0.37212093  1
  O  O364  1  0.37519829  0.11174560  0.87001021  1
  O  O365  1  0.36801500  0.61893700  0.37085031  1
  O  O366  1  0.36808283  0.61719125  0.86220661  1
  O  O367  1  0.86538639  0.12612479  0.36764941  1
  O  O368  1  0.88153434  0.11378402  0.86538157  1
  O  O369  1  0.88304406  0.61982190  0.35679856  1
  O  O370  1  0.88162934  0.61812797  0.86566012  1
  O  O371  1  0.13402328  0.38720501  0.12691150  1
  O  O372  1  0.12933428  0.37984757  0.63446138  1
  O  O373  1  0.13008985  0.88459980  0.12930137  1
  O  O374  1  0.13164512  0.88176563  0.62956891  1
  O  O375  1  0.62588473  0.38221930  0.12421852  1
  O  O376  1  0.63389005  0.37352000  0.63133760  1
  O  O377  1  0.61580098  0.89176527  0.14698596  1
  O  O378  1  0.63127534  0.88016321  0.62636131  1
  O  O379  1  0.11660472  0.24930605  0.26218489  1
  O  O380  1  0.13400125  0.26375188  0.75008181  1
  O  O381  1  0.11407344  0.75615397  0.25720345  1
  O  O382  1  0.11804567  0.75788723  0.75686649  1
  O  O383  1  0.61845731  0.24654460  0.25895446  1
  O  O384  1  0.62057735  0.25515989  0.75399215  1
  O  O385  1  0.62776861  0.77177668  0.27030006  1
  O  O386  1  0.61930772  0.75545009  0.75216352  1
  O  O387  1  0.38330767  0.24112073  0.25600608  1
  O  O388  1  0.38568679  0.24822194  0.74351057  1
  O  O389  1  0.37784613  0.73797782  0.26157968  1
  O  O390  1  0.38748759  0.73681167  0.75186498  1
  O  O391  1  0.88408253  0.24111629  0.25560220  1
  O  O392  1  0.86653308  0.23761651  0.73997163  1
  O  O393  1  0.87988607  0.74067744  0.25272291  1
  O  O394  1  0.88127746  0.74526135  0.74466490  1
  O  O395  1  0.37434813  0.49405624  0.49163815  1
  O  O396  1  0.35761834  0.48716712  1.00379969  1
  O  O397  1  0.37059384  0.99491761  0.49040894  1
  O  O398  1  0.37856389  1.00254029  0.98755504  1
  O  O399  1  0.88893841  0.51001370  0.49817592  1
  O  O400  1  0.86793407  0.48120998  0.99465370  1
  O  O401  1  0.88192503  0.99061317  0.50040240  1
  O  O402  1  0.87707885  0.99805998  0.99198074  1
  O  O403  1  0.11981282  0.00707997  0.00888207  1
  O  O404  1  0.11997278  0.00640349  0.50533584  1
  O  O405  1  0.13155897  0.50961863  0.01327903  1
  O  O406  1  0.11749573  0.51055821  0.50610640  1
  O  O407  1  0.62395434  0.01627547  -0.01241752  1
  O  O408  1  0.63180281  0.01603732  0.50617191  1
  O  O409  1  0.64144040  0.49886924  0.01311084  1
  O  O410  1  0.62195452  0.51707518  0.49550098  1
  O  O411  1  0.36062287  0.37439360  0.13296315  1
  O  O412  1  0.37145372  0.37234500  0.61849590  1
  O  O413  1  0.36136232  0.86346137  0.13760616  1
  O  O414  1  0.36545909  0.87920335  0.61538912  1
  O  O415  1  0.88565632  0.37782099  0.11146762  1
  O  O416  1  0.86577254  0.36482325  0.63617796  1
  O  O417  1  0.87474729  0.88469039  0.11140152  1
  O  O418  1  0.87023694  0.87238725  0.61863742  1
  O  O419  1  0.12788720  0.13397883  0.37999857  1
  O  O420  1  0.12966166  0.11537173  0.88930796  1
  O  O421  1  0.13050710  0.62957236  0.38185668  1
  O  O422  1  0.14120689  0.62448055  0.87274310  1
  O  O423  1  0.63185360  0.13339766  0.38274264  1
  O  O424  1  0.61973354  0.13697596  0.88368530  1
  O  O425  1  0.62022695  0.64160061  0.38539774  1
  O  O426  1  0.64261171  0.63347808  0.85051717  1
