# generated using pymatgen
data_V85Zn86O256
_symmetry_space_group_name_H-M   'P 1'
_cell_length_a   16.92868100
_cell_length_b   16.94362708
_cell_length_c   16.94832354
_cell_angle_alpha   90.05951042
_cell_angle_beta   89.93600883
_cell_angle_gamma   90.01154036
_symmetry_Int_Tables_number   1
_chemical_formula_structural   V85Zn86O256
_chemical_formula_sum   'V85 Zn86 O256'
_cell_volume   4861.33710590
_cell_formula_units_Z   1
loop_
 _symmetry_equiv_pos_site_id
 _symmetry_equiv_pos_as_xyz
  1  'x, y, z'
loop_
 _atom_site_type_symbol
 _atom_site_label
 _atom_site_symmetry_multiplicity
 _atom_site_fract_x
 _atom_site_fract_y
 _atom_site_fract_z
 _atom_site_occupancy
  V  V0  1  0.49952651  0.87539019  0.37565554  1
  V  V1  1  0.37459596  0.00153189  0.37412196  1
  V  V2  1  0.12554110  0.87529952  0.24995625  1
  V  V3  1  0.62123787  0.87606528  0.75101687  1
  V  V4  1  0.87574150  0.12713317  0.74929952  1
  V  V5  1  0.37089105  0.50304364  0.37747619  1
  V  V6  1  0.74241682  0.12456001  0.88021918  1
  V  V7  1  0.87391569  0.01094146  0.37090090  1
  V  V8  1  0.62067011  0.25406321  0.86231443  1
  V  V9  1  0.87616475  0.62662397  0.25130436  1
  V  V10  1  0.37562358  0.50166716  0.88421700  1
  V  V11  1  0.37951136  -0.00287017  0.86383356  1
  V  V12  1  0.37693040  0.13382696  0.24479395  1
  V  V13  1  -0.00166844  0.50113915  0.50320321  1
  V  V14  1  0.36899196  0.62441629  0.25510504  1
  V  V15  1  -0.00593187  0.12746668  0.12782521  1
  V  V16  1  0.86831380  0.37817987  0.50289276  1
  V  V17  1  0.43221534  0.56638514  0.69477653  1
  V  V18  1  0.25057713  0.49635198  0.74843908  1
  V  V19  1  -0.00000611  0.62227064  0.12642477  1
  V  V20  1  0.74338688  0.23640986  0.49530147  1
  V  V21  1  0.12743608  0.49652231  0.12617222  1
  V  V22  1  0.87320331  0.25184473  0.62624681  1
  V  V23  1  0.36269767  0.36532507  0.50393303  1
  V  V24  1  0.25123943  0.75378171  0.00012271  1
  V  V25  1  0.25401388  0.62402237  0.87268171  1
  V  V26  1  0.50026170  0.12772910  0.11204960  1
  V  V27  1  0.25154778  0.36102098  0.12360917  1
  V  V28  1  0.74561975  0.62236129  0.87981933  1
  V  V29  1  0.12730860  0.49427643  0.62610888  1
  V  V30  1  0.12331721  0.36679284  0.25349103  1
  V  V31  1  0.00071840  0.62869798  0.63247293  1
  V  V32  1  0.37259974  0.75073703  0.62952759  1
  V  V33  1  0.11610472  0.13837608  0.49347270  1
  V  V34  1  0.75133565  0.87494783  0.12839257  1
  V  V35  1  0.25028801  0.00112620  0.24962629  1
  V  V36  1  0.12634223  0.62199056  0.00212476  1
  V  V37  1  0.49913860  0.37114337  0.86732606  1
  V  V38  1  0.87432076  0.37011569  0.00221639  1
  V  V39  1  0.50204399  0.37787052  0.37693600  1
  V  V40  1  0.62360458  0.74751039  0.37565318  1
  V  V41  1  0.74172729  0.24687245  0.00233199  1
  V  V42  1  0.11812368  0.75599692  0.87303546  1
  V  V43  1  0.74701123  0.49940109  0.25203864  1
  V  V44  1  0.87490107  0.49790696  0.87308263  1
  V  V45  1  0.87899133  -0.00317701  0.87210238  1
  V  V46  1  0.50617520  0.00726016  0.49914781  1
  V  V47  1  0.12642475  0.36820018  0.75278818  1
  V  V48  1  0.12296709  -0.00022905  0.61606102  1
  V  V49  1  0.36296477  0.25224205  0.63043123  1
  V  V50  1  0.00356937  0.37092828  0.37601875  1
  V  V51  1  -0.00033894  0.87823668  0.37585799  1
  V  V52  1  0.74918528  0.37493932  0.12584499  1
  V  V53  1  0.74598123  0.74595407  0.00084423  1
  V  V54  1  0.62038236  0.75155376  0.87642071  1
  V  V55  1  0.87894659  0.87404133  -0.00392067  1
  V  V56  1  0.13094261  0.74751767  0.37615799  1
  V  V57  1  0.61573724  0.62077759  0.51663159  1
  V  V58  1  0.87776020  0.75187229  0.62621901  1
  V  V59  1  0.38983941  0.88363506  -0.00341384  1
  V  V60  1  0.50571942  0.13251806  0.62909976  1
  V  V61  1  0.13288878  0.13813915  -0.00535709  1
  V  V62  1  0.00347953  0.36408804  0.87471961  1
  V  V63  1  0.24554056  0.14112513  0.37774975  1
  V  V64  1  0.87813208  0.87936888  0.49835128  1
  V  V65  1  0.74960377  0.87509988  0.62533785  1
  V  V66  1  0.36943125  0.87657504  0.50176076  1
  V  V67  1  0.24838769  0.13123459  0.86444699  1
  V  V68  1  0.62482228  0.23466646  0.37461802  1
  V  V69  1  0.62526384  0.50350184  0.11810647  1
  V  V70  1  0.74828070  0.74979058  0.50140877  1
  V  V71  1  0.37664801  0.75004625  0.12372187  1
  V  V72  1  0.87323288  0.50182392  0.37746352  1
  V  V73  1  0.50414792  0.62481989  0.11857120  1
  V  V74  1  0.37284244  0.35746931  0.00607097  1
  V  V75  1  0.00102718  0.49670129  -0.00009471  1
  V  V76  1  0.49364951  0.75318699  0.75040121  1
  V  V77  1  0.00446484  -0.00320107  -0.00598535  1
  V  V78  1  0.74020880  0.49295963  0.74536028  1
  V  V79  1  0.75214806  0.01546363  0.25228873  1
  V  V80  1  0.13096724  0.62566558  0.49747359  1
  V  V81  1  0.74855377  -0.00059853  0.74950406  1
  V  V82  1  0.49955132  0.75139429  0.25041898  1
  V  V83  1  0.12629048  -0.00111020  0.12245452  1
  V  V84  1  0.62183766  0.00391033  0.11194178  1
  Zn  Zn85  1  0.62703588  0.00649020  0.61865451  1
  Zn  Zn86  1  0.62498554  0.87670451  0.25083165  1
  Zn  Zn87  1  0.74752256  0.62421714  0.37893969  1
  Zn  Zn88  1  -0.00559643  0.76546394  0.75916208  1
  Zn  Zn89  1  0.00656235  0.24735716  0.74849647  1
  Zn  Zn90  1  0.00105728  0.75051561  0.24780211  1
  Zn  Zn91  1  0.62151035  0.37591885  0.25164979  1
  Zn  Zn92  1  -0.00645215  0.11902233  0.61143094  1
  Zn  Zn93  1  0.50001383  0.49850281  0.51706133  1
  Zn  Zn94  1  0.86653988  0.24203028  0.13635631  1
  Zn  Zn95  1  0.12287801  0.89486005  0.75884240  1
  Zn  Zn96  1  0.24788080  0.50067676  0.25265980  1
  Zn  Zn97  1  -0.00735104  0.24073143  0.25986100  1
  Zn  Zn98  1  0.49941072  0.25174063  0.24415147  1
  Zn  Zn99  1  0.87705390  0.74979527  0.12484343  1
  Zn  Zn100  1  0.73279434  0.37501544  0.62519525  1
  Zn  Zn101  1  0.37084566  0.12274394  0.74446822  1
  Zn  Zn102  1  0.26014371  0.90380709  0.64899305  1
  Zn  Zn103  1  0.25257675  0.87762673  0.12317336  1
  Zn  Zn104  1  0.25094001  0.75013700  0.50269340  1
  Zn  Zn105  1  0.50322828  0.49861417  0.00148215  1
  Zn  Zn106  1  0.87315311  0.62678418  0.75065449  1
  Zn  Zn107  1  0.18068082  0.18486601  0.18838171  1
  Zn  Zn108  1  0.18701606  0.18071120  0.67912839  1
  Zn  Zn109  1  0.18736180  0.68872283  0.18733948  1
  Zn  Zn110  1  0.18833197  0.68582162  0.69029778  1
  Zn  Zn111  1  0.68072559  0.18867443  0.18727278  1
  Zn  Zn112  1  0.68833214  0.18946973  0.68648157  1
  Zn  Zn113  1  0.68726218  0.68659898  0.18904930  1
  Zn  Zn114  1  0.68954323  0.68677878  0.69286903  1
  Zn  Zn115  1  0.31356436  0.31837231  0.31076634  1
  Zn  Zn116  1  0.31407420  0.31191131  0.81357153  1
  Zn  Zn117  1  0.31257893  0.81325654  0.31301570  1
  Zn  Zn118  1  0.30730672  0.81803769  0.81321899  1
  Zn  Zn119  1  0.81327053  0.31021619  0.31395955  1
  Zn  Zn120  1  0.80913479  0.31304379  0.81476127  1
  Zn  Zn121  1  0.81176968  0.81249808  0.31417167  1
  Zn  Zn122  1  0.81061935  0.81120593  0.81173782  1
  Zn  Zn123  1  0.18697940  0.43688014  0.43690519  1
  Zn  Zn124  1  0.18998359  0.43034292  0.93881801  1
  Zn  Zn125  1  0.18470642  0.94586500  0.44003427  1
  Zn  Zn126  1  0.19630982  0.94174402  0.93230610  1
  Zn  Zn127  1  0.68277555  0.43853720  0.44134579  1
  Zn  Zn128  1  0.68706590  0.43285816  0.93717464  1
  Zn  Zn129  1  0.68966735  0.93785526  0.43499654  1
  Zn  Zn130  1  0.68985740  0.93336969  0.93526829  1
  Zn  Zn131  1  0.31470762  0.06647181  0.05969291  1
  Zn  Zn132  1  0.31201158  0.06973969  0.55828233  1
  Zn  Zn133  1  0.31184253  0.56050045  0.06716382  1
  Zn  Zn134  1  0.30927263  0.55512630  0.55713933  1
  Zn  Zn135  1  0.81152117  0.05899708  0.06046542  1
  Zn  Zn136  1  0.81226067  0.05965273  0.56142096  1
  Zn  Zn137  1  0.81424513  0.56003485  0.06339180  1
  Zn  Zn138  1  0.80822620  0.56729712  0.56485721  1
  Zn  Zn139  1  0.43681322  0.43776395  0.18908974  1
  Zn  Zn140  1  0.56764427  0.42745079  0.69410807  1
  Zn  Zn141  1  0.43774530  0.93969357  0.18525693  1
  Zn  Zn142  1  0.44295223  0.93878596  0.68457611  1
  Zn  Zn143  1  0.93606471  0.43499401  0.18958939  1
  Zn  Zn144  1  0.93776197  0.43709125  0.68977024  1
  Zn  Zn145  1  0.93840683  0.94093454  0.18737717  1
  Zn  Zn146  1  0.94835111  0.93975514  0.68434123  1
  Zn  Zn147  1  0.06288349  0.06097971  0.31495481  1
  Zn  Zn148  1  0.06512552  0.06470415  0.80813249  1
  Zn  Zn149  1  0.06275247  0.55813345  0.31382299  1
  Zn  Zn150  1  0.06564448  0.56112693  0.81506986  1
  Zn  Zn151  1  0.56122564  0.05890689  0.30433430  1
  Zn  Zn152  1  0.55846122  0.06361893  0.81237356  1
  Zn  Zn153  1  0.55712317  0.56396698  0.31244666  1
  Zn  Zn154  1  0.56396419  0.56505507  0.82475104  1
  Zn  Zn155  1  0.43692153  0.18707741  0.43640889  1
  Zn  Zn156  1  0.43785543  0.18144028  0.93084455  1
  Zn  Zn157  1  0.43824845  0.68726688  0.44144951  1
  Zn  Zn158  1  0.43714518  0.68988381  0.93798133  1
  Zn  Zn159  1  0.93091617  0.19203382  0.43728414  1
  Zn  Zn160  1  0.93390814  0.18406444  0.94253150  1
  Zn  Zn161  1  0.94223954  0.68990220  0.43881164  1
  Zn  Zn162  1  0.93504718  0.68313913  0.94040214  1
  Zn  Zn163  1  0.06297456  0.31153019  0.06475242  1
  Zn  Zn164  1  0.06164694  0.31111675  0.56244436  1
  Zn  Zn165  1  0.06343223  0.81078096  0.06299713  1
  Zn  Zn166  1  0.06301340  0.81510072  0.56319908  1
  Zn  Zn167  1  0.56256513  0.31423441  0.05931698  1
  Zn  Zn168  1  0.55561776  0.30813517  0.55542351  1
  Zn  Zn169  1  0.56497322  0.81468585  0.06452506  1
  Zn  Zn170  1  0.55851688  0.81187442  0.56419104  1
  O  O171  1  0.11753274  0.11927720  0.11075912  1
  O  O172  1  0.11885963  0.12317435  0.60779428  1
  O  O173  1  0.12094456  0.61774052  0.12148362  1
  O  O174  1  0.11812154  0.61765038  0.62003599  1
  O  O175  1  0.61748491  0.11107771  0.12755557  1
  O  O176  1  0.61172307  0.12641980  0.62779234  1
  O  O177  1  0.61592783  0.61668303  0.13163416  1
  O  O178  1  0.62487760  0.63205640  0.61567416  1
  O  O179  1  0.38184162  0.38025839  0.38221253  1
  O  O180  1  0.37858060  0.38057515  0.88687999  1
  O  O181  1  0.38042683  0.88010925  0.38182294  1
  O  O182  1  0.37102665  0.88586572  0.88639745  1
  O  O183  1  0.88012396  0.38240855  0.38644744  1
  O  O184  1  0.88122664  0.38109925  0.88027753  1
  O  O185  1  0.88140269  0.87836067  0.38050318  1
  O  O186  1  0.86574462  0.88581455  0.88408764  1
  O  O187  1  0.25407496  0.00700104  0.36302648  1
  O  O188  1  0.26620425  0.01540125  0.88275069  1
  O  O189  1  0.26574406  0.49673951  0.37389131  1
  O  O190  1  0.25833552  0.50449584  0.87059518  1
  O  O191  1  0.75879722  -0.00471568  0.36063970  1
  O  O192  1  0.75735215  0.00700262  0.87129489  1
  O  O193  1  0.75357212  0.50148301  0.36753698  1
  O  O194  1  0.75499267  0.50364948  0.87131356  1
  O  O195  1  0.24316779  0.48840688  0.12649045  1
  O  O196  1  0.23923363  0.50688575  0.63685898  1
  O  O197  1  0.24596221  1.00289775  0.13492928  1
  O  O198  1  0.23497068  1.01120792  0.61755862  1
  O  O199  1  0.74359651  0.49703238  0.13206698  1
  O  O200  1  0.75332642  0.50156652  0.64322781  1
  O  O201  1  0.74421502  0.99554910  0.13321258  1
  O  O202  1  0.74645204  0.99462607  0.63081200  1
  O  O203  1  0.00677879  0.37936975  0.26105636  1
  O  O204  1  0.00730825  0.37254698  0.75808891  1
  O  O205  1  0.00557366  0.87430118  0.25723026  1
  O  O206  1  0.01127648  0.87613125  0.75059791  1
  O  O207  1  0.49804968  0.36966362  0.26095045  1
  O  O208  1  0.49467703  0.37890533  0.76841296  1
  O  O209  1  0.50011031  0.87009699  0.25662908  1
  O  O210  1  0.51067270  0.86652000  0.74810929  1
  O  O211  1  0.49089914  0.12615368  0.24289730  1
  O  O212  1  0.49321100  0.11964492  0.73255375  1
  O  O213  1  0.49046303  0.63176122  0.24083961  1
  O  O214  1  0.49424834  0.62787860  0.75058344  1
  O  O215  1  1.01073341  0.12233965  0.23126717  1
  O  O216  1  0.98367392  0.13059138  0.75278941  1
  O  O217  1  0.99020196  0.62191988  0.24591451  1
  O  O218  1  1.00000488  0.62358805  0.74008080  1
  O  O219  1  0.37901339  0.25957470  -0.00239805  1
  O  O220  1  0.37486818  0.26079153  0.49923042  1
  O  O221  1  0.36901449  0.75987818  0.00166634  1
  O  O222  1  0.37523937  0.75811353  0.50948701  1
  O  O223  1  0.86167818  0.25338283  0.00353116  1
  O  O224  1  0.86194808  0.25768173  0.50539498  1
  O  O225  1  0.86556595  0.75810437  -0.00143670  1
  O  O226  1  0.86973320  0.75881253  0.50422103  1
  O  O227  1  0.12647857  0.23877529  0.50323175  1
  O  O228  1  0.12049274  0.23646788  0.99761510  1
  O  O229  1  0.12640794  0.74304442  0.49478485  1
  O  O230  1  0.13325464  0.74328002  0.99401680  1
  O  O231  1  0.63582995  0.24938414  0.48922561  1
  O  O232  1  0.63768056  0.25188692  0.99147950  1
  O  O233  1  0.62614509  0.74288363  0.49488268  1
  O  O234  1  0.63733147  0.76038361  0.99079057  1
  O  O235  1  0.51642548  0.23199297  0.12768502  1
  O  O236  1  0.49031910  0.23501366  0.61534602  1
  O  O237  1  0.49769223  0.74409242  0.12983550  1
  O  O238  1  0.48660168  0.75175549  0.63717661  1
  O  O239  1  0.99673366  0.23329395  0.11949731  1
  O  O240  1  0.98287918  0.24642099  0.62464075  1
  O  O241  1  0.99770991  0.73984087  0.12655689  1
  O  O242  1  0.99694825  0.74227182  0.62634266  1
  O  O243  1  -0.00640948  0.26728973  0.37813848  1
  O  O244  1  -0.00977211  0.26095801  0.87310835  1
  O  O245  1  0.00966552  0.76150479  0.37261549  1
  O  O246  1  0.01442907  0.74103050  0.88010078  1
  O  O247  1  0.51385858  0.25577473  0.37785309  1
  O  O248  1  0.51393656  0.25228710  0.87854849  1
  O  O249  1  0.50556914  0.75552478  0.37116045  1
  O  O250  1  0.50994581  0.74033072  0.86460753  1
  O  O251  1  0.24596230  0.12790024  0.48057665  1
  O  O252  1  0.23627176  0.12480674  0.99866086  1
  O  O253  1  0.23490662  0.62521255  0.50428331  1
  O  O254  1  0.24755426  0.63304233  0.99477558  1
  O  O255  1  0.75372233  0.13792306  0.49901869  1
  O  O256  1  0.75622324  0.13133642  0.98882126  1
  O  O257  1  0.73696335  0.63147461  0.49934914  1
  O  O258  1  0.75674593  0.63461753  0.99285948  1
  O  O259  1  0.26358938  0.37409396  0.00633070  1
  O  O260  1  0.26340841  0.37898315  0.49735569  1
  O  O261  1  0.25719792  0.86418525  0.00066987  1
  O  O262  1  0.26455936  0.87782849  0.49714448  1
  O  O263  1  0.75459014  0.36612354  0.00526900  1
  O  O264  1  0.75950513  0.37280027  0.50184556  1
  O  O265  1  0.75941995  0.86869358  0.00853560  1
  O  O266  1  0.75744581  0.86991213  0.50473322  1
  O  O267  1  0.12627013  0.49037140  0.24425681  1
  O  O268  1  0.13116187  0.49185467  0.74489966  1
  O  O269  1  0.13293205  0.99563613  0.24499982  1
  O  O270  1  0.11996708  1.01068490  0.72572639  1
  O  O271  1  0.63436104  0.50197669  0.24404373  1
  O  O272  1  0.63560486  0.50098573  0.75822476  1
  O  O273  1  0.64053802  0.99618063  0.24488133  1
  O  O274  1  0.62943026  0.99037814  0.75229692  1
  O  O275  1  0.36767669  0.00848633  0.25304290  1
  O  O276  1  0.37440404  -0.00495632  0.75989250  1
  O  O277  1  0.37442008  0.50820022  0.25811522  1
  O  O278  1  0.37002611  0.50814180  0.75885925  1
  O  O279  1  0.86324144  -0.00305225  0.25800144  1
  O  O280  1  0.87021995  0.00710936  0.75507768  1
  O  O281  1  0.86670911  0.50759399  0.25561175  1
  O  O282  1  0.86582971  0.49994762  0.76124118  1
  O  O283  1  0.11490145  0.38258422  0.36732940  1
  O  O284  1  0.11483655  0.37996860  0.86618669  1
  O  O285  1  0.11683765  0.87244516  0.37236632  1
  O  O286  1  0.12887818  0.85792071  0.88303057  1
  O  O287  1  0.61365597  0.37288282  0.37576496  1
  O  O288  1  0.61529733  0.36268384  0.88128876  1
  O  O289  1  0.61938076  0.86304276  0.37571896  1
  O  O290  1  0.63399142  0.86290017  0.86330544  1
  O  O291  1  0.39061364  0.11656781  0.13145349  1
  O  O292  1  0.38139968  0.13531349  0.62355016  1
  O  O293  1  0.38341745  0.62971302  0.13262332  1
  O  O294  1  0.37761031  0.62508169  0.63009400  1
  O  O295  1  0.89068849  0.11961080  0.11827397  1
  O  O296  1  0.87212714  0.13172705  0.63212362  1
  O  O297  1  0.88037515  0.62339770  0.13457269  1
  O  O298  1  0.88475767  0.63176739  0.62538153  1
  O  O299  1  0.24504489  0.26139763  0.12978511  1
  O  O300  1  0.26438272  0.24241417  0.61990127  1
  O  O301  1  0.25612291  0.75031679  0.11440255  1
  O  O302  1  0.26598361  0.74295557  0.62693692  1
  O  O303  1  0.74630106  0.25430395  0.11830672  1
  O  O304  1  0.75529715  0.25251385  0.61255159  1
  O  O305  1  0.74977238  0.75686380  0.11734755  1
  O  O306  1  0.75719769  0.75540365  0.62219262  1
  O  O307  1  0.24899879  0.23910625  0.36566111  1
  O  O308  1  0.25947645  0.23120590  0.87599732  1
  O  O309  1  0.23524484  0.75695361  0.37882653  1
  O  O310  1  0.24368995  0.74077262  0.88322712  1
  O  O311  1  0.73909230  0.25551619  0.38681580  1
  O  O312  1  0.74106499  0.24444403  0.88132913  1
  O  O313  1  0.73979953  0.74988457  0.38153765  1
  O  O314  1  0.74373553  0.74158706  0.88078348  1
  O  O315  1  0.00967526  0.11521238  0.00395029  1
  O  O316  1  0.01152397  0.13106249  0.49038844  1
  O  O317  1  0.00459736  0.61553576  0.00588604  1
  O  O318  1  0.00785282  0.62107434  0.51162937  1
  O  O319  1  0.49489701  0.12405367  0.01345081  1
  O  O320  1  0.49315045  0.11428048  0.50781259  1
  O  O321  1  0.49479994  0.62407096  0.01453097  1
  O  O322  1  0.51124954  0.62365862  0.50309009  1
  O  O323  1  0.48911968  0.37935710  0.48973274  1
  O  O324  1  0.48673189  0.37666424  0.99465225  1
  O  O325  1  0.48875351  0.88227186  0.49669619  1
  O  O326  1  0.48872441  0.86978998  0.99877350  1
  O  O327  1  0.99010859  0.38083734  0.49691616  1
  O  O328  1  0.99635881  0.37787733  0.99325952  1
  O  O329  1  0.98787393  0.87121175  0.48938909  1
  O  O330  1  0.98987822  0.88423393  1.00569586  1
  O  O331  1  0.49001415  0.49140749  0.37430202  1
  O  O332  1  0.49186030  0.49408578  0.88045708  1
  O  O333  1  0.49514804  0.99638153  0.37936455  1
  O  O334  1  0.47950187  1.01234533  0.87712140  1
  O  O335  1  0.99302507  0.49265458  0.38430878  1
  O  O336  1  0.99193745  0.49173636  0.87896456  1
  O  O337  1  0.98471847  0.98988927  0.36538413  1
  O  O338  1  0.98988977  1.00791668  0.88234131  1
  O  O339  1  0.00502096  0.00775307  0.11434659  1
  O  O340  1  0.01059873  0.00506185  0.61433159  1
  O  O341  1  0.00597491  0.50151466  0.11896739  1
  O  O342  1  0.00689139  0.50807227  0.62313133  1
  O  O343  1  0.51595546  0.00598049  0.12915658  1
  O  O344  1  0.50168190  0.01058243  0.61569908  1
  O  O345  1  0.50841257  0.50709822  0.12633755  1
  O  O346  1  0.49019102  0.50328989  0.63986767  1
  O  O347  1  0.24084985  0.37706789  0.24299422  1
  O  O348  1  0.24220901  0.38857176  0.76077294  1
  O  O349  1  0.24680799  0.88593411  0.24808393  1
  O  O350  1  0.23335819  0.87176949  0.75162688  1
  O  O351  1  0.75082836  0.38783449  0.24619293  1
  O  O352  1  0.75092794  0.38906548  0.75024559  1
  O  O353  1  0.75174634  0.87764688  0.23707219  1
  O  O354  1  0.74261787  0.87927438  0.74469791  1
  O  O355  1  0.25335414  0.11883636  0.25478016  1
  O  O356  1  0.24722530  0.12490006  0.76106345  1
  O  O357  1  0.26473735  0.62391161  0.24382694  1
  O  O358  1  0.24325116  0.61133425  0.76386034  1
  O  O359  1  0.75088850  0.11359008  0.24437066  1
  O  O360  1  0.75751818  0.12047942  0.75771619  1
  O  O361  1  0.75888634  0.61648238  0.25184360  1
  O  O362  1  0.75130959  0.61431662  0.76261149  1
  O  O363  1  0.36391327  0.12172226  0.36651067  1
  O  O364  1  0.36600221  0.11657453  0.86940883  1
  O  O365  1  0.38430539  0.61755852  0.36634598  1
  O  O366  1  0.36443564  0.61621710  0.88252864  1
  O  O367  1  0.87867825  0.10936348  0.37712503  1
  O  O368  1  0.86508311  0.11754783  0.86859277  1
  O  O369  1  0.87543535  0.62070356  0.36891306  1
  O  O370  1  0.86607533  0.61387987  0.87554177  1
  O  O371  1  0.13034960  0.37794897  0.13133965  1
  O  O372  1  0.11648056  0.38863098  0.63249696  1
  O  O373  1  0.12791073  0.88077371  0.13088620  1
  O  O374  1  0.13076008  0.89361153  0.61064501  1
  O  O375  1  0.62993493  0.38483539  0.12959937  1
  O  O376  1  0.62116826  0.37621319  0.61421940  1
  O  O377  1  0.63406858  0.88611156  0.12681933  1
  O  O378  1  0.63027963  0.87362769  0.63584402  1
  O  O379  1  0.11349958  0.26276369  0.24550820  1
  O  O380  1  0.12609758  0.26463452  0.73686285  1
  O  O381  1  0.12465056  0.75566355  0.25836062  1
  O  O382  1  0.12422783  0.74215551  0.76952238  1
  O  O383  1  0.62825405  0.25507390  0.26603111  1
  O  O384  1  0.63304764  0.25578330  0.76345852  1
  O  O385  1  0.61958504  0.75192612  0.25898252  1
  O  O386  1  0.61679254  0.75559269  0.75637951  1
  O  O387  1  0.37627316  0.23746857  0.25218306  1
  O  O388  1  0.37269868  0.25162577  0.73409570  1
  O  O389  1  0.37924103  0.74491415  0.24542764  1
  O  O390  1  0.38403605  0.75704926  0.74730242  1
  O  O391  1  0.88048482  0.25239504  0.24778298  1
  O  O392  1  0.86693823  0.24350384  0.74075836  1
  O  O393  1  0.87524815  0.73790945  0.24921500  1
  O  O394  1  0.87731801  0.74700878  0.74451964  1
  O  O395  1  0.38039943  0.49126193  0.49504665  1
  O  O396  1  0.37495935  0.49464505  0.99165077  1
  O  O397  1  0.38267108  0.99427560  0.49389035  1
  O  O398  1  0.37439358  0.98593390  0.99956610  1
  O  O399  1  0.87657354  0.49539524  0.49951528  1
  O  O400  1  0.87844498  0.49264315  0.99047246  1
  O  O401  1  0.86361279  0.98964904  0.48307458  1
  O  O402  1  0.88220573  0.99332492  0.99130154  1
  O  O403  1  0.11755107  0.00153698  0.00135860  1
  O  O404  1  0.12598478  0.01907399  0.50415695  1
  O  O405  1  0.12137547  0.50158015  0.00498526  1
  O  O406  1  0.12032025  0.50553446  0.50776874  1
  O  O407  1  0.63352006  -0.00361801  0.01311137  1
  O  O408  1  0.61195518  -0.00786317  0.49934920  1
  O  O409  1  0.62626886  0.49683926  0.01354184  1
  O  O410  1  0.62151581  0.51663721  0.49995132  1
  O  O411  1  0.36994647  0.37688855  0.11321026  1
  O  O412  1  0.37805015  0.36005250  0.60913006  1
  O  O413  1  0.37498115  0.87045158  0.11322862  1
  O  O414  1  0.37222646  0.86916036  0.61911614  1
  O  O415  1  0.86693778  0.37637164  0.11744668  1
  O  O416  1  0.87288653  0.36864692  0.61782892  1
  O  O417  1  0.86774994  0.87643996  0.11493021  1
  O  O418  1  0.87122289  0.87357476  0.61584058  1
  O  O419  1  0.13518041  0.12367259  0.37966621  1
  O  O420  1  0.13567298  0.11871915  0.88483442  1
  O  O421  1  0.11369567  0.63453864  0.38579526  1
  O  O422  1  0.13546592  0.62790644  0.88390688  1
  O  O423  1  0.62140906  0.13619236  0.37022737  1
  O  O424  1  0.63425165  0.13568171  0.86788287  1
  O  O425  1  0.62249071  0.63740875  0.38027501  1
  O  O426  1  0.63552178  0.63682003  0.87664954  1
