# generated using pymatgen
data_V85Zn86O256
_symmetry_space_group_name_H-M   'P 1'
_cell_length_a   16.94676477
_cell_length_b   16.98479690
_cell_length_c   16.96539599
_cell_angle_alpha   90.05890412
_cell_angle_beta   89.91108953
_cell_angle_gamma   90.04244219
_symmetry_Int_Tables_number   1
_chemical_formula_structural   V85Zn86O256
_chemical_formula_sum   'V85 Zn86 O256'
_cell_volume   4883.26496071
_cell_formula_units_Z   1
loop_
 _symmetry_equiv_pos_site_id
 _symmetry_equiv_pos_as_xyz
  1  'x, y, z'
loop_
 _atom_site_type_symbol
 _atom_site_label
 _atom_site_symmetry_multiplicity
 _atom_site_fract_x
 _atom_site_fract_y
 _atom_site_fract_z
 _atom_site_occupancy
  V  V0  1  0.62705611  0.49830667  0.12646105  1
  V  V1  1  0.25451881  0.37586545  0.12673541  1
  V  V2  1  0.61305523  0.74772200  0.87209326  1
  V  V3  1  0.61509897  0.87086750  0.74903025  1
  V  V4  1  0.13154043  0.87298653  0.24229140  1
  V  V5  1  -0.00081562  0.87219418  0.37507782  1
  V  V6  1  0.87485247  0.25008446  0.62516453  1
  V  V7  1  0.24907110  0.25591416  0.49786129  1
  V  V8  1  0.50429130  0.37572192  0.87632475  1
  V  V9  1  0.37073287  0.87558353  0.49938913  1
  V  V10  1  0.00773285  0.37155732  0.37676272  1
  V  V11  1  -0.00069882  0.50514924  0.00599500  1
  V  V12  1  0.62407746  -0.00042461  0.62527652  1
  V  V13  1  -0.00201673  0.12592093  0.62533015  1
  V  V14  1  0.50167331  0.25057652  0.24652529  1
  V  V15  1  0.25224221  0.50900811  0.25445351  1
  V  V16  1  0.62153626  0.86993926  0.24777917  1
  V  V17  1  0.50000576  0.62666458  0.13412377  1
  V  V18  1  0.49696318  0.37501804  0.37729258  1
  V  V19  1  0.87594184  0.37640715  0.49758412  1
  V  V20  1  0.12179417  0.50527002  0.12806146  1
  V  V21  1  0.12881192  0.62698961  0.51304148  1
  V  V22  1  0.24915682  0.37682050  0.62451670  1
  V  V23  1  0.49089341  0.89045509  0.87966089  1
  V  V24  1  0.87059776  0.12344788  0.75458172  1
  V  V25  1  0.62227147  0.00118673  0.11013668  1
  V  V26  1  0.75913218  0.63054600  0.37583243  1
  V  V27  1  0.24965354  0.50069301  0.75447694  1
  V  V28  1  0.12868808  0.75327262  0.86346445  1
  V  V29  1  0.75014533  0.24986438  0.49782222  1
  V  V30  1  0.88318985  0.24726235  0.12282449  1
  V  V31  1  0.38240893  0.75960985  0.12949600  1
  V  V32  1  0.74871300  0.23653427  -0.00376343  1
  V  V33  1  0.37904987  0.12934996  0.24864533  1
  V  V34  1  0.74905486  -0.00021184  0.24825101  1
  V  V35  1  0.12326541  -0.00114155  0.63153078  1
  V  V36  1  0.00785149  0.01231096  0.01385418  1
  V  V37  1  0.00008665  0.50520118  0.50653815  1
  V  V38  1  0.62378529  0.50042236  0.62384648  1
  V  V39  1  -0.01036405  0.74349460  0.74659269  1
  V  V40  1  0.87864029  0.37450228  -0.00386895  1
  V  V41  1  0.49965352  0.00239171  0.49829455  1
  V  V42  1  0.75401248  0.62413040  0.86652961  1
  V  V43  1  0.62554047  0.74938425  0.37938304  1
  V  V44  1  -0.00539624  0.73520737  0.24799523  1
  V  V45  1  0.62561618  0.12556342  0.49868398  1
  V  V46  1  0.50413560  0.12441466  0.11230637  1
  V  V47  1  0.87763996  0.73707304  0.12749297  1
  V  V48  1  0.12228930  0.13139624  0.49677252  1
  V  V49  1  0.88182476  0.87237496  -0.00283559  1
  V  V50  1  0.49873570  0.87028534  0.36913658  1
  V  V51  1  -0.00234446  0.25245354  0.75881075  1
  V  V52  1  0.12860414  0.74143133  0.37765789  1
  V  V53  1  0.88253848  0.49975720  0.86720173  1
  V  V54  1  0.74915983  0.37559376  0.62246841  1
  V  V55  1  0.62680570  0.37484650  0.75210450  1
  V  V56  1  0.49519979  0.63207895  0.62927288  1
  V  V57  1  0.37413770  0.50040827  0.87653665  1
  V  V58  1  0.24426909  0.87728482  0.62517125  1
  V  V59  1  0.37020073  0.00201210  0.37048358  1
  V  V60  1  0.74878784  0.87317568  0.12327383  1
  V  V61  1  0.74960486  0.87274033  0.62510692  1
  V  V62  1  0.24621333  0.12860361  0.37660518  1
  V  V63  1  0.19543960  0.04595630  0.20118959  1
  V  V64  1  0.49428476  0.49539894  0.50143874  1
  V  V65  1  0.49774459  0.12705585  0.62375097  1
  V  V66  1  0.37406289  0.25444638  0.62233109  1
  V  V67  1  0.00426203  0.25005915  0.25394511  1
  V  V68  1  0.11963954  0.37497913  0.75862941  1
  V  V69  1  0.37571436  0.37102453  0.00495199  1
  V  V70  1  0.63013776  0.23592823  0.87640697  1
  V  V71  1  0.50217273  0.49979044  0.00249812  1
  V  V72  1  0.24693271  0.24736342  -0.00348034  1
  V  V73  1  0.87323928  0.00122485  0.87478714  1
  V  V74  1  -0.00216467  -0.00059722  0.50078094  1
  V  V75  1  0.24688455  0.75053084  0.01593728  1
  V  V76  1  0.75019485  0.74786086  -0.00309896  1
  V  V77  1  0.87274842  0.73708425  0.62476451  1
  V  V78  1  0.87902910  0.12252094  0.24481543  1
  V  V79  1  0.86995545  0.87113699  0.50214655  1
  V  V80  1  0.36364408  0.12140071  0.75286526  1
  V  V81  1  0.37333074  0.50663475  0.37604725  1
  V  V82  1  0.12607049  0.24209567  0.87939186  1
  V  V83  1  0.75870896  0.50396561  0.24903335  1
  V  V84  1  0.74919486  0.12506049  0.37344887  1
  Zn  Zn85  1  0.75046033  0.37224940  0.12658212  1
  Zn  Zn86  1  0.28733678  0.07286222  0.91018405  1
  Zn  Zn87  1  0.88092751  0.50449242  0.36846915  1
  Zn  Zn88  1  0.24720747  0.62395586  0.88125785  1
  Zn  Zn89  1  0.37556256  0.75732574  0.63033392  1
  Zn  Zn90  1  0.12161404  0.62609284  0.00457226  1
  Zn  Zn91  1  0.49873960  0.24902109  0.75190956  1
  Zn  Zn92  1  0.26039734  0.73675735  0.49294659  1
  Zn  Zn93  1  0.74544229  0.00418727  0.75586434  1
  Zn  Zn94  1  0.11992437  0.51098400  0.63625227  1
  Zn  Zn95  1  0.75748516  0.50488366  0.74530798  1
  Zn  Zn96  1  0.37230851  0.89126794  -0.00010991  1
  Zn  Zn97  1  0.24693346  -0.00718706  0.75530475  1
  Zn  Zn98  1  0.12993355  0.37349620  0.25582445  1
  Zn  Zn99  1  0.62551532  0.25199904  0.37391660  1
  Zn  Zn100  1  0.38405011  0.63237769  0.76015390  1
  Zn  Zn101  1  0.62923617  0.37358212  0.25131333  1
  Zn  Zn102  1  0.00663693  0.87748967  0.86705890  1
  Zn  Zn103  1  0.87230575  -0.00218552  0.37437009  1
  Zn  Zn104  1  0.37715172  0.63496945  0.25772742  1
  Zn  Zn105  1  0.62753090  0.63207872  0.50258820  1
  Zn  Zn106  1  0.62403466  0.62430924  -0.00085230  1
  Zn  Zn107  1  0.18388706  0.20450538  0.17820268  1
  Zn  Zn108  1  0.18250071  0.18944917  0.68650079  1
  Zn  Zn109  1  0.18555281  0.68808080  0.19211470  1
  Zn  Zn110  1  0.20994547  0.69904078  0.69221276  1
  Zn  Zn111  1  0.68771155  0.18641434  0.18374631  1
  Zn  Zn112  1  0.68745663  0.18848450  0.68708068  1
  Zn  Zn113  1  0.68890901  0.68492287  0.18941244  1
  Zn  Zn114  1  0.68601017  0.68937945  0.68777039  1
  Zn  Zn115  1  0.31672573  0.31601113  0.31353319  1
  Zn  Zn116  1  0.31157570  0.31179688  0.81298034  1
  Zn  Zn117  1  0.31019403  0.81196621  0.31252668  1
  Zn  Zn118  1  0.31088021  0.80994681  0.81112334  1
  Zn  Zn119  1  0.81549876  0.31548998  0.31181662  1
  Zn  Zn120  1  0.81079890  0.31501723  0.81413775  1
  Zn  Zn121  1  0.81166020  0.81037792  0.30945924  1
  Zn  Zn122  1  0.81043908  0.81523681  0.81004996  1
  Zn  Zn123  1  0.18672500  0.44346416  0.43954746  1
  Zn  Zn124  1  0.18403215  0.43355549  0.94057919  1
  Zn  Zn125  1  0.18301479  0.94008112  0.43698712  1
  Zn  Zn126  1  0.19545114  0.93465674  0.95304636  1
  Zn  Zn127  1  0.68651743  0.44066262  0.43400917  1
  Zn  Zn128  1  0.69469677  0.43490113  0.93931013  1
  Zn  Zn129  1  0.68786681  0.93767703  0.43691332  1
  Zn  Zn130  1  0.68867633  0.93240024  0.93151977  1
  Zn  Zn131  1  0.32005238  0.06182419  0.07082123  1
  Zn  Zn132  1  0.31006114  0.06344770  0.56285512  1
  Zn  Zn133  1  0.31319547  0.56716768  0.06689636  1
  Zn  Zn134  1  0.31136491  0.55856129  0.56265395  1
  Zn  Zn135  1  0.81597059  0.05803936  0.06281283  1
  Zn  Zn136  1  0.81117337  0.05994833  0.56429653  1
  Zn  Zn137  1  0.81054197  0.56067171  0.05699179  1
  Zn  Zn138  1  0.80876741  0.55994969  0.55421308  1
  Zn  Zn139  1  0.43788833  0.43965770  0.19131451  1
  Zn  Zn140  1  0.43719407  0.43775133  0.69016522  1
  Zn  Zn141  1  0.43922753  0.94331510  0.18634801  1
  Zn  Zn142  1  0.43502847  0.94010089  0.68876827  1
  Zn  Zn143  1  0.93751562  0.43293363  0.18635052  1
  Zn  Zn144  1  0.93864604  0.43585355  0.68528597  1
  Zn  Zn145  1  0.93718830  0.92887631  0.18715907  1
  Zn  Zn146  1  0.94247723  0.93269091  0.69127628  1
  Zn  Zn147  1  0.05545513  0.06243199  0.31686125  1
  Zn  Zn148  1  0.09413313  0.03487533  0.84839898  1
  Zn  Zn149  1  0.06640161  0.55843254  0.31796851  1
  Zn  Zn150  1  0.06266589  0.56919497  0.81591865  1
  Zn  Zn151  1  0.56381290  0.05931771  0.30961784  1
  Zn  Zn152  1  0.55452247  0.06112646  0.80689235  1
  Zn  Zn153  1  0.56694727  0.56190759  0.31282262  1
  Zn  Zn154  1  0.56504100  0.56301078  0.81249837  1
  Zn  Zn155  1  0.43569118  0.19099122  0.43680684  1
  Zn  Zn156  1  0.43841951  0.19181552  0.93301773  1
  Zn  Zn157  1  0.44379082  0.68613573  0.44195497  1
  Zn  Zn158  1  0.43393871  0.68555433  0.94874811  1
  Zn  Zn159  1  0.93445791  0.18782948  0.43396851  1
  Zn  Zn160  1  0.94073660  0.18365591  0.93692208  1
  Zn  Zn161  1  0.94213296  0.68821248  0.44163601  1
  Zn  Zn162  1  0.93987087  0.68434104  0.93435622  1
  Zn  Zn163  1  0.06384072  0.31976816  0.06281516  1
  Zn  Zn164  1  0.06253872  0.31598366  0.56706274  1
  Zn  Zn165  1  0.06060450  0.81149758  0.06605309  1
  Zn  Zn166  1  0.05935039  0.81052911  0.56589679  1
  Zn  Zn167  1  0.56532153  0.31008584  0.06221186  1
  Zn  Zn168  1  0.56212135  0.31280844  0.56085189  1
  Zn  Zn169  1  0.55965624  0.81522476  0.05690488  1
  Zn  Zn170  1  0.55992641  0.81507492  0.55850962  1
  O  O171  1  0.14156240  0.10439837  0.14114190  1
  O  O172  1  0.11835948  0.12010153  0.61496862  1
  O  O173  1  0.13044192  0.60887717  0.12645757  1
  O  O174  1  0.12901675  0.63088327  0.61575707  1
  O  O175  1  0.61353546  0.11563436  0.12739046  1
  O  O176  1  0.61899037  0.12048219  0.62003254  1
  O  O177  1  0.61936609  0.61687373  0.12296615  1
  O  O178  1  0.61694884  0.61747165  0.62529180  1
  O  O179  1  0.38924582  0.38737374  0.37125407  1
  O  O180  1  0.38225722  0.38407942  0.88077588  1
  O  O181  1  0.37934797  0.88262166  0.37805327  1
  O  O182  1  0.38961104  0.86827233  0.86887801  1
  O  O183  1  0.88581914  0.37817293  0.38222328  1
  O  O184  1  0.86834125  0.39030413  0.88277277  1
  O  O185  1  0.88100221  0.87073109  0.38422783  1
  O  O186  1  0.87678912  0.87937886  0.88295623  1
  O  O187  1  0.25923168  0.01420397  0.38103831  1
  O  O188  1  0.20888173  0.00520927  0.86233725  1
  O  O189  1  0.26207423  0.49042202  0.36706233  1
  O  O190  1  0.25822691  0.49605357  0.87146230  1
  O  O191  1  0.75082416  0.00513415  0.36676115  1
  O  O192  1  0.76651656  -0.00705782  0.87335610  1
  O  O193  1  0.75125156  0.51063923  0.36613381  1
  O  O194  1  0.75982841  0.50814744  0.87402071  1
  O  O195  1  0.24615647  0.49364765  0.13360412  1
  O  O196  1  0.24813055  0.49118805  0.63466959  1
  O  O197  1  0.25875999  0.99480559  0.14555312  1
  O  O198  1  0.23940129  0.99568685  0.62390579  1
  O  O199  1  0.74247104  0.50234075  0.13082159  1
  O  O200  1  0.74051121  0.49573592  0.62468173  1
  O  O201  1  0.74272317  0.99346903  0.12854458  1
  O  O202  1  0.74236029  0.98930630  0.62771385  1
  O  O203  1  -0.00078381  0.36728548  0.26041576  1
  O  O204  1  0.00838546  0.36262093  0.74156948  1
  O  O205  1  0.00621621  0.86838471  0.26167437  1
  O  O206  1  -0.00040440  0.85575877  0.75217002  1
  O  O207  1  0.50007747  0.36465927  0.25519443  1
  O  O208  1  0.51112011  0.37391356  0.75559851  1
  O  O209  1  0.50865406  0.88322060  0.25996438  1
  O  O210  1  0.50769871  0.87809288  0.75755970  1
  O  O211  1  0.49499980  0.13362288  0.25043649  1
  O  O212  1  0.48637189  0.12883137  0.74093092  1
  O  O213  1  0.50090127  0.62173073  0.23800092  1
  O  O214  1  0.49971191  0.61857438  0.73416403  1
  O  O215  1  0.98821138  0.13422898  0.25897226  1
  O  O216  1  0.98693430  0.13952742  0.74135243  1
  O  O217  1  1.00309147  0.63677191  0.25917655  1
  O  O218  1  1.00549192  0.64344251  0.74978744  1
  O  O219  1  0.36764160  0.26700666  -0.01000833  1
  O  O220  1  0.36236816  0.24562852  0.51127933  1
  O  O221  1  0.36432787  0.74901730  0.01438254  1
  O  O222  1  0.37673966  0.76347447  0.49969104  1
  O  O223  1  0.87003936  0.25399914  0.00272159  1
  O  O224  1  0.86987589  0.25528632  0.50584301  1
  O  O225  1  0.86869157  0.75389422  0.00307032  1
  O  O226  1  0.88260450  0.76008992  0.51489987  1
  O  O227  1  0.13305359  0.23945485  0.50721911  1
  O  O228  1  0.13433674  0.26282760  0.99178867  1
  O  O229  1  0.11666855  0.73668941  0.49496899  1
  O  O230  1  0.13677769  0.74581280  1.00857163  1
  O  O231  1  0.63190465  0.24329541  0.49895364  1
  O  O232  1  0.64094273  0.25327643  0.99303007  1
  O  O233  1  0.62381662  0.75375143  0.48488247  1
  O  O234  1  0.63572296  0.75208382  0.99033319  1
  O  O235  1  0.50820028  0.23598106  0.13405393  1
  O  O236  1  0.48944426  0.24759215  0.62394742  1
  O  O237  1  0.48981215  0.74207415  0.11734670  1
  O  O238  1  0.49944707  0.73554794  0.61911650  1
  O  O239  1  0.98995252  0.25660381  0.13300411  1
  O  O240  1  0.99337276  0.24594592  0.63173349  1
  O  O241  1  0.98967693  0.75264307  0.13585793  1
  O  O242  1  0.98512112  0.75278202  0.63468690  1
  O  O243  1  -0.00603179  0.25933793  0.36619972  1
  O  O244  1  0.00436762  0.25029967  0.86488663  1
  O  O245  1  0.00500079  0.75663385  0.36938238  1
  O  O246  1  0.00782080  0.74871203  0.86496462  1
  O  O247  1  0.50000821  0.25863679  0.36856958  1
  O  O248  1  0.51298071  0.25872880  0.87471057  1
  O  O249  1  0.50604370  0.76354558  0.37686564  1
  O  O250  1  0.51104493  0.74597027  0.88160128  1
  O  O251  1  0.24240151  0.13458153  0.49487637  1
  O  O252  1  0.26282004  0.14598072  1.00483550  1
  O  O253  1  0.23503414  0.62134521  0.50151967  1
  O  O254  1  0.24912713  0.63571559  0.99988471  1
  O  O255  1  0.74608656  0.12924391  0.49495205  1
  O  O256  1  0.75839383  0.13806945  1.00076222  1
  O  O257  1  0.74164975  0.61739601  0.48057537  1
  O  O258  1  0.74805769  0.63531112  0.98889830  1
  O  O259  1  0.25861961  0.37324147  0.00776050  1
  O  O260  1  0.23926653  0.36636136  0.51086465  1
  O  O261  1  0.25503561  0.85209557  0.00116368  1
  O  O262  1  0.26212631  0.88371560  0.50272743  1
  O  O263  1  0.76384357  0.36692607  0.00370954  1
  O  O264  1  0.75440304  0.37134221  0.50283934  1
  O  O265  1  0.75840836  0.86369109  0.00137841  1
  O  O266  1  0.75814331  0.87873473  0.51017306  1
  O  O267  1  0.13437125  0.49627602  0.24651262  1
  O  O268  1  0.12802606  0.49185901  0.75394076  1
  O  O269  1  0.12514571  0.98794890  0.25787848  1
  O  O270  1  0.11615714  1.00759020  0.73200859  1
  O  O271  1  0.63410021  0.49851502  0.24022067  1
  O  O272  1  0.62572941  0.49082766  0.73989180  1
  O  O273  1  0.63008125  0.98914681  0.24136083  1
  O  O274  1  0.62447770  0.99037741  0.74372859  1
  O  O275  1  0.38164945  0.01194665  0.26309938  1
  O  O276  1  0.36935499  0.01715322  0.74453061  1
  O  O277  1  0.36883518  0.50404726  0.25855750  1
  O  O278  1  0.36717666  0.49983475  0.76094426  1
  O  O279  1  0.86920370  0.00629087  0.24816193  1
  O  O280  1  0.87877285  0.00700560  0.75747255  1
  O  O281  1  0.86402541  0.49776120  0.24824906  1
  O  O282  1  0.87724415  0.49430871  0.76319079  1
  O  O283  1  0.11272565  0.37879911  0.37657551  1
  O  O284  1  0.12562192  0.36825340  0.86309201  1
  O  O285  1  0.11272559  0.86702873  0.37549986  1
  O  O286  1  0.12255965  0.85352161  0.88851173  1
  O  O287  1  0.61121632  0.37577749  0.37221450  1
  O  O288  1  0.62422934  0.37212264  0.86715341  1
  O  O289  1  0.61859516  0.87095563  0.36815251  1
  O  O290  1  0.61235974  0.86850331  0.86821493  1
  O  O291  1  0.39238581  0.11764242  0.13911624  1
  O  O292  1  0.37721141  0.13461455  0.63046030  1
  O  O293  1  0.38512958  0.63374467  0.12968732  1
  O  O294  1  0.39005163  0.62193973  0.62148575  1
  O  O295  1  0.87001806  0.13376523  0.13583431  1
  O  O296  1  0.87930588  0.13029147  0.62993750  1
  O  O297  1  0.86715280  0.63853720  0.11916649  1
  O  O298  1  0.86418235  0.63907552  0.61790586  1
  O  O299  1  0.24862105  0.26737379  0.11413841  1
  O  O300  1  0.25444477  0.25732485  0.61829558  1
  O  O301  1  0.26131240  0.74411429  0.12106331  1
  O  O302  1  0.24674090  0.76670986  0.60663792  1
  O  O303  1  0.75832250  0.24991234  0.11255613  1
  O  O304  1  0.75483432  0.25625261  0.61797266  1
  O  O305  1  0.75331103  0.75309207  0.11553433  1
  O  O306  1  0.76167681  0.76044305  0.63212018  1
  O  O307  1  0.25852026  0.24034690  0.38444019  1
  O  O308  1  0.24048741  0.25819509  0.88469121  1
  O  O309  1  0.23488081  0.75717186  0.38098260  1
  O  O310  1  0.23839573  0.74692744  0.88321074  1
  O  O311  1  0.74992326  0.24423307  0.38042136  1
  O  O312  1  0.74576243  0.25290359  0.88752213  1
  O  O313  1  0.74267730  0.73751455  0.36840590  1
  O  O314  1  0.74520415  0.74444402  0.88010590  1
  O  O315  1  -0.00431602  0.11224878  0.00469424  1
  O  O316  1  0.00440937  0.12236146  0.50252805  1
  O  O317  1  -0.00117462  0.60945900  0.00133136  1
  O  O318  1  0.01050931  0.61441436  0.49767570  1
  O  O319  1  0.49198350  0.13154835  0.01446341  1
  O  O320  1  0.50413661  0.12197611  0.50332201  1
  O  O321  1  0.50253335  0.61604514  0.01265142  1
  O  O322  1  0.50667198  0.61373603  0.51128507  1
  O  O323  1  0.50310917  0.38507588  0.49242716  1
  O  O324  1  0.49405710  0.37898376  0.99749629  1
  O  O325  1  0.49043323  0.88247775  0.49064975  1
  O  O326  1  0.49326295  0.87432037  0.98414345  1
  O  O327  1  0.99715792  0.38030558  0.49497156  1
  O  O328  1  0.98678771  0.38459276  1.00169536  1
  O  O329  1  0.99095464  0.87793162  0.49367313  1
  O  O330  1  0.98720276  0.87266934  0.99965966  1
  O  O331  1  0.49638526  0.49517201  0.38225851  1
  O  O332  1  0.49451388  0.49577961  0.88078439  1
  O  O333  1  0.49210385  0.99190941  0.37924660  1
  O  O334  1  0.49760534  0.98968604  0.87507943  1
  O  O335  1  0.99878746  0.49151565  0.38531674  1
  O  O336  1  0.98667623  0.50452024  0.88279603  1
  O  O337  1  0.99533784  0.98800756  0.38185560  1
  O  O338  1  0.99188203  0.99383837  0.88834017  1
  O  O339  1  -0.00858561  -0.00676898  0.11210124  1
  O  O340  1  0.00340304  0.00462152  0.61829379  1
  O  O341  1  0.01055106  0.49114688  0.11927378  1
  O  O342  1  0.00484196  0.49282905  0.61238854  1
  O  O343  1  0.50837632  0.01363303  0.12688214  1
  O  O344  1  0.50428669  0.00574106  0.61788059  1
  O  O345  1  0.50803400  0.50581684  0.12284303  1
  O  O346  1  0.50502691  0.50358843  0.61927546  1
  O  O347  1  0.25268387  0.38124361  0.24217912  1
  O  O348  1  0.24169689  0.38278459  0.74563222  1
  O  O349  1  0.23039964  0.87228592  0.25748103  1
  O  O350  1  0.25575492  0.87771392  0.72983949  1
  O  O351  1  0.74858905  0.38550153  0.24789960  1
  O  O352  1  0.74125500  0.37820594  0.74257463  1
  O  O353  1  0.74186131  0.87966455  0.24365247  1
  O  O354  1  0.73826094  0.87842210  0.74133663  1
  O  O355  1  0.25406876  0.12381056  0.25508404  1
  O  O356  1  0.26087113  0.12657572  0.74250616  1
  O  O357  1  0.25308611  0.61222081  0.24937615  1
  O  O358  1  0.24215648  0.60450234  0.75381870  1
  O  O359  1  0.75764540  0.12041768  0.25305970  1
  O  O360  1  0.76525835  0.12331863  0.74227919  1
  O  O361  1  0.74482126  0.61618364  0.26354784  1
  O  O362  1  0.74612906  0.62343232  0.76156246  1
  O  O363  1  0.36720640  0.12011105  0.36943918  1
  O  O364  1  0.37283650  0.13340394  0.85800792  1
  O  O365  1  0.38418321  0.61337330  0.37446703  1
  O  O366  1  0.37445793  0.61135462  0.87778475  1
  O  O367  1  0.86749120  0.12198648  0.36402090  1
  O  O368  1  0.88089988  0.11473859  0.86474814  1
  O  O369  1  0.86253063  0.62773303  0.38013035  1
  O  O370  1  0.86658681  0.61049119  0.88026832  1
  O  O371  1  0.13747318  0.38653750  0.12801888  1
  O  O372  1  0.13598043  0.37392961  0.63872636  1
  O  O373  1  0.12137952  0.87170567  0.14371745  1
  O  O374  1  0.13292381  0.88743205  0.60977496  1
  O  O375  1  0.62631561  0.38681075  0.12628316  1
  O  O376  1  0.62805268  0.38103446  0.63211043  1
  O  O377  1  0.62634487  0.87936561  0.13028763  1
  O  O378  1  0.62832178  0.87680355  0.62997174  1
  O  O379  1  0.10971425  0.25434489  0.24578703  1
  O  O380  1  0.11773754  0.25558570  0.75729908  1
  O  O381  1  0.11660388  0.75736331  0.25763036  1
  O  O382  1  0.12538439  0.74925019  0.76073881  1
  O  O383  1  0.61574326  0.25072398  0.25254240  1
  O  O384  1  0.62653480  0.26039266  0.75675092  1
  O  O385  1  0.62938243  0.76429932  0.25705070  1
  O  O386  1  0.62854229  0.76093670  0.75956219  1
  O  O387  1  0.38505277  0.23844690  0.25525942  1
  O  O388  1  0.37421837  0.24320589  0.73920821  1
  O  O389  1  0.36942968  0.75159078  0.23520663  1
  O  O390  1  0.33607537  0.73046032  0.73452522  1
  O  O391  1  0.88130099  0.24333018  0.24137658  1
  O  O392  1  0.87881727  0.24679201  0.74709920  1
  O  O393  1  0.88272150  0.75556276  0.23955326  1
  O  O394  1  0.88065109  0.74825812  0.74084774  1
  O  O395  1  0.38537202  0.50263528  0.49252662  1
  O  O396  1  0.37967482  0.49186311  0.99344949  1
  O  O397  1  0.37960189  0.99644881  0.49011223  1
  O  O398  1  0.32740998  0.99393426  0.98442266  1
  O  O399  1  0.88429100  0.49419777  0.49790281  1
  O  O400  1  0.88044966  0.49257037  0.99521641  1
  O  O401  1  0.87938837  0.98834106  0.49963009  1
  O  O402  1  0.88077883  0.99043845  0.99402083  1
  O  O403  1  0.10613928  -0.00809872  -0.00061202  1
  O  O404  1  0.11772989  0.01265417  0.50596644  1
  O  O405  1  0.11622008  0.49820989  0.00818219  1
  O  O406  1  0.11951101  0.51322753  0.50397035  1
  O  O407  1  0.63170799  -0.00830444  0.01127179  1
  O  O408  1  0.61949996  0.00487506  0.50514465  1
  O  O409  1  0.62190377  0.49896041  0.00918924  1
  O  O410  1  0.61629884  0.49838444  0.51252825  1
  O  O411  1  0.36809511  0.38432176  0.11505345  1
  O  O412  1  0.36175014  0.36686161  0.63377639  1
  O  O413  1  0.38703948  0.86339649  0.12152766  1
  O  O414  1  0.36916242  0.87892731  0.61372330  1
  O  O415  1  0.87268129  0.36293707  0.11643926  1
  O  O416  1  0.86833579  0.37000281  0.61866879  1
  O  O417  1  0.86646288  0.86482300  0.11493915  1
  O  O418  1  0.86626785  0.87076023  0.61968190  1
  O  O419  1  0.13374674  0.11881779  0.38477926  1
  O  O420  1  0.12128646  0.14360042  0.87453054  1
  O  O421  1  0.12209351  0.63589239  0.38454034  1
  O  O422  1  0.12526622  0.63935836  0.88424136  1
  O  O423  1  0.63102042  0.12437869  0.38118887  1
  O  O424  1  0.62057388  0.13764421  0.86410881  1
  O  O425  1  0.62784450  0.63691499  0.37509986  1
  O  O426  1  0.63295504  0.63155738  0.87677188  1
