# generated using pymatgen
data_V85Zn86O256
_symmetry_space_group_name_H-M   'P 1'
_cell_length_a   16.98305538
_cell_length_b   16.98085108
_cell_length_c   16.98219493
_cell_angle_alpha   90.16601091
_cell_angle_beta   89.92504897
_cell_angle_gamma   90.03579833
_symmetry_Int_Tables_number   1
_chemical_formula_structural   V85Zn86O256
_chemical_formula_sum   'V85 Zn86 O256'
_cell_volume   4897.41404394
_cell_formula_units_Z   1
loop_
 _symmetry_equiv_pos_site_id
 _symmetry_equiv_pos_as_xyz
  1  'x, y, z'
loop_
 _atom_site_type_symbol
 _atom_site_label
 _atom_site_symmetry_multiplicity
 _atom_site_fract_x
 _atom_site_fract_y
 _atom_site_fract_z
 _atom_site_occupancy
  V  V0  1  0.62091977  0.25886881  0.86937601  1
  V  V1  1  0.00121911  -0.00867319  -0.00636719  1
  V  V2  1  0.74385155  0.49833853  0.74793685  1
  V  V3  1  0.62369727  0.12588240  0.50127871  1
  V  V4  1  0.87409354  0.87579963  0.49854685  1
  V  V5  1  0.74539787  0.74465160  0.49808275  1
  V  V6  1  0.37339136  0.85965461  0.00063229  1
  V  V7  1  0.37207393  0.26458570  0.12302306  1
  V  V8  1  0.87409117  0.00015626  0.37536015  1
  V  V9  1  0.62467631  0.00005901  0.12589847  1
  V  V10  1  0.24892622  0.50136468  0.74735819  1
  V  V11  1  0.74723594  0.62373400  0.37758793  1
  V  V12  1  0.25454566  0.49754311  0.24162056  1
  V  V13  1  0.12373222  0.49847064  0.62286106  1
  V  V14  1  0.00077137  0.75698346  0.75384566  1
  V  V15  1  0.25729007  -0.00200948  0.74686027  1
  V  V16  1  0.12355085  0.25418444  0.87716639  1
  V  V17  1  0.12880065  0.12162364  -0.00152356  1
  V  V18  1  0.24990433  0.00091753  0.24840799  1
  V  V19  1  0.50238333  0.87287818  0.86416251  1
  V  V20  1  0.25138291  0.63392152  0.88136526  1
  V  V21  1  0.25486158  0.86088835  0.12092326  1
  V  V22  1  0.87497288  0.12864982  0.24303683  1
  V  V23  1  0.12141473  0.62065989  0.49843356  1
  V  V24  1  0.37898188  0.63050488  0.74921046  1
  V  V25  1  0.75024501  0.25091377  0.50070779  1
  V  V26  1  0.36697441  0.87609839  0.50449906  1
  V  V27  1  0.37608666  0.74611846  0.62567965  1
  V  V28  1  0.88135097  0.38101341  0.50005358  1
  V  V29  1  0.75686926  0.36711933  0.12182942  1
  V  V30  1  -0.00062766  0.00000643  0.50018343  1
  V  V31  1  0.38456410  0.63928316  0.24823423  1
  V  V32  1  0.12431513  0.75663744  0.88202650  1
  V  V33  1  0.37301162  0.12494475  0.25148610  1
  V  V34  1  0.74463867  0.62547297  0.88060302  1
  V  V35  1  0.75870866  0.49841591  0.25082415  1
  V  V36  1  0.50163386  0.63340927  0.11872007  1
  V  V37  1  0.26111767  0.12731938  0.87067263  1
  V  V38  1  0.62228623  0.50159384  0.11662362  1
  V  V39  1  -0.00019879  0.25502094  0.75599696  1
  V  V40  1  0.25192266  0.62057302  0.37457556  1
  V  V41  1  0.87818319  0.48982700  0.88492081  1
  V  V42  1  0.87504410  0.62427286  0.75252669  1
  V  V43  1  0.87551783  0.74991983  0.12222242  1
  V  V44  1  0.24688350  0.74972906  0.50667594  1
  V  V45  1  0.12443282  0.12556594  0.50119977  1
  V  V46  1  0.74373030  0.37754247  0.62736433  1
  V  V47  1  0.74470155  -0.00502927  0.75006108  1
  V  V48  1  0.62279932  0.25131270  0.37599806  1
  V  V49  1  0.87522351  0.75056884  0.62492424  1
  V  V50  1  0.49820085  0.25416203  0.25584599  1
  V  V51  1  0.12512683  -0.00086501  0.12238342  1
  V  V52  1  -0.00013959  0.38144459  0.37369181  1
  V  V53  1  0.74937440  0.12485528  0.37560658  1
  V  V54  1  0.49630301  -0.00056120  0.49774739  1
  V  V55  1  0.37995780  0.49129934  0.87680882  1
  V  V56  1  -0.00201347  0.61981551  0.61908850  1
  V  V57  1  0.13233873  0.37474317  0.24338141  1
  V  V58  1  0.74082080  0.74825736  0.00180541  1
  V  V59  1  0.87848489  -0.00719367  0.87338424  1
  V  V60  1  0.74876198  0.12374724  0.87544169  1
  V  V61  1  0.12886290  0.24884422  0.37549191  1
  V  V62  1  0.12663305  0.87406551  0.24813817  1
  V  V63  1  -0.00033176  0.75028949  0.24850047  1
  V  V64  1  0.51843185  0.49936038  0.49308927  1
  V  V65  1  0.62371329  -0.00661165  0.62585194  1
  V  V66  1  0.87674748  0.25051254  0.62563672  1
  V  V67  1  0.62248528  0.75515056  0.86199862  1
  V  V68  1  0.25398449  0.26264330  0.00394385  1
  V  V69  1  -0.00114689  0.24720035  0.24499054  1
  V  V70  1  0.51316252  0.61854871  0.62329202  1
  V  V71  1  0.76237549  0.24969313  0.00165965  1
  V  V72  1  0.74893709  -0.00110762  0.24932503  1
  V  V73  1  0.48870281  0.13202062  0.63422758  1
  V  V74  1  0.12346000  0.74839856  0.37393997  1
  V  V75  1  0.00453621  0.61749435  0.11725232  1
  V  V76  1  0.74716210  0.87485745  0.62428736  1
  V  V77  1  0.49628602  0.00157456  -0.00100042  1
  V  V78  1  0.12205133  0.37907461  0.75504493  1
  V  V79  1  0.25383534  0.25758534  0.51594472  1
  V  V80  1  0.62196536  0.37589936  0.25544887  1
  V  V81  1  0.00054860  0.12712259  0.62564874  1
  V  V82  1  0.12570949  -0.00813578  0.62736270  1
  V  V83  1  0.74860366  0.87454850  0.12615543  1
  V  V84  1  0.49921824  0.12682266  0.12382343  1
  Zn  Zn85  1  0.37949618  0.37762528  0.50104654  1
  Zn  Zn86  1  0.13029352  0.62262765  -0.00090163  1
  Zn  Zn87  1  0.25048330  0.12294851  0.37862533  1
  Zn  Zn88  1  -0.00552548  0.12452912  0.12011428  1
  Zn  Zn89  1  0.87774349  0.87178845  -0.00455599  1
  Zn  Zn90  1  0.61485137  0.74455102  0.36544136  1
  Zn  Zn91  1  0.37476280  -0.00581698  0.37264003  1
  Zn  Zn92  1  0.49468865  0.48508752  -0.00539871  1
  Zn  Zn93  1  0.61239671  0.86601309  0.24948321  1
  Zn  Zn94  1  -0.00094402  0.87488611  0.37426232  1
  Zn  Zn95  1  0.13512761  0.49214663  0.11458953  1
  Zn  Zn96  1  0.12512876  0.87474593  0.75158648  1
  Zn  Zn97  1  0.62403291  0.12863563  -0.00086112  1
  Zn  Zn98  1  0.37971217  0.00109201  0.86896522  1
  Zn  Zn99  1  0.39209573  0.48753960  0.36998744  1
  Zn  Zn100  1  0.02148526  0.45994650  0.97107203  1
  Zn  Zn101  1  0.88072840  0.50344382  0.37965151  1
  Zn  Zn102  1  0.46763036  0.25833035  0.75019368  1
  Zn  Zn103  1  0.49327898  0.85650017  0.36602937  1
  Zn  Zn104  1  0.87593999  0.12478876  0.74976956  1
  Zn  Zn105  1  0.87741192  0.62240412  0.24983826  1
  Zn  Zn106  1  0.60991864  0.38179005  0.75093761  1
  Zn  Zn107  1  0.18793349  0.18882152  0.18427105  1
  Zn  Zn108  1  0.18917142  0.18498611  0.69130357  1
  Zn  Zn109  1  0.18832447  0.68247259  0.18922624  1
  Zn  Zn110  1  0.18585871  0.68454224  0.69094886  1
  Zn  Zn111  1  0.68615730  0.18637114  0.18896816  1
  Zn  Zn112  1  0.68588180  0.18399168  0.68737468  1
  Zn  Zn113  1  0.68690518  0.68470486  0.19181904  1
  Zn  Zn114  1  0.69106264  0.69074611  0.68920113  1
  Zn  Zn115  1  0.31527487  0.31515875  0.31860007  1
  Zn  Zn116  1  0.30647631  0.31447630  0.80610097  1
  Zn  Zn117  1  0.31090510  0.81256626  0.31572695  1
  Zn  Zn118  1  0.31177646  0.81620119  0.81186051  1
  Zn  Zn119  1  0.81281347  0.31319972  0.31176080  1
  Zn  Zn120  1  0.81062821  0.31174522  0.81314331  1
  Zn  Zn121  1  0.80870662  0.81230769  0.31200592  1
  Zn  Zn122  1  0.80973008  0.81288148  0.81142070  1
  Zn  Zn123  1  0.18732416  0.43753676  0.43480500  1
  Zn  Zn124  1  0.19655018  0.44271448  0.93292404  1
  Zn  Zn125  1  0.18543446  0.93578924  0.43627942  1
  Zn  Zn126  1  0.19313017  0.93679700  0.93386900  1
  Zn  Zn127  1  0.69103263  0.43792962  0.43792044  1
  Zn  Zn128  1  0.69339033  0.43552131  0.93803522  1
  Zn  Zn129  1  0.68195443  0.93220167  0.43543829  1
  Zn  Zn130  1  0.68664502  0.93560953  0.94060726  1
  Zn  Zn131  1  0.31349129  0.06274981  0.06228686  1
  Zn  Zn132  1  0.30886982  0.06748698  0.56423111  1
  Zn  Zn133  1  0.31928235  0.56804306  0.06130176  1
  Zn  Zn134  1  0.33334689  0.52924816  0.57598379  1
  Zn  Zn135  1  0.81229142  0.06104902  0.05895964  1
  Zn  Zn136  1  0.81248074  0.06405594  0.56342573  1
  Zn  Zn137  1  0.81238025  0.56199922  0.06494268  1
  Zn  Zn138  1  0.80888006  0.56099719  0.56332873  1
  Zn  Zn139  1  0.43855276  0.44215427  0.19024074  1
  Zn  Zn140  1  0.43717894  0.42932748  0.67612694  1
  Zn  Zn141  1  0.43477910  0.93330162  0.18378159  1
  Zn  Zn142  1  0.43596574  0.93696198  0.67954962  1
  Zn  Zn143  1  0.96115259  0.40874514  0.14581795  1
  Zn  Zn144  1  0.93455228  0.43750816  0.69136491  1
  Zn  Zn145  1  0.93662154  0.93895201  0.18442957  1
  Zn  Zn146  1  0.93462113  0.93929316  0.68657192  1
  Zn  Zn147  1  0.06109305  0.06220491  0.31313611  1
  Zn  Zn148  1  0.06561690  0.06577151  0.81179219  1
  Zn  Zn149  1  0.06634115  0.56135798  0.30444456  1
  Zn  Zn150  1  0.06146059  0.56931161  0.81344882  1
  Zn  Zn151  1  0.56114754  0.05849416  0.31179268  1
  Zn  Zn152  1  0.56296893  0.06354397  0.81202277  1
  Zn  Zn153  1  0.56858443  0.56517873  0.30743182  1
  Zn  Zn154  1  0.56060522  0.56746546  0.81067153  1
  Zn  Zn155  1  0.43480615  0.18709404  0.44202290  1
  Zn  Zn156  1  0.43660652  0.19861211  0.93661401  1
  Zn  Zn157  1  0.43359933  0.66967577  0.44424566  1
  Zn  Zn158  1  0.44539345  0.68000903  0.93778873  1
  Zn  Zn159  1  0.93802219  0.18993398  0.43518816  1
  Zn  Zn160  1  0.93936961  0.18144617  0.93556723  1
  Zn  Zn161  1  0.93240840  0.68681228  0.43560058  1
  Zn  Zn162  1  0.93728275  0.68529884  0.93695429  1
  Zn  Zn163  1  0.06731457  0.30464594  0.06030487  1
  Zn  Zn164  1  0.06438359  0.31541745  0.56356624  1
  Zn  Zn165  1  0.06536809  0.81190642  0.06331729  1
  Zn  Zn166  1  0.05909261  0.81006892  0.56247938  1
  Zn  Zn167  1  0.56994334  0.31543060  0.05714917  1
  Zn  Zn168  1  0.55872071  0.31503888  0.56524218  1
  Zn  Zn169  1  0.56331954  0.81660550  0.05881473  1
  Zn  Zn170  1  0.53875338  0.78702525  0.52423563  1
  O  O171  1  0.12759354  0.11698370  0.11245480  1
  O  O172  1  0.11823997  0.11603299  0.62020622  1
  O  O173  1  0.11370902  0.62619399  0.12125488  1
  O  O174  1  0.11387056  0.61956453  0.62087632  1
  O  O175  1  0.61297446  0.12150817  0.12439627  1
  O  O176  1  0.62137517  0.11414082  0.61837012  1
  O  O177  1  0.61535540  0.60955726  0.13252793  1
  O  O178  1  0.61063504  0.63125027  0.63911898  1
  O  O179  1  0.37608226  0.37654748  0.38636185  1
  O  O180  1  0.36813929  0.39406296  0.86496310  1
  O  O181  1  0.37507311  0.87478242  0.38919943  1
  O  O182  1  0.38169904  0.87684530  0.88653794  1
  O  O183  1  0.88325036  0.37463107  0.38210677  1
  O  O184  1  0.86925323  0.39117530  0.87286449  1
  O  O185  1  0.87551710  0.88225688  0.38014352  1
  O  O186  1  0.86867796  0.88816664  0.87643418  1
  O  O187  1  0.24923109  0.00098770  0.36066035  1
  O  O188  1  0.25230099  0.00855261  0.86443685  1
  O  O189  1  0.24488124  0.51302248  0.36503284  1
  O  O190  1  0.25801988  0.51384589  0.86496318  1
  O  O191  1  0.75401621  0.00600971  0.37067788  1
  O  O192  1  0.75331143  0.00407593  0.86962192  1
  O  O193  1  0.75384962  0.50552233  0.36762015  1
  O  O194  1  0.75852307  0.50847364  0.87017378  1
  O  O195  1  0.25252061  0.50992047  0.13745233  1
  O  O196  1  0.23268201  0.51831878  0.63991100  1
  O  O197  1  0.24585383  0.99260192  0.13301207  1
  O  O198  1  0.23921855  1.00982724  0.63912973  1
  O  O199  1  0.74110864  0.49250734  0.12993396  1
  O  O200  1  0.75746787  0.49117218  0.63722493  1
  O  O201  1  0.74491084  0.99491083  0.12755567  1
  O  O202  1  0.74414760  0.99684945  0.63076734  1
  O  O203  1  0.00881710  0.36447573  0.25290570  1
  O  O204  1  0.00678540  0.36468207  0.74820999  1
  O  O205  1  0.00646362  0.86464633  0.24640298  1
  O  O206  1  -0.00297202  0.86004911  0.74440940  1
  O  O207  1  0.51023297  0.36419093  0.24458275  1
  O  O208  1  0.50095961  0.36543849  0.73693190  1
  O  O209  1  0.50225841  0.89864610  0.26141340  1
  O  O210  1  0.48952665  0.88188396  0.76594562  1
  O  O211  1  0.49239140  0.13059762  0.24241915  1
  O  O212  1  0.50447161  0.12389802  0.73606879  1
  O  O213  1  0.48957822  0.62298834  0.24332238  1
  O  O214  1  0.48693133  0.62323773  0.73972056  1
  O  O215  1  0.99161972  0.12981515  0.25039088  1
  O  O216  1  1.00112047  0.13765282  0.74401897  1
  O  O217  1  1.00127645  0.63720134  0.23982384  1
  O  O218  1  0.99004010  0.63372243  0.74219884  1
  O  O219  1  0.36505450  0.24471610  0.01120443  1
  O  O220  1  0.35688783  0.24981505  0.49851062  1
  O  O221  1  0.38129357  0.76171172  -0.00460093  1
  O  O222  1  0.36304230  0.75303618  0.50683591  1
  O  O223  1  0.86205566  0.24102289  -0.00319409  1
  O  O224  1  0.87020222  0.25833089  0.50466708  1
  O  O225  1  0.86841840  0.75086372  0.00738329  1
  O  O226  1  0.86941726  0.75632621  0.50651625  1
  O  O227  1  0.12899632  0.24503361  0.49327117  1
  O  O228  1  0.13401386  0.23904488  0.99752042  1
  O  O229  1  0.12864264  0.74331102  0.49523261  1
  O  O230  1  0.11862056  0.74638182  0.98487709  1
  O  O231  1  0.62959778  0.24645358  0.49497791  1
  O  O232  1  0.63756037  0.24750085  0.98694770  1
  O  O233  1  0.64628082  0.75135930  0.50707359  1
  O  O234  1  0.63803442  0.75114973  0.99432384  1
  O  O235  1  0.49378317  0.24128968  0.13439307  1
  O  O236  1  0.50519735  0.23392396  0.62534856  1
  O  O237  1  0.51041468  0.73181635  0.11566550  1
  O  O238  1  0.48345253  0.73522516  0.61334122  1
  O  O239  1  1.00854632  0.24167461  0.14163312  1
  O  O240  1  0.99720917  0.24687306  0.63361215  1
  O  O241  1  0.99439401  0.74349206  0.12975107  1
  O  O242  1  0.99428542  0.73983395  0.63291628  1
  O  O243  1  0.01034699  0.25658982  0.36604209  1
  O  O244  1  0.00768067  0.24255787  0.86520696  1
  O  O245  1  0.00332781  0.74980480  0.36362219  1
  O  O246  1  0.01233141  0.73933256  0.86513377  1
  O  O247  1  0.50506825  0.24046480  0.36229402  1
  O  O248  1  0.51933432  0.24015372  0.87065749  1
  O  O249  1  0.50788149  0.75078736  0.41387292  1
  O  O250  1  0.51635173  0.75389153  0.88000499  1
  O  O251  1  0.24210149  0.13636252  0.49803986  1
  O  O252  1  0.24148021  0.12477018  0.99213590  1
  O  O253  1  0.24127746  0.63380121  0.48693161  1
  O  O254  1  0.25260934  0.62662853  0.98587798  1
  O  O255  1  0.74468156  0.13109810  0.49575159  1
  O  O256  1  0.74688951  0.12935480  0.99219958  1
  O  O257  1  0.76126969  0.63237015  0.49046759  1
  O  O258  1  0.75614392  0.63408106  0.98915064  1
  O  O259  1  0.24427262  0.36102116  -0.00297791  1
  O  O260  1  0.23922053  0.35710950  0.49634822  1
  O  O261  1  0.26598372  0.87985595  0.00488920  1
  O  O262  1  0.25420873  0.86185694  0.49443912  1
  O  O263  1  0.74807855  0.36731945  0.01506586  1
  O  O264  1  0.75927921  0.36988718  0.50758797  1
  O  O265  1  0.75323414  0.86529790  0.00765049  1
  O  O266  1  0.75656312  0.86811162  0.50511404  1
  O  O267  1  0.13590706  0.49172888  0.24406429  1
  O  O268  1  0.12770972  0.49769327  0.74722567  1
  O  O269  1  0.13113787  0.99538010  0.24399779  1
  O  O270  1  0.12717292  0.99638833  0.74265658  1
  O  O271  1  0.63501289  0.49101877  0.24315774  1
  O  O272  1  0.64044481  0.49856917  0.76179884  1
  O  O273  1  0.63488678  1.00575610  0.24137343  1
  O  O274  1  0.63631594  1.00391844  0.74109582  1
  O  O275  1  0.36483945  0.00874612  0.24790872  1
  O  O276  1  0.36041441  -0.00143986  0.74677911  1
  O  O277  1  0.36891587  0.50736492  0.25499475  1
  O  O278  1  0.36451248  0.51299430  0.75735979  1
  O  O279  1  0.87019788  0.00782068  0.25529775  1
  O  O280  1  0.86656613  0.00273215  0.75675674  1
  O  O281  1  0.86106822  0.49623088  0.24813400  1
  O  O282  1  0.86765721  0.50950452  0.75973760  1
  O  O283  1  0.11746444  0.36752382  0.36634679  1
  O  O284  1  0.12495445  0.37167779  0.86570749  1
  O  O285  1  0.12223537  0.86690866  0.36635901  1
  O  O286  1  0.12781365  0.86027885  0.87475724  1
  O  O287  1  0.63344125  0.36732052  0.36279350  1
  O  O288  1  0.63344269  0.36229802  0.87265424  1
  O  O289  1  0.61742225  0.86680707  0.37226939  1
  O  O290  1  0.61766424  0.86346971  0.88096979  1
  O  O291  1  0.38305731  0.12882404  0.13458770  1
  O  O292  1  0.39025307  0.12021005  0.62334380  1
  O  O293  1  0.38888976  0.62102954  0.13780952  1
  O  O294  1  0.37821004  0.62810102  0.63368978  1
  O  O295  1  0.87398871  0.11998460  0.13913724  1
  O  O296  1  0.88214746  0.13263933  0.62574358  1
  O  O297  1  0.88516306  0.63384037  0.12663977  1
  O  O298  1  0.87932416  0.62820483  0.63393106  1
  O  O299  1  0.26026553  0.24376839  0.11587636  1
  O  O300  1  0.24097679  0.24972754  0.61475022  1
  O  O301  1  0.24501848  0.76216817  0.12762883  1
  O  O302  1  0.25466313  0.73838567  0.61239640  1
  O  O303  1  0.74044076  0.26043894  0.11866311  1
  O  O304  1  0.75716385  0.25601502  0.62102534  1
  O  O305  1  0.75773311  0.75032259  0.11846271  1
  O  O306  1  0.75818062  0.75389723  0.62035285  1
  O  O307  1  0.23595587  0.24633991  0.37645384  1
  O  O308  1  0.24200448  0.24324281  0.88560482  1
  O  O309  1  0.24242481  0.74025476  0.38007165  1
  O  O310  1  0.23498868  0.74501451  0.86549992  1
  O  O311  1  0.74408247  0.24448624  0.38056814  1
  O  O312  1  0.74709914  0.24111317  0.88157846  1
  O  O313  1  0.75627108  0.74003022  0.38417372  1
  O  O314  1  0.74217685  0.74628009  0.88122889  1
  O  O315  1  0.01245699  0.11645284  0.00043268  1
  O  O316  1  0.00457134  0.12062506  0.50506293  1
  O  O317  1  -0.00022462  0.62575774  0.01416702  1
  O  O318  1  0.00318515  0.63101117  0.51124986  1
  O  O319  1  0.49896670  0.11992091  0.00924404  1
  O  O320  1  0.50379048  0.11916939  0.51054549  1
  O  O321  1  0.49223936  0.60950271  0.01688937  1
  O  O322  1  0.50899789  0.61660323  0.51544570  1
  O  O323  1  0.50050084  0.39513754  0.51102857  1
  O  O324  1  0.49688615  0.37522088  1.00404788  1
  O  O325  1  0.48551699  0.88941816  0.50288401  1
  O  O326  1  0.48983951  0.88175117  0.99386081  1
  O  O327  1  0.99250278  0.36678693  0.48716120  1
  O  O328  1  0.98962221  0.37873484  1.03682573  1
  O  O329  1  0.99206957  0.88088224  0.49877389  1
  O  O330  1  1.00063412  0.88766538  1.00219279  1
  O  O331  1  0.51118139  0.50752854  0.38710559  1
  O  O332  1  0.48392663  0.51052097  0.87343523  1
  O  O333  1  0.49406243  1.01084513  0.39245620  1
  O  O334  1  0.50166034  0.99344800  0.88283936  1
  O  O335  1  1.00081535  0.48539608  0.36402549  1
  O  O336  1  0.98448322  0.50782005  0.87405067  1
  O  O337  1  0.99354922  0.99786773  0.38208481  1
  O  O338  1  0.99036252  1.00850597  0.88143398  1
  O  O339  1  0.00684855  0.00227016  0.11418646  1
  O  O340  1  0.00555822  0.00630680  0.62015214  1
  O  O341  1  0.00120188  0.51769654  0.13467404  1
  O  O342  1  0.00637429  0.51249158  0.63487134  1
  O  O343  1  0.50314046  0.00916644  0.11753585  1
  O  O344  1  0.50646178  0.00764471  0.61812632  1
  O  O345  1  0.51469710  0.50228413  0.12776113  1
  O  O346  1  0.50169921  0.51494574  0.61967949  1
  O  O347  1  0.24240014  0.38574508  0.25908757  1
  O  O348  1  0.23508560  0.39121545  0.75445921  1
  O  O349  1  0.24808613  0.88208059  0.24161162  1
  O  O350  1  0.24496310  0.89366270  0.75613128  1
  O  O351  1  0.74079545  0.37701762  0.24234009  1
  O  O352  1  0.75373604  0.38404240  0.74185795  1
  O  O353  1  0.75159495  0.88379375  0.24146647  1
  O  O354  1  0.75524318  0.88669569  0.74086029  1
  O  O355  1  0.25636416  0.11646869  0.24724506  1
  O  O356  1  0.23838052  0.11183731  0.76294427  1
  O  O357  1  0.25994323  0.61954265  0.25498447  1
  O  O358  1  0.25600640  0.62024022  0.75952834  1
  O  O359  1  0.75700076  0.12185622  0.25548189  1
  O  O360  1  0.75293415  0.11408432  0.75792425  1
  O  O361  1  0.75487294  0.61443491  0.25587705  1
  O  O362  1  0.75825213  0.61961350  0.75694271  1
  O  O363  1  0.37198309  0.12457020  0.36042750  1
  O  O364  1  0.36366437  0.12084575  0.88524364  1
  O  O365  1  0.36622332  0.62576930  0.36076361  1
  O  O366  1  0.36882154  0.62985454  0.86495381  1
  O  O367  1  0.86893567  0.11962948  0.36836724  1
  O  O368  1  0.86329037  0.11348526  0.87375788  1
  O  O369  1  0.86861349  0.61947791  0.36863640  1
  O  O370  1  0.86488940  0.62346035  0.86639420  1
  O  O371  1  0.12541309  0.37313128  0.14058208  1
  O  O372  1  0.11560483  0.39008836  0.63717558  1
  O  O373  1  0.13501060  0.87991841  0.12779637  1
  O  O374  1  0.12030718  0.88843548  0.62373331  1
  O  O375  1  0.63325560  0.38410943  0.13599661  1
  O  O376  1  0.64243532  0.36802563  0.62822341  1
  O  O377  1  0.63110464  0.88346798  0.12512401  1
  O  O378  1  0.63101342  0.89100493  0.61688448  1
  O  O379  1  0.12162651  0.25363977  0.25731594  1
  O  O380  1  0.11978325  0.26018120  0.75546895  1
  O  O381  1  0.11782824  0.75400565  0.25316758  1
  O  O382  1  0.11615688  0.75199036  0.75561355  1
  O  O383  1  0.61663571  0.25557733  0.25442343  1
  O  O384  1  0.63621514  0.25173358  0.76575778  1
  O  O385  1  0.62566051  0.75269086  0.25176643  1
  O  O386  1  0.63304772  0.75743986  0.76382224  1
  O  O387  1  0.37986715  0.24317241  0.24416106  1
  O  O388  1  0.36164036  0.23206052  0.76357799  1
  O  O389  1  0.37334552  0.73808316  0.25151233  1
  O  O390  1  0.36360423  0.74291930  0.73710510  1
  O  O391  1  0.88566526  0.23923902  0.25896466  1
  O  O392  1  0.88427699  0.24982086  0.74612289  1
  O  O393  1  0.88328288  0.75077992  0.23879047  1
  O  O394  1  0.87841267  0.74174397  0.74715360  1
  O  O395  1  0.39684753  0.51800530  0.48384811  1
  O  O396  1  0.36889090  0.50464262  0.97972690  1
  O  O397  1  0.37513465  0.99223518  0.50204176  1
  O  O398  1  0.38793844  0.99573406  0.99937631  1
  O  O399  1  0.87315788  0.48477654  0.50086057  1
  O  O400  1  0.87033002  0.50461157  0.98472083  1
  O  O401  1  0.87920363  0.99602645  0.49553395  1
  O  O402  1  0.88446774  0.99906734  0.99177258  1
  O  O403  1  0.12077235  0.00417323  -0.00016246  1
  O  O404  1  0.12120938  0.00500929  0.50634942  1
  O  O405  1  0.12508421  0.50310876  -0.00031630  1
  O  O406  1  0.13156427  0.50670384  0.51205503  1
  O  O407  1  0.61237549  0.00136524  0.00596562  1
  O  O408  1  0.61608608  0.00595337  0.50575398  1
  O  O409  1  0.62902601  0.49588737  0.01519852  1
  O  O410  1  0.61940254  0.49912123  0.50110957  1
  O  O411  1  0.37685842  0.36269522  0.13453254  1
  O  O412  1  0.35374597  0.41716730  0.60532421  1
  O  O413  1  0.36962419  0.87615321  0.10964455  1
  O  O414  1  0.37603428  0.86238770  0.61363704  1
  O  O415  1  0.85343577  0.37414121  0.13704997  1
  O  O416  1  0.87090169  0.36975863  0.61840042  1
  O  O417  1  0.86983946  0.86406686  0.12236029  1
  O  O418  1  0.86775738  0.87058589  0.61847054  1
  O  O419  1  0.12361057  0.13340330  0.38120987  1
  O  O420  1  0.13251991  0.13143821  0.88461427  1
  O  O421  1  0.13011950  0.62908274  0.37689802  1
  O  O422  1  0.13439810  0.63490394  0.87478008  1
  O  O423  1  0.63026510  0.13049486  0.38062373  1
  O  O424  1  0.63798277  0.13003466  0.87527064  1
  O  O425  1  0.64396027  0.62712064  0.36958255  1
  O  O426  1  0.63573373  0.63900962  0.86889194  1
