# generated using pymatgen
data_V85Zn86O256
_symmetry_space_group_name_H-M   'P 1'
_cell_length_a   16.97650589
_cell_length_b   16.98982743
_cell_length_c   16.99254066
_cell_angle_alpha   89.89619760
_cell_angle_beta   90.25598650
_cell_angle_gamma   89.93780470
_symmetry_Int_Tables_number   1
_chemical_formula_structural   V85Zn86O256
_chemical_formula_sum   'V85 Zn86 O256'
_cell_volume   4901.06302273
_cell_formula_units_Z   1
loop_
 _symmetry_equiv_pos_site_id
 _symmetry_equiv_pos_as_xyz
  1  'x, y, z'
loop_
 _atom_site_type_symbol
 _atom_site_label
 _atom_site_symmetry_multiplicity
 _atom_site_fract_x
 _atom_site_fract_y
 _atom_site_fract_z
 _atom_site_occupancy
  V  V0  1  0.49979113  0.12694717  0.13031617  1
  V  V1  1  0.49387756  0.63001631  0.12282953  1
  V  V2  1  0.62562082  0.12294773  0.00036138  1
  V  V3  1  0.37857440  0.49682353  0.36595935  1
  V  V4  1  0.88325228  0.13249465  0.73879482  1
  V  V5  1  0.87825454  0.87247184  0.50068014  1
  V  V6  1  0.00105051  0.37197849  0.37646001  1
  V  V7  1  0.23336526  0.61180850  0.36469321  1
  V  V8  1  0.86951381  0.74874901  0.12010271  1
  V  V9  1  0.37310804  0.37459718  0.00020056  1
  V  V10  1  0.61862622  0.60385440  0.49802111  1
  V  V11  1  0.74893437  -0.00341598  0.25147457  1
  V  V12  1  0.12331800  0.62541651  -0.00006156  1
  V  V13  1  -0.00294247  0.62454815  0.12387336  1
  V  V14  1  0.74554393  0.37304086  0.62374026  1
  V  V15  1  0.24955831  0.37755625  0.13060774  1
  V  V16  1  0.74848886  0.87138063  0.12379133  1
  V  V17  1  -0.00184456  0.62068414  0.62332525  1
  V  V18  1  0.87616027  0.12274941  0.25140786  1
  V  V19  1  0.37674770  0.37509156  0.51061979  1
  V  V20  1  0.25612464  0.74871013  0.00555855  1
  V  V21  1  0.25161274  0.87477500  0.12410654  1
  V  V22  1  0.12420893  0.12427191  -0.00095199  1
  V  V23  1  0.86976871  0.87223818  -0.00124005  1
  V  V24  1  0.49723202  0.36823921  0.36922637  1
  V  V25  1  0.74264274  0.12374434  0.37907478  1
  V  V26  1  0.74154933  0.50168121  0.74226281  1
  V  V27  1  0.25146346  0.12404135  0.87350005  1
  V  V28  1  -0.00253261  0.49930462  -0.00127349  1
  V  V29  1  0.49896439  0.50075750  -0.00142454  1
  V  V30  1  0.62614038  0.63271200  -0.00239364  1
  V  V31  1  0.12517431  0.75004724  0.87545152  1
  V  V32  1  0.50657365  0.14285816  0.61693440  1
  V  V33  1  0.74902879  0.24880298  -0.00067214  1
  V  V34  1  0.00123296  0.12369505  0.12578606  1
  V  V35  1  0.50144191  0.74601469  0.25535023  1
  V  V36  1  -0.00169986  0.74963202  0.74797584  1
  V  V37  1  0.87510064  0.24877292  0.12618157  1
  V  V38  1  0.62407674  0.49949817  0.12378831  1
  V  V39  1  0.25151221  0.75824647  0.47614720  1
  V  V40  1  0.87105271  0.50123105  0.37687156  1
  V  V41  1  0.87569230  0.00021261  0.37616176  1
  V  V42  1  0.74904579  0.37346631  0.12382822  1
  V  V43  1  0.74970913  0.49760206  0.25079879  1
  V  V44  1  0.48708493  0.87602323  0.38079999  1
  V  V45  1  0.75153478  0.12602151  0.87193932  1
  V  V46  1  0.25347090  0.25542682  0.51739813  1
  V  V47  1  0.00114495  0.24890277  0.25290017  1
  V  V48  1  0.38570384  0.13929548  0.74699892  1
  V  V49  1  0.73923810  0.75013183  0.49172011  1
  V  V50  1  0.37451706  0.11938971  0.25454560  1
  V  V51  1  0.12244287  0.00173286  0.62489734  1
  V  V52  1  0.62391419  0.86709404  0.25892282  1
  V  V53  1  0.49867772  -0.00524681  -0.00601577  1
  V  V54  1  0.87354382  0.37438975  -0.00140413  1
  V  V55  1  0.25062001  0.62125304  0.86780774  1
  V  V56  1  0.37669168  0.87339878  -0.00535115  1
  V  V57  1  0.14006118  0.38918151  0.73624605  1
  V  V58  1  0.87158492  0.50000804  0.87353498  1
  V  V59  1  0.00174802  0.37257463  0.86923534  1
  V  V60  1  0.01127188  0.50510230  0.50308300  1
  V  V61  1  0.13150544  0.24830373  0.37577968  1
  V  V62  1  0.37807146  0.24972667  0.13044878  1
  V  V63  1  0.87437043  0.36993696  0.50651788  1
  V  V64  1  0.61906526  0.36545221  0.24897315  1
  V  V65  1  0.00996707  0.87004421  0.37504312  1
  V  V66  1  0.37310644  0.62353260  0.24639367  1
  V  V67  1  0.36810438  0.50114241  0.86261101  1
  V  V68  1  0.12833085  0.87319661  0.74692205  1
  V  V69  1  0.62249058  0.37091330  0.74922758  1
  V  V70  1  0.00400893  0.75011031  0.25266332  1
  V  V71  1  0.74406199  0.63242359  0.87674878  1
  V  V72  1  0.86802548  0.62642764  0.75038011  1
  V  V73  1  0.25242612  -0.00043543  0.25639567  1
  V  V74  1  0.12730339  0.49733176  0.12878236  1
  V  V75  1  0.87554718  0.00141856  0.87214829  1
  V  V76  1  0.87006790  0.75186000  0.62393743  1
  V  V77  1  -0.00061335  0.87417308  0.87451483  1
  V  V78  1  0.74243059  0.24808551  0.49967681  1
  V  V79  1  0.11703040  0.12665102  0.51133966  1
  V  V80  1  0.50352538  0.61231765  0.62912668  1
  V  V81  1  0.26267275  0.86665744  0.62042124  1
  V  V82  1  0.48649640  0.75884363  0.74396586  1
  V  V83  1  0.62420632  -0.00314234  0.12563219  1
  V  V84  1  0.49919180  0.36892658  0.87142084  1
  Zn  Zn85  1  0.73876378  0.63071884  0.36899363  1
  Zn  Zn86  1  0.49178890  0.01049691  0.49856832  1
  Zn  Zn87  1  0.24646252  0.24855200  0.00084222  1
  Zn  Zn88  1  0.00033442  -0.00189505  0.00354822  1
  Zn  Zn89  1  0.00387265  0.25371806  0.73353998  1
  Zn  Zn90  1  0.37793693  -0.00238514  0.87053174  1
  Zn  Zn91  1  0.12415963  0.25111894  0.86973500  1
  Zn  Zn92  1  0.87039183  0.62698643  0.24949610  1
  Zn  Zn93  1  0.61590628  0.24034404  0.37403603  1
  Zn  Zn94  1  0.73769840  0.87749403  0.62385546  1
  Zn  Zn95  1  0.61761028  0.24541822  0.87188143  1
  Zn  Zn96  1  0.17051583  0.62244460  0.55641608  1
  Zn  Zn97  1  0.12320722  -0.00080532  0.12886423  1
  Zn  Zn98  1  0.61900535  0.00199129  0.61853191  1
  Zn  Zn99  1  0.25679860  0.11461446  0.38718682  1
  Zn  Zn100  1  0.61143458  0.76159826  0.87455118  1
  Zn  Zn101  1  0.62328590  0.87848824  0.75237271  1
  Zn  Zn102  1  -0.00115833  0.00505909  0.50115617  1
  Zn  Zn103  1  0.74540109  -0.00015746  0.74058839  1
  Zn  Zn104  1  0.12858268  0.87402919  0.25311427  1
  Zn  Zn105  1  0.12977334  0.37649982  0.25363699  1
  Zn  Zn106  1  0.25590221  0.00174399  0.74647812  1
  Zn  Zn107  1  0.19000852  0.18743875  0.18659402  1
  Zn  Zn108  1  0.18726015  0.19578645  0.69593297  1
  Zn  Zn109  1  0.18565209  0.68674559  0.18606416  1
  Zn  Zn110  1  0.31366177  0.66908823  0.67616106  1
  Zn  Zn111  1  0.68923536  0.18405724  0.18819187  1
  Zn  Zn112  1  0.68933267  0.18959890  0.68650939  1
  Zn  Zn113  1  0.68456614  0.68616294  0.18514440  1
  Zn  Zn114  1  0.67420739  0.69290294  0.68491420  1
  Zn  Zn115  1  0.31325683  0.30809355  0.31084255  1
  Zn  Zn116  1  0.30790452  0.31165525  0.81411594  1
  Zn  Zn117  1  0.31413140  0.80431409  0.30123875  1
  Zn  Zn118  1  0.31400816  0.80743400  0.81221038  1
  Zn  Zn119  1  0.81246857  0.30965530  0.31593384  1
  Zn  Zn120  1  0.81229002  0.31152497  0.80976592  1
  Zn  Zn121  1  0.81701455  0.81207516  0.31136374  1
  Zn  Zn122  1  0.80569090  0.81591830  0.81061483  1
  Zn  Zn123  1  0.19081180  0.43852470  0.44063345  1
  Zn  Zn124  1  0.18562872  0.43858359  0.93747415  1
  Zn  Zn125  1  0.31855011  0.93637266  0.44108273  1
  Zn  Zn126  1  0.18851083  0.94020523  0.93745085  1
  Zn  Zn127  1  0.68410666  0.43227856  0.43457062  1
  Zn  Zn128  1  0.68496721  0.44123200  0.93392401  1
  Zn  Zn129  1  0.68046997  0.93876918  0.44421301  1
  Zn  Zn130  1  0.68683147  0.93718806  0.93415223  1
  Zn  Zn131  1  0.31149140  0.05849715  0.06388439  1
  Zn  Zn132  1  0.31466862  0.06693408  0.57088853  1
  Zn  Zn133  1  0.31059600  0.56036453  0.05810427  1
  Zn  Zn134  1  0.33004361  0.55999471  0.54723723  1
  Zn  Zn135  1  0.81321952  0.05893052  0.06184518  1
  Zn  Zn136  1  0.80593433  0.05921602  0.56018855  1
  Zn  Zn137  1  0.80975312  0.56236297  0.06025045  1
  Zn  Zn138  1  0.80895044  0.56328879  0.56066036  1
  Zn  Zn139  1  0.43798908  0.44046823  0.18648756  1
  Zn  Zn140  1  0.44182938  0.43903368  0.68801766  1
  Zn  Zn141  1  0.43598665  0.93470501  0.18412985  1
  Zn  Zn142  1  0.44077790  0.95269040  0.68748551  1
  Zn  Zn143  1  0.93771470  0.43600693  0.18774454  1
  Zn  Zn144  1  0.93440454  0.43804548  0.68693433  1
  Zn  Zn145  1  0.93827143  0.93543404  0.18813415  1
  Zn  Zn146  1  0.93780021  0.94088239  0.68711181  1
  Zn  Zn147  1  0.06746836  0.06045304  0.31847930  1
  Zn  Zn148  1  0.06254717  0.06111718  0.81241375  1
  Zn  Zn149  1  0.05186994  0.55816318  0.30701236  1
  Zn  Zn150  1  0.06193280  0.56445335  0.80932562  1
  Zn  Zn151  1  0.55986858  0.05349229  0.31327147  1
  Zn  Zn152  1  0.56365681  0.06082851  0.80705463  1
  Zn  Zn153  1  0.56107568  0.55767657  0.31504629  1
  Zn  Zn154  1  0.55813970  0.56157491  0.81245246  1
  Zn  Zn155  1  0.43408727  0.19219871  0.43857272  1
  Zn  Zn156  1  0.43479313  0.18481545  0.94063598  1
  Zn  Zn157  1  0.43606678  0.68572538  0.43951616  1
  Zn  Zn158  1  0.43487798  0.68742198  0.93000373  1
  Zn  Zn159  1  0.93306441  0.19481415  0.56253400  1
  Zn  Zn160  1  0.93891723  0.18881399  0.93648386  1
  Zn  Zn161  1  0.93552211  0.68608626  0.43669023  1
  Zn  Zn162  1  0.93502338  0.68745545  0.93570867  1
  Zn  Zn163  1  0.06179441  0.31063697  0.06000110  1
  Zn  Zn164  1  0.07032986  0.32162117  0.56576391  1
  Zn  Zn165  1  0.06202684  0.81271154  0.06394967  1
  Zn  Zn166  1  0.07151034  0.80356529  0.56004027  1
  Zn  Zn167  1  0.56179060  0.31027814  0.05984946  1
  Zn  Zn168  1  0.56096849  0.31726899  0.56134586  1
  Zn  Zn169  1  0.56007528  0.81168280  0.06506136  1
  Zn  Zn170  1  0.55473682  0.81217780  0.56917427  1
  O  O171  1  0.11903349  0.12555167  0.11666458  1
  O  O172  1  0.13184380  0.12114831  0.61792024  1
  O  O173  1  0.11827328  0.61658102  0.11977350  1
  O  O174  1  0.09464914  0.62827051  0.64125432  1
  O  O175  1  0.61867318  0.11841090  0.12222682  1
  O  O176  1  0.60961187  0.12955130  0.63323257  1
  O  O177  1  0.61707165  0.61893054  0.11637057  1
  O  O178  1  0.61794051  0.62893102  0.60654498  1
  O  O179  1  0.38092388  0.37977025  0.36757752  1
  O  O180  1  0.37874900  0.38041443  0.88379169  1
  O  O181  1  0.38281694  0.87095275  0.36743022  1
  O  O182  1  0.36538708  0.87839930  0.89016652  1
  O  O183  1  0.88253089  0.38077715  0.38235017  1
  O  O184  1  0.87899849  0.38044955  0.87895986  1
  O  O185  1  0.87879965  0.88445072  0.38198239  1
  O  O186  1  0.87722906  0.88096138  0.88062135  1
  O  O187  1  0.25582344  -0.00202916  0.36033805  1
  O  O188  1  0.25028841  0.01293906  0.87256992  1
  O  O189  1  0.25471895  0.50755663  0.36871117  1
  O  O190  1  0.25696242  0.50916794  0.88508227  1
  O  O191  1  0.75520814  0.00232549  0.37212280  1
  O  O192  1  0.76173218  0.01216989  0.87684933  1
  O  O193  1  0.75661720  0.49375335  0.36502400  1
  O  O194  1  0.75377396  0.50776482  0.86541546  1
  O  O195  1  0.23806785  0.49076781  0.11684680  1
  O  O196  1  0.25406301  0.58385599  0.62207491  1
  O  O197  1  0.24664587  0.99094566  0.13294010  1
  O  O198  1  0.23570796  0.99329193  0.62529491  1
  O  O199  1  0.74570096  0.49318698  0.13213135  1
  O  O200  1  0.75207901  0.49278228  0.63529782  1
  O  O201  1  0.74506104  0.99275106  0.13174587  1
  O  O202  1  0.74077556  0.99625974  0.62186772  1
  O  O203  1  -0.00025965  0.36925134  0.26137172  1
  O  O204  1  -0.00044323  0.37802205  0.76014760  1
  O  O205  1  -0.00110740  0.86671115  0.25759744  1
  O  O206  1  0.00513679  0.86999683  0.75463990  1
  O  O207  1  0.51012895  0.37849164  0.25256819  1
  O  O208  1  0.51014216  0.38143974  0.76071224  1
  O  O209  1  0.50422624  0.86483356  0.25180588  1
  O  O210  1  0.48764214  0.86112952  0.74343839  1
  O  O211  1  0.49258245  0.11414438  0.23682025  1
  O  O212  1  0.48948634  0.13141554  0.75204663  1
  O  O213  1  0.49653829  0.62733488  0.24243923  1
  O  O214  1  0.50757077  0.62643677  0.73355669  1
  O  O215  1  0.99561826  0.12949626  0.24809384  1
  O  O216  1  0.98622614  0.12803991  0.75443228  1
  O  O217  1  0.99193974  0.63201194  0.24205290  1
  O  O218  1  0.98527766  0.63002582  0.74715852  1
  O  O219  1  0.37530661  0.26117397  0.01056310  1
  O  O220  1  0.36036623  0.26212129  0.49568705  1
  O  O221  1  0.36385267  0.75625827  -0.00440527  1
  O  O222  1  0.35094343  0.74248503  0.49055923  1
  O  O223  1  0.86915357  0.25469356  0.00667258  1
  O  O224  1  0.86310345  0.26433743  0.49713010  1
  O  O225  1  0.87934416  0.75964879  0.00892731  1
  O  O226  1  0.86836798  0.75486621  0.50696911  1
  O  O227  1  0.13642911  0.24765072  0.49658786  1
  O  O228  1  0.12404043  0.23638636  0.99681000  1
  O  O229  1  0.15184026  0.73463730  0.51538927  1
  O  O230  1  0.13021716  0.74515831  0.99436703  1
  O  O231  1  0.63856370  0.26108586  0.49205282  1
  O  O232  1  0.63174437  0.24117235  0.99812492  1
  O  O233  1  0.64085833  0.75804573  0.49851431  1
  O  O234  1  0.61606951  0.73574035  0.99740944  1
  O  O235  1  0.49176828  0.23783108  0.11899136  1
  O  O236  1  0.50106160  0.24373613  0.62523007  1
  O  O237  1  0.50222936  0.73518429  0.13321622  1
  O  O238  1  0.50181193  0.73945861  0.63880172  1
  O  O239  1  0.99389682  0.24512376  0.13226977  1
  O  O240  1  0.99406780  0.26513637  0.62197761  1
  O  O241  1  0.98947909  0.74512809  0.13035941  1
  O  O242  1  0.98670980  0.74391123  0.62720043  1
  O  O243  1  0.01358088  0.26291798  0.37257250  1
  O  O244  1  -0.00256238  0.26381862  0.87206599  1
  O  O245  1  -0.01385932  0.75687634  0.36263383  1
  O  O246  1  0.00362343  0.75436999  0.86880408  1
  O  O247  1  0.49976026  0.26245307  0.37285645  1
  O  O248  1  0.49840995  0.26525512  0.88431717  1
  O  O249  1  0.49526322  0.75545953  0.36039424  1
  O  O250  1  0.49775610  0.73704450  0.85278933  1
  O  O251  1  0.24534716  0.14263168  0.50159122  1
  O  O252  1  0.24182285  0.12357612  0.99436828  1
  O  O253  1  0.25267177  0.63050521  0.46718910  1
  O  O254  1  0.24247220  0.63357895  0.99890942  1
  O  O255  1  0.75761913  0.13626222  0.48931077  1
  O  O256  1  0.74636753  0.12808827  0.99344433  1
  O  O257  1  0.73771159  0.63534797  0.49943335  1
  O  O258  1  0.73729644  0.61733895  0.99025518  1
  O  O259  1  0.25967915  0.37357753  0.00787015  1
  O  O260  1  0.25916988  0.36424317  0.49600331  1
  O  O261  1  0.25439903  0.86815123  0.00511365  1
  O  O262  1  0.25010314  0.86513168  0.50624660  1
  O  O263  1  0.75318711  0.37081999  0.00405245  1
  O  O264  1  0.75521491  0.37034022  0.50475240  1
  O  O265  1  0.76301987  0.88122740  0.00676792  1
  O  O266  1  0.76158962  0.86389316  0.49732423  1
  O  O267  1  0.11490754  0.49487477  0.23236514  1
  O  O268  1  0.11959281  0.48658056  0.75610119  1
  O  O269  1  0.13638810  0.99751034  0.24990143  1
  O  O270  1  0.12328331  0.98838016  0.74321257  1
  O  O271  1  0.63307382  0.49058689  0.24416687  1
  O  O272  1  0.63578030  0.48804976  0.75790423  1
  O  O273  1  0.62970473  0.98749555  0.24390087  1
  O  O274  1  0.62705290  0.99744492  0.74293795  1
  O  O275  1  0.36658959  0.01003753  0.23951933  1
  O  O276  1  0.37296716  0.01731286  0.75615621  1
  O  O277  1  0.37591639  0.51023995  0.25411979  1
  O  O278  1  0.37508540  0.49443613  0.76404437  1
  O  O279  1  0.86880114  0.00057631  0.25780867  1
  O  O280  1  0.87488164  0.01122682  0.75823508  1
  O  O281  1  0.86570856  0.49696854  0.25764497  1
  O  O282  1  0.86250939  0.50677046  0.75461945  1
  O  O283  1  0.11801179  0.37090425  0.37568401  1
  O  O284  1  0.11185436  0.37533140  0.87583116  1
  O  O285  1  0.10822802  0.87412850  0.37547481  1
  O  O286  1  0.12062223  0.87173237  0.86814680  1
  O  O287  1  0.61418493  0.37483272  0.36446049  1
  O  O288  1  0.61527927  0.37395745  0.87040819  1
  O  O289  1  0.61568223  0.87469711  0.36117864  1
  O  O290  1  0.62766150  0.87283049  0.86952044  1
  O  O291  1  0.38132709  0.13181271  0.12859422  1
  O  O292  1  0.38335668  0.13020290  0.64129526  1
  O  O293  1  0.38479083  0.61361194  0.13143052  1
  O  O294  1  0.40219632  0.62861063  0.60674223  1
  O  O295  1  0.87901713  0.12906188  0.13135552  1
  O  O296  1  0.87508958  0.12097322  0.63453472  1
  O  O297  1  0.87788787  0.63278549  0.12215673  1
  O  O298  1  0.87416934  0.63453663  0.63028592  1
  O  O299  1  0.25929612  0.25823741  0.12060789  1
  O  O300  1  0.24935051  0.25354274  0.61498150  1
  O  O301  1  0.24336037  0.75706829  0.11304858  1
  O  O302  1  0.26075482  0.76704615  0.62680397  1
  O  O303  1  0.75565101  0.25353742  0.11953314  1
  O  O304  1  0.74777272  0.26119961  0.61424685  1
  O  O305  1  0.76099512  0.75456536  0.13033555  1
  O  O306  1  0.75907290  0.75004554  0.61270707  1
  O  O307  1  0.23818831  0.25025144  0.37708805  1
  O  O308  1  0.24632560  0.23720413  0.88172121  1
  O  O309  1  0.24098830  0.75066645  0.37341101  1
  O  O310  1  0.24385012  0.74355487  0.88753423  1
  O  O311  1  0.74846667  0.23967106  0.38046316  1
  O  O312  1  0.75302679  0.23890277  0.88188023  1
  O  O313  1  0.76011054  0.74646672  0.38786044  1
  O  O314  1  0.74895944  0.73328495  0.86918992  1
  O  O315  1  0.00608721  0.12401468  0.00633367  1
  O  O316  1  0.01447238  0.13138035  0.50439354  1
  O  O317  1  0.00333743  0.61996615  0.00388285  1
  O  O318  1  -0.00926626  0.61634823  0.50866703  1
  O  O319  1  0.50459749  0.11673185  0.01053752  1
  O  O320  1  0.49700079  0.13537506  0.51257499  1
  O  O321  1  0.50377197  0.62020695  0.00590470  1
  O  O322  1  0.51528902  0.62828355  0.50166613  1
  O  O323  1  0.48231856  0.36717490  0.48845481  1
  O  O324  1  0.49260705  0.38089050  0.99451190  1
  O  O325  1  0.49744347  0.85896662  0.47891505  1
  O  O326  1  0.48855855  0.88281387  1.01080689  1
  O  O327  1  0.99360325  0.38530042  0.49266360  1
  O  O328  1  0.99220023  0.37947951  0.99251934  1
  O  O329  1  0.99050956  0.86702081  0.49271650  1
  O  O330  1  0.98912500  0.87547511  0.99347479  1
  O  O331  1  0.48807902  0.48548595  0.36990037  1
  O  O332  1  0.48912074  0.49186332  0.88072957  1
  O  O333  1  0.49816342  0.97934114  0.37328155  1
  O  O334  1  0.50127635  1.00727186  0.89240135  1
  O  O335  1  0.99096599  0.49251909  0.38172875  1
  O  O336  1  0.99067067  0.49459898  0.88055480  1
  O  O337  1  0.99087822  0.99193537  0.37868503  1
  O  O338  1  0.98889126  0.99314165  0.87540214  1
  O  O339  1  0.00063291  0.00823105  0.12512888  1
  O  O340  1  0.01593597  -0.00770531  0.61860916  1
  O  O341  1  0.00321699  0.50343445  0.11778673  1
  O  O342  1  -0.01545660  0.50841517  0.61162553  1
  O  O343  1  0.50510176  0.00684933  0.11685882  1
  O  O344  1  0.49912598  0.02236473  0.62151879  1
  O  O345  1  0.50574008  0.50869118  0.11889943  1
  O  O346  1  0.50494964  0.51150912  0.62688594  1
  O  O347  1  0.24953438  0.37149355  0.23443527  1
  O  O348  1  0.23811731  0.37885252  0.75814569  1
  O  O349  1  0.25090765  0.87938344  0.24010862  1
  O  O350  1  0.24160922  0.87598466  0.74251473  1
  O  O351  1  0.74386355  0.38100293  0.24460361  1
  O  O352  1  0.74595779  0.38203931  0.74269094  1
  O  O353  1  0.74243044  0.87666065  0.24610676  1
  O  O354  1  0.75089470  0.88149636  0.74105094  1
  O  O355  1  0.25792502  0.11545243  0.24885075  1
  O  O356  1  0.25569003  0.12592016  0.75906648  1
  O  O357  1  0.25995772  0.63562066  0.25878235  1
  O  O358  1  0.24865065  0.63749780  0.77188998  1
  O  O359  1  0.75668609  0.11669907  0.25649098  1
  O  O360  1  0.76146118  0.12518359  0.75864856  1
  O  O361  1  0.74834759  0.61092952  0.25012466  1
  O  O362  1  0.74803637  0.61863136  0.75402536  1
  O  O363  1  0.37327288  0.13556201  0.35768599  1
  O  O364  1  0.36674161  0.12444159  0.87098540  1
  O  O365  1  0.37560762  0.61214871  0.36357794  1
  O  O366  1  0.36302613  0.61003781  0.88705871  1
  O  O367  1  0.86363880  0.10812996  0.36867944  1
  O  O368  1  0.87000580  0.11827640  0.86990104  1
  O  O369  1  0.86901899  0.60993565  0.37323765  1
  O  O370  1  0.86468168  0.62016120  0.87090482  1
  O  O371  1  0.13235085  0.38008488  0.12221203  1
  O  O372  1  0.13217470  0.38454784  0.63548041  1
  O  O373  1  0.13666210  0.87735724  0.12487747  1
  O  O374  1  0.13271945  0.87932692  0.63130541  1
  O  O375  1  0.62859591  0.37881099  0.12946637  1
  O  O376  1  0.63530309  0.37385664  0.63340390  1
  O  O377  1  0.62968195  0.87749409  0.13229485  1
  O  O378  1  0.62077862  0.87903000  0.63034243  1
  O  O379  1  0.12015604  0.25029296  0.25917588  1
  O  O380  1  0.12009120  0.26898037  0.75247330  1
  O  O381  1  0.10756410  0.75179322  0.24163995  1
  O  O382  1  0.11571916  0.76419988  0.75786671  1
  O  O383  1  0.63245011  0.26231147  0.25079473  1
  O  O384  1  0.63562052  0.26676585  0.75687670  1
  O  O385  1  0.61562330  0.75641848  0.24435160  1
  O  O386  1  0.61038715  0.75577577  0.75293096  1
  O  O387  1  0.37073976  0.23957869  0.23556410  1
  O  O388  1  0.37117579  0.23819629  0.75749490  1
  O  O389  1  0.38642243  0.73301270  0.24710005  1
  O  O390  1  0.37988564  0.74066812  0.74681185  1
  O  O391  1  0.88015350  0.24377281  0.24618182  1
  O  O392  1  0.87469190  0.23471968  0.75074861  1
  O  O393  1  0.88188855  0.74916051  0.23697258  1
  O  O394  1  0.87719406  0.74713023  0.74128717  1
  O  O395  1  0.36650367  0.48029412  0.47976325  1
  O  O396  1  0.38000530  0.48705414  0.99823881  1
  O  O397  1  0.37670194  1.01431880  0.49431253  1
  O  O398  1  0.38306163  0.99231228  0.99945784  1
  O  O399  1  0.87376669  0.49080277  0.48997233  1
  O  O400  1  0.87726616  0.49349437  0.99454326  1
  O  O401  1  0.87717039  0.99024936  0.49322183  1
  O  O402  1  0.87761350  0.99159322  0.99044937  1
  O  O403  1  0.12096516  0.01200725  0.00155269  1
  O  O404  1  0.12469156  0.02212893  0.50639721  1
  O  O405  1  0.11640765  0.50532630  0.00861704  1
  O  O406  1  0.11326799  0.50590433  0.49825622  1
  O  O407  1  0.61931690  0.00381374  0.00730008  1
  O  O408  1  0.60754554  -0.00317645  0.50170788  1
  O  O409  1  0.61782309  0.50713342  0.00477226  1
  O  O410  1  0.62799345  0.50490853  0.50259859  1
  O  O411  1  0.37097363  0.37018221  0.11973852  1
  O  O412  1  0.37937183  0.38455129  0.60845000  1
  O  O413  1  0.36061981  0.87729011  0.11306509  1
  O  O414  1  0.35759340  0.89123771  0.62878441  1
  O  O415  1  0.86930071  0.36881330  0.11951858  1
  O  O416  1  0.86028690  0.38213774  0.61475277  1
  O  O417  1  0.87011344  0.86829753  0.11764989  1
  O  O418  1  0.87848083  0.86676074  0.61448126  1
  O  O419  1  0.12859253  0.13398251  0.38970012  1
  O  O420  1  0.13029352  0.12594918  0.88119250  1
  O  O421  1  0.13457056  0.61499739  0.36073942  1
  O  O422  1  0.12884211  0.62948886  0.88219890  1
  O  O423  1  0.63811831  0.12243648  0.36416257  1
  O  O424  1  0.63625399  0.12528947  0.88001449  1
  O  O425  1  0.62498820  0.61722775  0.38946621  1
  O  O426  1  0.62978068  0.62110250  0.88390852  1
