# generated using pymatgen
data_V85Zn86O256
_symmetry_space_group_name_H-M   'P 1'
_cell_length_a   16.96161797
_cell_length_b   16.95049806
_cell_length_c   16.95463027
_cell_angle_alpha   89.93717616
_cell_angle_beta   89.88618934
_cell_angle_gamma   89.91800723
_symmetry_Int_Tables_number   1
_chemical_formula_structural   V85Zn86O256
_chemical_formula_sum   'V85 Zn86 O256'
_cell_volume   4874.57215504
_cell_formula_units_Z   1
loop_
 _symmetry_equiv_pos_site_id
 _symmetry_equiv_pos_as_xyz
  1  'x, y, z'
loop_
 _atom_site_type_symbol
 _atom_site_label
 _atom_site_symmetry_multiplicity
 _atom_site_fract_x
 _atom_site_fract_y
 _atom_site_fract_z
 _atom_site_occupancy
  V  V0  1  0.49924207  0.37346484  0.37164699  1
  V  V1  1  -0.00041969  0.62227366  0.62272734  1
  V  V2  1  0.12544545  0.62591878  0.00242072  1
  V  V3  1  0.48156991  0.87892835  0.87523445  1
  V  V4  1  0.37780787  0.37617002  -0.00288964  1
  V  V5  1  0.36554899  0.50240118  0.87008061  1
  V  V6  1  0.50372452  0.26138117  0.76000191  1
  V  V7  1  0.36605669  0.12523558  0.25369574  1
  V  V8  1  0.26778058  0.87322750  0.12363880  1
  V  V9  1  0.74821696  0.75098429  0.00077750  1
  V  V10  1  0.12572164  0.49660354  0.63779143  1
  V  V11  1  0.25192647  0.24646070  0.49746828  1
  V  V12  1  0.86196911  0.00263196  0.87282769  1
  V  V13  1  0.49364720  -0.00401963  -0.00501903  1
  V  V14  1  0.87281134  0.62495172  0.25000005  1
  V  V15  1  0.37059229  0.87559452  0.50834459  1
  V  V16  1  0.87381612  0.75607996  0.12410390  1
  V  V17  1  0.00341780  0.87811252  0.86822077  1
  V  V18  1  0.00309206  0.62413474  0.12470387  1
  V  V19  1  0.12813410  0.25276690  0.87074540  1
  V  V20  1  0.75606452  0.22987730  0.01016066  1
  V  V21  1  0.62803024  0.13375749  0.50157907  1
  V  V22  1  0.00435646  0.25188723  0.75042336  1
  V  V23  1  0.49823299  0.49981117  -0.00663287  1
  V  V24  1  0.13244761  0.12128111  0.49585540  1
  V  V25  1  0.12175980  0.37614895  0.25529973  1
  V  V26  1  0.75100527  0.37068028  0.62034350  1
  V  V27  1  0.37404330  0.12951298  0.74674101  1
  V  V28  1  0.00224821  -0.00050993  -0.00285040  1
  V  V29  1  0.49247051  0.63151898  0.12393767  1
  V  V30  1  0.00128630  0.75118369  0.74878062  1
  V  V31  1  0.12086654  0.25008032  0.37490623  1
  V  V32  1  0.62693495  0.00281346  0.62888469  1
  V  V33  1  0.73047285  0.87708771  0.13068436  1
  V  V34  1  -0.00120569  0.12986362  0.13034610  1
  V  V35  1  0.74620067  0.50081607  0.24362430  1
  V  V36  1  0.74889236  0.87891715  0.62953870  1
  V  V37  1  0.74891552  0.62638250  0.87411109  1
  V  V38  1  0.87179348  0.25150831  0.62179420  1
  V  V39  1  0.62433356  0.49344036  0.63028880  1
  V  V40  1  0.24967382  -0.01185413  0.74922853  1
  V  V41  1  0.24551250  0.50345966  0.24756256  1
  V  V42  1  0.12827481  -0.01542955  0.62907793  1
  V  V43  1  0.73210611  -0.00401565  0.25008288  1
  V  V44  1  0.87349098  0.74982113  0.62421072  1
  V  V45  1  0.62654319  0.87915297  0.75569370  1
  V  V46  1  0.62214789  0.37468124  0.24193070  1
  V  V47  1  0.00279390  0.12391684  0.62666109  1
  V  V48  1  0.49561890  0.13288842  0.62593867  1
  V  V49  1  0.00132017  0.75195541  0.25410684  1
  V  V50  1  0.87521494  0.00041485  0.37104008  1
  V  V51  1  0.86305188  0.12199118  0.75597576  1
  V  V52  1  0.37965792  0.24883779  0.12721818  1
  V  V53  1  0.36758113  0.50387044  0.37434766  1
  V  V54  1  0.25558380  0.12156029  0.87294189  1
  V  V55  1  0.37096348  0.62902055  0.25144524  1
  V  V56  1  0.50878423  0.11645328  0.12359606  1
  V  V57  1  0.74943505  0.12995679  0.37870983  1
  V  V58  1  0.62462275  0.62657024  -0.00185863  1
  V  V59  1  0.49782142  0.75421499  0.24877927  1
  V  V60  1  0.74849506  0.49130778  0.75118758  1
  V  V61  1  0.62392118  0.49926536  0.12232131  1
  V  V62  1  0.00171087  0.37555908  0.87260543  1
  V  V63  1  0.12345773  0.75431414  0.87083904  1
  V  V64  1  0.00390981  0.49980075  0.00207535  1
  V  V65  1  0.25177486  0.74616332  0.50055643  1
  V  V66  1  0.87186181  0.36811081  0.01546775  1
  V  V67  1  0.00153038  -0.00237088  0.50101136  1
  V  V68  1  0.74827262  0.62474031  0.37387621  1
  V  V69  1  0.37194518  0.37040372  0.50329120  1
  V  V70  1  -0.00445090  0.48431414  0.49372152  1
  V  V71  1  0.25133526  0.24901522  -0.00089320  1
  V  V72  1  0.12920411  0.62187304  0.49226098  1
  V  V73  1  0.50144717  0.87900951  0.37481406  1
  V  V74  1  0.36658355  0.00438448  0.37730036  1
  V  V75  1  0.62378913  0.62403782  0.49961578  1
  V  V76  1  0.87441419  0.87520471  0.50087858  1
  V  V77  1  0.49582671  0.62719611  0.62720019  1
  V  V78  1  0.26151641  0.75335032  0.00091974  1
  V  V79  1  0.12619846  -0.00629980  0.12440596  1
  V  V80  1  0.24522472  0.37791305  0.12662240  1
  V  V81  1  0.24431049  0.37387923  0.63430897  1
  V  V82  1  0.87263440  0.62435389  0.74940795  1
  V  V83  1  0.49910454  0.49875882  0.50014657  1
  V  V84  1  0.62392862  0.75610213  0.37169664  1
  Zn  Zn85  1  0.12785000  0.12491281  -0.00034903  1
  Zn  Zn86  1  0.87467204  0.49831959  0.87644641  1
  Zn  Zn87  1  -0.00488463  0.25984311  0.24994231  1
  Zn  Zn88  1  0.24773549  -0.00073779  0.25362530  1
  Zn  Zn89  1  0.87077193  0.87689098  -0.00329241  1
  Zn  Zn90  1  0.87878411  0.48776796  0.37572879  1
  Zn  Zn91  1  0.62333033  0.75280973  0.87374055  1
  Zn  Zn92  1  0.82158236  0.31290023  0.45384581  1
  Zn  Zn93  1  0.36694582  0.62487470  0.74472897  1
  Zn  Zn94  1  0.63186160  0.25570017  0.37762662  1
  Zn  Zn95  1  0.13622528  0.74736939  0.37154110  1
  Zn  Zn96  1  0.86517037  0.13143240  0.24056476  1
  Zn  Zn97  1  0.49773324  0.74915288  0.75158400  1
  Zn  Zn98  1  0.24129531  0.62063911  0.86048987  1
  Zn  Zn99  1  0.36855767  0.75925168  0.63082289  1
  Zn  Zn100  1  0.49799902  0.00230273  0.50237917  1
  Zn  Zn101  1  0.74904464  0.75029819  0.50017121  1
  Zn  Zn102  1  0.50246737  0.24673617  0.24868976  1
  Zn  Zn103  1  0.12780075  0.87288627  0.25237098  1
  Zn  Zn104  1  0.00384049  0.87342495  0.37549210  1
  Zn  Zn105  1  0.63880785  0.25359344  0.87129237  1
  Zn  Zn106  1  0.63472155  0.11532118  -0.01606762  1
  Zn  Zn107  1  0.18458268  0.18771846  0.18625884  1
  Zn  Zn108  1  0.18929642  0.18612841  0.68283614  1
  Zn  Zn109  1  0.18917133  0.69096241  0.18452770  1
  Zn  Zn110  1  0.18827506  0.68551981  0.68226195  1
  Zn  Zn111  1  0.69314785  0.19084469  0.18528658  1
  Zn  Zn112  1  0.68257827  0.19126349  0.69232652  1
  Zn  Zn113  1  0.68262151  0.68922989  0.18580608  1
  Zn  Zn114  1  0.68415788  0.68894485  0.68882131  1
  Zn  Zn115  1  0.30866063  0.31110424  0.31505518  1
  Zn  Zn116  1  0.32122163  0.30991710  0.81233032  1
  Zn  Zn117  1  0.31360314  0.81505865  0.31711283  1
  Zn  Zn118  1  0.31066221  0.80351370  0.81066772  1
  Zn  Zn119  1  0.81414948  0.31737776  0.28336486  1
  Zn  Zn120  1  0.81668565  0.30900706  0.82117722  1
  Zn  Zn121  1  0.81241889  0.81525617  0.31070577  1
  Zn  Zn122  1  0.81380665  0.81468127  0.81297963  1
  Zn  Zn123  1  0.18476854  0.43633296  0.43956464  1
  Zn  Zn124  1  0.18620726  0.43558797  0.93845665  1
  Zn  Zn125  1  0.18701047  0.92994491  0.44008530  1
  Zn  Zn126  1  0.19148520  0.93580057  0.93712435  1
  Zn  Zn127  1  0.68696855  0.43892898  0.43497859  1
  Zn  Zn128  1  0.69228020  0.43152025  0.93282533  1
  Zn  Zn129  1  0.68755851  0.94245057  0.44220666  1
  Zn  Zn130  1  0.67985366  0.93804413  0.94743731  1
  Zn  Zn131  1  0.31522844  0.06206587  0.06251642  1
  Zn  Zn132  1  0.31193860  0.05854278  0.56728398  1
  Zn  Zn133  1  0.31066340  0.56447120  0.06252169  1
  Zn  Zn134  1  0.30790691  0.55843828  0.56391191  1
  Zn  Zn135  1  0.81651836  0.05244473  0.06777643  1
  Zn  Zn136  1  0.81338254  0.06371669  0.56360330  1
  Zn  Zn137  1  0.81596993  0.56259791  0.06025789  1
  Zn  Zn138  1  0.81267795  0.55939222  0.56167291  1
  Zn  Zn139  1  0.43568085  0.44077419  0.18341227  1
  Zn  Zn140  1  0.43293518  0.43787130  0.68521066  1
  Zn  Zn141  1  0.44068040  0.94219065  0.19172643  1
  Zn  Zn142  1  0.43835498  0.94691788  0.69268090  1
  Zn  Zn143  1  0.93852135  0.44282174  0.18913696  1
  Zn  Zn144  1  0.93588321  0.43678356  0.68409422  1
  Zn  Zn145  1  0.93645660  0.93955788  0.18886329  1
  Zn  Zn146  1  0.93717324  0.93950972  0.68819503  1
  Zn  Zn147  1  0.06637223  0.06023400  0.31284550  1
  Zn  Zn148  1  0.06608389  0.06518139  0.80998471  1
  Zn  Zn149  1  0.06110141  0.56151393  0.31408004  1
  Zn  Zn150  1  0.06060380  0.56622191  0.81474659  1
  Zn  Zn151  1  0.55756149  0.06740394  0.31495373  1
  Zn  Zn152  1  0.56490206  0.06665611  0.81403042  1
  Zn  Zn153  1  0.55925296  0.56443899  0.31231246  1
  Zn  Zn154  1  0.56193324  0.56049593  0.81155384  1
  Zn  Zn155  1  0.43960091  0.18764422  0.43807675  1
  Zn  Zn156  1  0.43903771  0.18430953  0.93761848  1
  Zn  Zn157  1  0.43585854  0.68918380  0.43907495  1
  Zn  Zn158  1  0.43908569  0.68646171  0.93115564  1
  Zn  Zn159  1  0.94302363  0.18029415  0.43519675  1
  Zn  Zn160  1  0.93731313  0.18590784  0.93997507  1
  Zn  Zn161  1  0.93642063  0.68098352  0.43946711  1
  Zn  Zn162  1  0.93504234  0.68841813  0.93610401  1
  Zn  Zn163  1  0.06482638  0.31321655  0.06029691  1
  Zn  Zn164  1  0.06560637  0.30959900  0.56423345  1
  Zn  Zn165  1  0.06400724  0.81381730  0.05951879  1
  Zn  Zn166  1  0.06277002  0.80724644  0.55873027  1
  Zn  Zn167  1  0.58476327  0.32727313  0.02494588  1
  Zn  Zn168  1  0.56096303  0.31292693  0.56645423  1
  Zn  Zn169  1  0.55661756  0.81255448  0.05851261  1
  Zn  Zn170  1  0.56147757  0.81276128  0.56052258  1
  O  O171  1  0.12050418  0.11133645  0.12133840  1
  O  O172  1  0.12017222  0.11888179  0.61499335  1
  O  O173  1  0.11320840  0.63444838  0.11434441  1
  O  O174  1  0.11794684  0.61476869  0.61565792  1
  O  O175  1  0.60687604  0.12932701  0.13381506  1
  O  O176  1  0.62147752  0.12013315  0.62117218  1
  O  O177  1  0.61291232  0.61886031  0.12006764  1
  O  O178  1  0.61848734  0.61462434  0.62008415  1
  O  O179  1  0.38138668  0.38303397  0.37973188  1
  O  O180  1  0.36823914  0.38547535  0.88903819  1
  O  O181  1  0.38360460  0.88425651  0.38406887  1
  O  O182  1  0.38387221  0.87488663  0.87227408  1
  O  O183  1  0.84192918  0.38278529  0.37138680  1
  O  O184  1  0.89035787  0.37642574  0.88744025  1
  O  O185  1  0.87427855  0.88536562  0.38158268  1
  O  O186  1  0.88540325  0.88433421  0.87474263  1
  O  O187  1  0.26298608  -0.00679131  0.37438133  1
  O  O188  1  0.23823357  0.01150855  0.86201668  1
  O  O189  1  0.26106656  0.49344145  0.36525796  1
  O  O190  1  0.26122072  0.50253176  0.88376328  1
  O  O191  1  0.75576653  0.00508902  0.36888401  1
  O  O192  1  0.76441688  -0.00759224  0.88410275  1
  O  O193  1  0.73823618  0.51416863  0.36029408  1
  O  O194  1  0.75090449  0.50517065  0.86674356  1
  O  O195  1  0.25694761  0.48969810  0.13528087  1
  O  O196  1  0.23905203  0.48401224  0.61853769  1
  O  O197  1  0.24483100  0.98573979  0.11877595  1
  O  O198  1  0.24166051  1.00183620  0.63929789  1
  O  O199  1  0.73668925  0.51424067  0.13370033  1
  O  O200  1  0.74377055  0.49249075  0.63160258  1
  O  O201  1  0.75412638  0.98870593  0.13758076  1
  O  O202  1  0.74032599  0.99037620  0.62113680  1
  O  O203  1  0.01795975  0.37871531  0.24012776  1
  O  O204  1  -0.00942480  0.36286923  0.75986623  1
  O  O205  1  -0.00032410  0.86265505  0.24986842  1
  O  O206  1  -0.00415190  0.86901292  0.76037519  1
  O  O207  1  0.50523510  0.37805531  0.25507274  1
  O  O208  1  0.48851804  0.35890007  0.74342628  1
  O  O209  1  0.49115547  0.86543932  0.26174077  1
  O  O210  1  0.50507502  0.88055145  0.76432509  1
  O  O211  1  0.48880664  0.12573144  0.23926608  1
  O  O212  1  0.49088203  0.12818103  0.74356439  1
  O  O213  1  0.49132856  0.63143475  0.24294952  1
  O  O214  1  0.49737917  0.62377582  0.73939456  1
  O  O215  1  1.00583328  0.12203850  0.23505471  1
  O  O216  1  0.99566606  0.13536889  0.74564873  1
  O  O217  1  0.99461548  0.62903570  0.24202322  1
  O  O218  1  0.99255671  0.63044348  0.74383570  1
  O  O219  1  0.37138182  0.25789063  0.00625892  1
  O  O220  1  0.36653835  0.26040532  0.49154069  1
  O  O221  1  0.35945469  0.74314785  -0.00500621  1
  O  O222  1  0.37058733  0.75733794  0.50365248  1
  O  O223  1  0.87333970  0.26095066  0.00015476  1
  O  O224  1  0.88029061  0.23865865  0.51600594  1
  O  O225  1  0.86834054  0.75052101  0.00952017  1
  O  O226  1  0.87288839  0.75541621  0.50635854  1
  O  O227  1  0.13056870  0.24091747  0.49426336  1
  O  O228  1  0.13348678  0.24910902  0.98872370  1
  O  O229  1  0.13208459  0.73886217  0.49894172  1
  O  O230  1  0.12688751  0.74262094  0.99033872  1
  O  O231  1  0.62284227  0.23884938  0.50055928  1
  O  O232  1  0.64726427  0.23248637  1.01368832  1
  O  O233  1  0.62602617  0.74310729  0.48870481  1
  O  O234  1  0.63052106  0.74323117  0.99909209  1
  O  O235  1  0.48555725  0.23950064  0.12346959  1
  O  O236  1  0.50553499  0.23828119  0.63610190  1
  O  O237  1  0.50431601  0.74168451  0.13442622  1
  O  O238  1  0.50027983  0.73592616  0.62299393  1
  O  O239  1  1.01223269  0.23190450  0.12313947  1
  O  O240  1  0.99389135  0.24632920  0.63327655  1
  O  O241  1  0.99244483  0.74358912  0.13026158  1
  O  O242  1  0.99426473  0.74363255  0.62961810  1
  O  O243  1  0.01663412  0.24390259  0.37458020  1
  O  O244  1  0.00809671  0.25490852  0.87025156  1
  O  O245  1  -0.00623590  0.74685556  0.36125199  1
  O  O246  1  0.00413616  0.75825107  0.87114394  1
  O  O247  1  0.50187754  0.26409059  0.37139537  1
  O  O248  1  0.49151894  0.25026621  0.86128440  1
  O  O249  1  0.50552403  0.75729874  0.36936536  1
  O  O250  1  0.50230876  0.76720454  0.87778357  1
  O  O251  1  0.24248360  0.13344102  0.51040784  1
  O  O252  1  0.25190998  0.12972071  0.99034101  1
  O  O253  1  0.23889631  0.62763352  0.50323609  1
  O  O254  1  0.23949917  0.63779827  1.00656750  1
  O  O255  1  0.73985559  0.11706561  0.49084610  1
  O  O256  1  0.76055660  0.12686655  1.00206532  1
  O  O257  1  0.74382258  0.62291669  0.48930194  1
  O  O258  1  0.74487671  0.62953132  0.99497660  1
  O  O259  1  0.25716992  0.37135413  0.00892321  1
  O  O260  1  0.25611684  0.36680349  0.50288244  1
  O  O261  1  0.24884933  0.86334612  0.00811695  1
  O  O262  1  0.26342483  0.86673557  0.49970671  1
  O  O263  1  0.77215959  0.38401820  0.00714540  1
  O  O264  1  0.74569239  0.37793016  0.51474920  1
  O  O265  1  0.75059762  0.86978060  0.01292840  1
  O  O266  1  0.75481892  0.87382942  0.51120536  1
  O  O267  1  0.13796916  0.49396740  0.25823357  1
  O  O268  1  0.11676485  0.50312205  0.73710466  1
  O  O269  1  0.13023372  0.99622956  0.23946274  1
  O  O270  1  0.13712353  1.00588189  0.74110069  1
  O  O271  1  0.62577828  0.49746579  0.24051911  1
  O  O272  1  0.63543450  0.50353253  0.74082454  1
  O  O273  1  0.63330143  1.00003622  0.25870665  1
  O  O274  1  0.62024429  0.99195266  0.73916570  1
  O  O275  1  0.37208056  0.00775702  0.25901619  1
  O  O276  1  0.35810904  0.01239857  0.74660666  1
  O  O277  1  0.36776310  0.50718985  0.25577556  1
  O  O278  1  0.37946352  0.49579428  0.76910032  1
  O  O279  1  0.87153797  0.00469291  0.26162456  1
  O  O280  1  0.87970607  0.01417933  0.75672053  1
  O  O281  1  0.86230524  0.50638663  0.24829856  1
  O  O282  1  0.86577079  0.50621902  0.74969233  1
  O  O283  1  0.13081578  0.36500241  0.36513603  1
  O  O284  1  0.11508525  0.36491124  0.87932353  1
  O  O285  1  0.12126625  0.86748452  0.37100223  1
  O  O286  1  0.11510990  0.86524695  0.88099216  1
  O  O287  1  0.61584078  0.37740363  0.36414215  1
  O  O288  1  0.61327447  0.35768039  0.91596991  1
  O  O289  1  0.61614433  0.86607043  0.38356149  1
  O  O290  1  0.62374422  0.87698783  0.86454596  1
  O  O291  1  0.38023924  0.13093675  0.13327608  1
  O  O292  1  0.38608406  0.12027237  0.63124072  1
  O  O293  1  0.38483889  0.62031031  0.13481957  1
  O  O294  1  0.38840247  0.61621906  0.62259414  1
  O  O295  1  0.89559474  0.11482261  0.12534788  1
  O  O296  1  0.88051185  0.12927550  0.63664578  1
  O  O297  1  0.88187950  0.63610715  0.12850404  1
  O  O298  1  0.87814861  0.63004393  0.62931613  1
  O  O299  1  0.25971361  0.25550982  0.11999663  1
  O  O300  1  0.24150452  0.26341974  0.61066310  1
  O  O301  1  0.24728303  0.76246323  0.11248996  1
  O  O302  1  0.25223597  0.74710477  0.60859837  1
  O  O303  1  0.76289645  0.24448367  0.11258208  1
  O  O304  1  0.75847975  0.25942407  0.63433050  1
  O  O305  1  0.75568652  0.75625143  0.12353447  1
  O  O306  1  0.75396748  0.75902998  0.62303156  1
  O  O307  1  0.23949696  0.25121659  0.38766979  1
  O  O308  1  0.24498386  0.24573015  0.87754513  1
  O  O309  1  0.25366507  0.75083588  0.39127472  1
  O  O310  1  0.24023456  0.75092025  0.88799396  1
  O  O311  1  0.75205445  0.23643999  0.37476101  1
  O  O312  1  0.75462479  0.25865120  0.90057507  1
  O  O313  1  0.74145853  0.74141659  0.37204909  1
  O  O314  1  0.74929283  0.74539904  0.88217697  1
  O  O315  1  0.00415947  0.11453206  0.00710417  1
  O  O316  1  0.01122026  0.11643590  0.50702306  1
  O  O317  1  0.00475610  0.62073689  0.00483002  1
  O  O318  1  0.00792766  0.61779840  0.50644691  1
  O  O319  1  0.49881823  0.11879509  0.01278137  1
  O  O320  1  0.50783669  0.12587229  0.50867229  1
  O  O321  1  0.50236768  0.62050790  0.00645445  1
  O  O322  1  0.50422581  0.61766534  0.50540100  1
  O  O323  1  0.49219917  0.37798189  0.49351987  1
  O  O324  1  0.48419489  0.38822506  1.01527584  1
  O  O325  1  0.49254534  0.87597925  0.48877969  1
  O  O326  1  0.50141570  0.88506835  0.98886131  1
  O  O327  1  1.00402462  0.38510030  0.50262699  1
  O  O328  1  0.99796008  0.38241119  0.99501846  1
  O  O329  1  0.99200975  0.88005541  0.49927448  1
  O  O330  1  0.99777090  0.88372763  0.98960312  1
  O  O331  1  0.49258429  0.49053247  0.37845013  1
  O  O332  1  0.49038010  0.50510566  0.88857462  1
  O  O333  1  0.49159892  0.99209991  0.37608957  1
  O  O334  1  0.49927248  0.99057046  0.88348260  1
  O  O335  1  0.99777020  0.49996513  0.38832781  1
  O  O336  1  1.00054974  0.49218665  0.88280217  1
  O  O337  1  0.99128215  1.00038222  0.38124682  1
  O  O338  1  1.00028184  0.99478141  0.87967765  1
  O  O339  1  0.00814946  0.00249330  0.11631219  1
  O  O340  1  0.00811670  0.00436471  0.62168509  1
  O  O341  1  -0.00369434  0.51585481  0.11682369  1
  O  O342  1  0.00614274  0.50124753  0.61549294  1
  O  O343  1  0.49750926  0.01011408  0.11813398  1
  O  O344  1  0.51050325  0.01260169  0.62525903  1
  O  O345  1  0.50407324  0.51216999  0.11696509  1
  O  O346  1  0.50751247  0.50335541  0.62101251  1
  O  O347  1  0.24478653  0.38254370  0.24431962  1
  O  O348  1  0.25873412  0.36546999  0.73206225  1
  O  O349  1  0.25094523  0.87172376  0.23367708  1
  O  O350  1  0.25379269  0.89001757  0.75867290  1
  O  O351  1  0.73279179  0.38959935  0.24429506  1
  O  O352  1  0.75750247  0.38562063  0.74511060  1
  O  O353  1  0.75179184  0.88294841  0.24265607  1
  O  O354  1  0.74130582  0.87117796  0.73891269  1
  O  O355  1  0.26221391  0.12232551  0.24375968  1
  O  O356  1  0.25683826  0.12583231  0.75526012  1
  O  O357  1  0.26022120  0.61759147  0.23938218  1
  O  O358  1  0.25356469  0.62515889  0.74919221  1
  O  O359  1  0.74798359  0.11527183  0.25951003  1
  O  O360  1  0.76487634  0.12975658  0.74827105  1
  O  O361  1  0.75122511  0.62120815  0.25486356  1
  O  O362  1  0.75315351  0.61703285  0.75380129  1
  O  O363  1  0.38389500  0.11601723  0.36652472  1
  O  O364  1  0.36230304  0.12890525  0.86646716  1
  O  O365  1  0.38407861  0.61281335  0.36521017  1
  O  O366  1  0.37154412  0.61054202  0.87604345  1
  O  O367  1  0.86550024  0.11269111  0.38113402  1
  O  O368  1  0.88132063  0.11874371  0.86282883  1
  O  O369  1  0.86194771  0.62075258  0.36930362  1
  O  O370  1  0.86816727  0.62270663  0.86834208  1
  O  O371  1  0.13992422  0.36705919  0.13322641  1
  O  O372  1  0.13598949  0.38058539  0.62311138  1
  O  O373  1  0.12936730  0.88345295  0.12540193  1
  O  O374  1  0.12054759  0.88550091  0.62129098  1
  O  O375  1  0.61348299  0.39093643  0.12778642  1
  O  O376  1  0.63155277  0.38630323  0.62317562  1
  O  O377  1  0.63174002  0.86881792  0.12628444  1
  O  O378  1  0.62844359  0.88280840  0.63044351  1
  O  O379  1  0.12604114  0.25737696  0.25830397  1
  O  O380  1  0.11517163  0.24516334  0.75747313  1
  O  O381  1  0.11401959  0.74767767  0.25087291  1
  O  O382  1  0.11781401  0.74182719  0.76362340  1
  O  O383  1  0.62396613  0.26441610  0.24834082  1
  O  O384  1  0.60949948  0.25296455  0.75315416  1
  O  O385  1  0.61109571  0.74344734  0.26148167  1
  O  O386  1  0.61795874  0.76397301  0.75031935  1
  O  O387  1  0.37503614  0.24446563  0.24418934  1
  O  O388  1  0.38395569  0.23672194  0.74841438  1
  O  O389  1  0.38518912  0.73914787  0.25958149  1
  O  O390  1  0.38123490  0.74545405  0.74489186  1
  O  O391  1  0.88583517  0.23989669  0.25867852  1
  O  O392  1  0.88352516  0.23880134  0.74595962  1
  O  O393  1  0.88040050  0.74467694  0.24172359  1
  O  O394  1  0.88021604  0.74467880  0.74382845  1
  O  O395  1  0.37784588  0.49167842  0.49032739  1
  O  O396  1  0.37973555  0.49573401  0.99520576  1
  O  O397  1  0.37607969  0.99463285  0.49396493  1
  O  O398  1  0.39314197  1.00523731  1.00154590  1
  O  O399  1  0.89110476  0.50113924  0.50136283  1
  O  O400  1  0.88888917  0.49318909  0.99957771  1
  O  O401  1  0.88098096  0.99530404  0.49460925  1
  O  O402  1  0.88793813  0.99903169  0.99022783  1
  O  O403  1  0.11777074  -0.00074970  0.00557991  1
  O  O404  1  0.12401893  0.00440856  0.50762777  1
  O  O405  1  0.11462873  0.51108980  -0.00456787  1
  O  O406  1  0.11469671  0.50408117  0.50462914  1
  O  O407  1  0.60670129  0.00589128  0.00035888  1
  O  O408  1  0.62042849  0.01058443  0.51115439  1
  O  O409  1  0.61689973  0.50652470  0.00636388  1
  O  O410  1  0.61885584  0.50399535  0.50817303  1
  O  O411  1  0.36570871  0.36785803  0.12107741  1
  O  O412  1  0.36169939  0.38414046  0.60982486  1
  O  O413  1  0.36612428  0.87923343  0.12506141  1
  O  O414  1  0.38949802  0.87873434  0.61191049  1
  O  O415  1  0.88897989  0.37441069  0.11399111  1
  O  O416  1  0.86640038  0.36246033  0.62813121  1
  O  O417  1  0.87273024  0.86333795  0.12369146  1
  O  O418  1  0.86694478  0.87191354  0.62269970  1
  O  O419  1  0.12544460  0.12772139  0.38887273  1
  O  O420  1  0.13444356  0.13705964  0.87589718  1
  O  O421  1  0.12031424  0.62668615  0.38769121  1
  O  O422  1  0.12333563  0.63426483  0.88626021  1
  O  O423  1  0.63055425  0.12818654  0.38386626  1
  O  O424  1  0.62135979  0.13864588  0.87452521  1
  O  O425  1  0.62817067  0.63350985  0.37834232  1
  O  O426  1  0.62978108  0.62729335  0.88054054  1
