# generated using pymatgen
data_V85Zn86O256
_symmetry_space_group_name_H-M   'P 1'
_cell_length_a   16.93829355
_cell_length_b   16.94599610
_cell_length_c   16.93232741
_cell_angle_alpha   90.08186106
_cell_angle_beta   89.98772951
_cell_angle_gamma   90.04831792
_symmetry_Int_Tables_number   1
_chemical_formula_structural   V85Zn86O256
_chemical_formula_sum   'V85 Zn86 O256'
_cell_volume   4860.18507334
_cell_formula_units_Z   1
loop_
 _symmetry_equiv_pos_site_id
 _symmetry_equiv_pos_as_xyz
  1  'x, y, z'
loop_
 _atom_site_type_symbol
 _atom_site_label
 _atom_site_symmetry_multiplicity
 _atom_site_fract_x
 _atom_site_fract_y
 _atom_site_fract_z
 _atom_site_occupancy
  V  V0  1  0.74896402  0.62465286  0.37359126  1
  V  V1  1  0.87209297  -0.00088417  0.37052851  1
  V  V2  1  0.50016009  0.37394500  0.87427800  1
  V  V3  1  0.74068481  0.62825103  0.87692927  1
  V  V4  1  0.12327101  0.87808834  0.75066236  1
  V  V5  1  0.50016889  0.62575149  0.62568600  1
  V  V6  1  0.62340842  0.50139641  0.62168935  1
  V  V7  1  -0.00104917  0.25020214  0.24925129  1
  V  V8  1  0.49872248  0.87553505  0.88667910  1
  V  V9  1  0.51128606  0.62033357  0.12195524  1
  V  V10  1  0.25028367  0.49749494  0.25120813  1
  V  V11  1  0.12886532  0.74741385  0.38979055  1
  V  V12  1  -0.00164211  0.87330966  0.87463726  1
  V  V13  1  0.37434761  0.62652687  0.75270331  1
  V  V14  1  0.12092339  0.50562453  0.12692687  1
  V  V15  1  0.12641579  -0.00264685  0.12335052  1
  V  V16  1  0.25002560  0.62631861  0.87997026  1
  V  V17  1  0.24237944  0.24531093  0.49971657  1
  V  V18  1  0.62852759  0.37888558  0.23229174  1
  V  V19  1  0.24151761  0.37468612  0.62860406  1
  V  V20  1  0.87921234  0.25164072  0.62953309  1
  V  V21  1  0.62432006  0.10497210  0.00041535  1
  V  V22  1  0.25065203  0.87805461  0.62949587  1
  V  V23  1  0.12371401  0.74980645  0.87264112  1
  V  V24  1  0.12457778  0.37269807  0.25080422  1
  V  V25  1  0.74801923  0.75064549  0.50834819  1
  V  V26  1  0.50384020  0.87119264  0.37493835  1
  V  V27  1  0.37393588  0.37465636  0.00242037  1
  V  V28  1  0.24222128  0.12275127  0.37881245  1
  V  V29  1  0.62158148  0.12464294  0.49923208  1
  V  V30  1  0.51300603  0.50235019  0.00326592  1
  V  V31  1  0.25004171  -0.00401327  0.24652293  1
  V  V32  1  0.37487586  -0.00066205  0.37632904  1
  V  V33  1  0.86936901  0.87525044  0.50650438  1
  V  V34  1  0.12454226  0.51788594  0.62123688  1
  V  V35  1  0.63737163  -0.00395036  0.63418297  1
  V  V36  1  0.89069699  0.74579086  0.62709928  1
  V  V37  1  0.37558096  0.24774123  0.62985971  1
  V  V38  1  0.12794612  0.00355037  0.62639788  1
  V  V39  1  0.88428658  0.75381668  0.11453108  1
  V  V40  1  0.37345156  0.50057812  0.87716888  1
  V  V41  1  0.75023548  0.37630202  0.62485176  1
  V  V42  1  0.36912157  0.86909544  0.49880937  1
  V  V43  1  0.00428465  0.37081619  0.86094529  1
  V  V44  1  0.87253290  0.25436259  0.12431884  1
  V  V45  1  0.24277393  0.49569724  0.75211363  1
  V  V46  1  0.74570860  0.25497541  0.00208253  1
  V  V47  1  0.37636418  0.24816984  0.12548944  1
  V  V48  1  0.75036327  0.12376020  0.87104747  1
  V  V49  1  -0.00429010  -0.00141445  -0.00149247  1
  V  V50  1  0.87397753  0.37609085  0.00061408  1
  V  V51  1  0.51075162  0.37164979  0.37495753  1
  V  V52  1  0.88041813  0.62513458  0.24279292  1
  V  V53  1  -0.00073378  0.12601127  0.12428827  1
  V  V54  1  0.37498367  0.62330031  0.24796571  1
  V  V55  1  0.24837781  0.12223658  0.87273136  1
  V  V56  1  0.73382403  0.74785560  -0.00056136  1
  V  V57  1  0.37076568  0.75879420  0.12180406  1
  V  V58  1  0.24770726  0.62874758  0.38576947  1
  V  V59  1  0.74675252  0.49858267  0.23313979  1
  V  V60  1  0.74622522  0.12650199  0.37312456  1
  V  V61  1  0.37585214  0.37466596  0.49805029  1
  V  V62  1  0.12576033  0.87153355  0.24782301  1
  V  V63  1  0.62505022  0.37368174  0.74997148  1
  V  V64  1  0.87624201  -0.00129665  0.87017614  1
  V  V65  1  0.87828843  0.50236453  0.87181386  1
  V  V66  1  0.00054025  0.87294601  0.37337830  1
  V  V67  1  0.50949061  0.24812515  0.25293331  1
  V  V68  1  0.37240018  -0.00675420  0.89547212  1
  V  V69  1  0.00308305  0.12822380  0.62503247  1
  V  V70  1  0.00229855  0.50534082  0.00350318  1
  V  V71  1  0.89004147  0.62872866  0.74702448  1
  V  V72  1  0.00064015  0.37510975  0.37757830  1
  V  V73  1  0.87420123  0.12440966  0.74809090  1
  V  V74  1  0.87635013  0.37731747  0.49988740  1
  V  V75  1  0.37285975  0.11044727  0.74977080  1
  V  V76  1  0.50532459  0.11306631  0.12064119  1
  V  V77  1  0.50590374  0.75621525  0.75367556  1
  V  V78  1  0.74543839  0.25116037  0.49514270  1
  V  V79  1  0.36965979  0.75022817  0.62330409  1
  V  V80  1  0.00464853  0.51414909  0.50303453  1
  V  V81  1  0.63141945  0.87808227  0.23703844  1
  V  V82  1  0.12231377  0.25302791  0.86261689  1
  V  V83  1  0.25264170  0.76473718  0.00286183  1
  V  V84  1  0.00389581  0.00375188  0.49999190  1
  Zn  Zn85  1  0.62372798  0.24705254  0.87428863  1
  Zn  Zn86  1  0.24492340  0.24943957  0.00137648  1
  Zn  Zn87  1  0.75415007  0.88908900  0.09937671  1
  Zn  Zn88  1  0.87578115  0.50226221  0.37365055  1
  Zn  Zn89  1  0.12017764  0.24285618  0.37903161  1
  Zn  Zn90  1  0.24851807  0.37170358  0.12689847  1
  Zn  Zn91  1  0.50165708  0.12201588  0.62983924  1
  Zn  Zn92  1  0.00470519  0.74071789  0.24470723  1
  Zn  Zn93  1  0.62687392  0.75134991  0.37475694  1
  Zn  Zn94  1  0.12376845  0.63063794  0.00879314  1
  Zn  Zn95  1  0.50430386  0.74688085  0.24780985  1
  Zn  Zn96  1  0.50153459  -0.00142530  0.50336535  1
  Zn  Zn97  1  0.75182963  0.50503078  0.74773063  1
  Zn  Zn98  1  0.37827926  0.12384684  0.24928535  1
  Zn  Zn99  1  0.62184714  0.62827691  0.49749257  1
  Zn  Zn100  1  0.37604829  0.50009640  0.37572854  1
  Zn  Zn101  1  0.49933483  0.50207365  0.49665791  1
  Zn  Zn102  1  0.49862890  0.24716922  0.75175189  1
  Zn  Zn103  1  0.12450916  0.12919321  -0.00197863  1
  Zn  Zn104  1  0.64051737  0.87054241  0.74591354  1
  Zn  Zn105  1  0.74230055  0.00507239  0.23655303  1
  Zn  Zn106  1  0.87117581  0.12543092  0.24750641  1
  Zn  Zn107  1  0.18816352  0.18367539  0.19075294  1
  Zn  Zn108  1  0.18994401  0.18536899  0.68906159  1
  Zn  Zn109  1  0.19203225  0.68708535  0.19086952  1
  Zn  Zn110  1  0.18892632  0.69071286  0.69171821  1
  Zn  Zn111  1  0.68624622  0.18698431  0.18365932  1
  Zn  Zn112  1  0.68855961  0.18691682  0.68436156  1
  Zn  Zn113  1  0.69321930  0.69382270  0.18833736  1
  Zn  Zn114  1  0.69246688  0.68595836  0.69010103  1
  Zn  Zn115  1  0.31555913  0.30902499  0.31357726  1
  Zn  Zn116  1  0.30875439  0.30959663  0.81429618  1
  Zn  Zn117  1  0.31085517  0.80938284  0.31042744  1
  Zn  Zn118  1  0.31236442  0.81504484  0.81156521  1
  Zn  Zn119  1  0.81007344  0.31636193  0.31063757  1
  Zn  Zn120  1  0.81312156  0.31257565  0.81268075  1
  Zn  Zn121  1  0.81268028  0.80896496  0.31034558  1
  Zn  Zn122  1  0.81534887  0.80768446  0.80877680  1
  Zn  Zn123  1  0.18631796  0.43824680  0.43952670  1
  Zn  Zn124  1  0.18488331  0.43444583  0.93915072  1
  Zn  Zn125  1  0.18744527  0.93370428  0.43853585  1
  Zn  Zn126  1  0.18701559  0.94162392  0.93708716  1
  Zn  Zn127  1  0.68955197  0.44002199  0.43315059  1
  Zn  Zn128  1  0.69100898  0.43968925  0.93560042  1
  Zn  Zn129  1  0.68739135  0.94042578  0.43911390  1
  Zn  Zn130  1  0.70421855  0.91640023  0.90181371  1
  Zn  Zn131  1  0.31098638  0.06571873  0.06337326  1
  Zn  Zn132  1  0.31258985  0.06124375  0.56134401  1
  Zn  Zn133  1  0.31284392  0.56484264  0.06321612  1
  Zn  Zn134  1  0.31375290  0.56038829  0.56646291  1
  Zn  Zn135  1  0.81254543  0.06672269  0.05711146  1
  Zn  Zn136  1  0.81212832  0.06326273  0.56041269  1
  Zn  Zn137  1  0.81461781  0.56874654  0.05938023  1
  Zn  Zn138  1  0.81440770  0.56447346  0.56131309  1
  Zn  Zn139  1  0.44163697  0.43717117  0.18807335  1
  Zn  Zn140  1  0.43425979  0.43816103  0.68763241  1
  Zn  Zn141  1  0.44099027  0.93503785  0.19125743  1
  Zn  Zn142  1  0.44573203  0.93881077  0.68403673  1
  Zn  Zn143  1  0.93571374  0.43895560  0.18876818  1
  Zn  Zn144  1  0.94076556  0.44314188  0.68394894  1
  Zn  Zn145  1  0.93580120  0.93362384  0.18434585  1
  Zn  Zn146  1  0.93758277  0.93637863  0.68925585  1
  Zn  Zn147  1  0.05953086  0.06134335  0.30940961  1
  Zn  Zn148  1  0.06236585  0.06585842  0.80768981  1
  Zn  Zn149  1  0.06459315  0.56258786  0.31738450  1
  Zn  Zn150  1  0.06522461  0.56138785  0.81500410  1
  Zn  Zn151  1  0.56260363  0.05994603  0.31139578  1
  Zn  Zn152  1  0.55651102  0.05842353  0.81527454  1
  Zn  Zn153  1  0.56422581  0.55798405  0.31137326  1
  Zn  Zn154  1  0.55915621  0.56101178  0.81012317  1
  Zn  Zn155  1  0.43444486  0.18885043  0.43653824  1
  Zn  Zn156  1  0.43787639  0.18274523  0.93765061  1
  Zn  Zn157  1  0.43630060  0.68671503  0.43729417  1
  Zn  Zn158  1  0.43972668  0.68964851  0.94088627  1
  Zn  Zn159  1  0.93343858  0.18758059  0.43908920  1
  Zn  Zn160  1  0.94101218  0.18873901  0.93672553  1
  Zn  Zn161  1  0.93516911  0.69183196  0.43098799  1
  Zn  Zn162  1  0.93725761  0.68705244  0.93605293  1
  Zn  Zn163  1  0.06259639  0.31527939  0.05765149  1
  Zn  Zn164  1  0.06212193  0.31708128  0.56539956  1
  Zn  Zn165  1  0.06391273  0.81476955  0.05916661  1
  Zn  Zn166  1  0.06123105  0.81693338  0.56267640  1
  Zn  Zn167  1  0.55856110  0.30845665  0.06134344  1
  Zn  Zn168  1  0.56137936  0.31063799  0.56267800  1
  Zn  Zn169  1  0.55993364  0.80850221  0.06273807  1
  Zn  Zn170  1  0.56220267  0.81523945  0.56486494  1
  O  O171  1  0.11779245  0.11302714  0.12720160  1
  O  O172  1  0.11577113  0.11613992  0.63185789  1
  O  O173  1  0.12815809  0.61050498  0.12902306  1
  O  O174  1  0.13374235  0.61725669  0.62463765  1
  O  O175  1  0.62098704  0.12596756  0.10895096  1
  O  O176  1  0.62463067  0.11892419  0.61586317  1
  O  O177  1  0.60857176  0.63228188  0.13260002  1
  O  O178  1  0.62047519  0.61484117  0.62750762  1
  O  O179  1  0.38231172  0.37376306  0.38465279  1
  O  O180  1  0.38175494  0.37895070  0.88200999  1
  O  O181  1  0.37884234  0.87886933  0.37987141  1
  O  O182  1  0.37592900  0.88835706  0.87355784  1
  O  O183  1  0.88530934  0.37604061  0.38033144  1
  O  O184  1  0.88155040  0.38336212  0.87890738  1
  O  O185  1  0.87992308  0.88064196  0.38221361  1
  O  O186  1  0.89059426  0.88506916  0.86585426  1
  O  O187  1  0.25549661  0.00373134  0.37050926  1
  O  O188  1  0.26187789  0.00758629  0.87854979  1
  O  O189  1  0.24938501  0.50614352  0.36466347  1
  O  O190  1  0.25271815  0.50321412  0.86996685  1
  O  O191  1  0.75923569  0.00885564  0.37544338  1
  O  O192  1  0.76469562  0.01823676  0.88758656  1
  O  O193  1  0.75351596  0.51142487  0.36949979  1
  O  O194  1  0.76297622  0.50985620  0.87494072  1
  O  O195  1  0.24342116  0.49707477  0.13667189  1
  O  O196  1  0.24417084  0.49359111  0.63204805  1
  O  O197  1  0.24065849  1.00770792  0.13589410  1
  O  O198  1  0.23801017  0.99217565  0.61730176  1
  O  O199  1  0.75356527  0.50596361  0.13376416  1
  O  O200  1  0.74199077  0.49515971  0.62561616  1
  O  O201  1  0.76338523  0.99669994  0.12627554  1
  O  O202  1  0.73784238  1.00441010  0.62226987  1
  O  O203  1  0.00297243  0.37108607  0.25912950  1
  O  O204  1  -0.00433819  0.37946376  0.76165701  1
  O  O205  1  0.01155944  0.87709279  0.25651937  1
  O  O206  1  0.01239896  0.87799591  0.75933932  1
  O  O207  1  0.50893133  0.36943546  0.25537249  1
  O  O208  1  0.50537056  0.37597474  0.75870991  1
  O  O209  1  0.51163122  0.87192917  0.25784342  1
  O  O210  1  0.49327159  0.86420005  0.75518344  1
  O  O211  1  0.50275234  0.13245239  0.24258206  1
  O  O212  1  0.48707695  0.12991892  0.75219675  1
  O  O213  1  0.49177764  0.62227251  0.24056493  1
  O  O214  1  0.49337232  0.63362078  0.74694519  1
  O  O215  1  0.99471207  0.13171136  0.24366369  1
  O  O216  1  0.98785492  0.12272168  0.73613907  1
  O  O217  1  0.98566257  0.62142426  0.25634466  1
  O  O218  1  0.98957467  0.62414848  0.75610036  1
  O  O219  1  0.37905891  0.25827174  0.00869922  1
  O  O220  1  0.36580274  0.25614281  0.50864470  1
  O  O221  1  0.36746563  0.74528399  0.01403099  1
  O  O222  1  0.37912268  0.75821404  0.51162201  1
  O  O223  1  0.86913143  0.25674976  0.00423249  1
  O  O224  1  0.86599534  0.25539560  0.50964834  1
  O  O225  1  0.87348247  0.74453790  0.01181865  1
  O  O226  1  0.87106838  0.75568585  0.50896184  1
  O  O227  1  0.13884678  0.25498311  0.50030131  1
  O  O228  1  0.12669973  0.24754179  0.99067174  1
  O  O229  1  0.12509375  0.75817973  0.48885052  1
  O  O230  1  0.13355218  0.74945721  0.99270111  1
  O  O231  1  0.63769445  0.24188972  0.50741260  1
  O  O232  1  0.63707535  0.25507345  0.99563972  1
  O  O233  1  0.63464276  0.75017548  0.49996754  1
  O  O234  1  0.63483966  0.74244480  1.00207552  1
  O  O235  1  0.49385304  0.24091640  0.13220400  1
  O  O236  1  0.48616596  0.24761781  0.62591326  1
  O  O237  1  0.48728809  0.73583315  0.12353300  1
  O  O238  1  0.48914126  0.74696916  0.63263802  1
  O  O239  1  0.99263948  0.24674049  0.12792885  1
  O  O240  1  0.98988961  0.24099737  0.61432428  1
  O  O241  1  0.98972849  0.75374644  0.12406390  1
  O  O242  1  0.98982085  0.74765305  0.61918974  1
  O  O243  1  -0.00077275  0.25699603  0.37163736  1
  O  O244  1  0.00790752  0.25893104  0.87782756  1
  O  O245  1  0.01038001  0.75575707  0.36984696  1
  O  O246  1  0.01201807  0.76127866  0.88507542  1
  O  O247  1  0.49270688  0.25689836  0.36182233  1
  O  O248  1  0.50037237  0.26365354  0.87591763  1
  O  O249  1  0.49930963  0.75990340  0.37143811  1
  O  O250  1  0.48729079  0.76342846  0.86619369  1
  O  O251  1  0.25587128  0.13366867  0.49126542  1
  O  O252  1  0.24847738  0.12726614  0.98676680  1
  O  O253  1  0.26007937  0.61779775  0.48438263  1
  O  O254  1  0.24705849  0.63269812  0.99458196  1
  O  O255  1  0.74389176  0.13271089  0.49281498  1
  O  O256  1  0.73891036  0.13532115  0.99297914  1
  O  O257  1  0.74965681  0.63230145  0.49105171  1
  O  O258  1  0.75294852  0.63056256  0.98578910  1
  O  O259  1  0.26438670  0.37463075  0.00266755  1
  O  O260  1  0.25769342  0.36748083  0.50680582  1
  O  O261  1  0.24608578  0.86411104  -0.00114813  1
  O  O262  1  0.26080161  0.87707039  0.51037646  1
  O  O263  1  0.76428659  0.36832122  -0.01066379  1
  O  O264  1  0.75449429  0.36897988  0.50296671  1
  O  O265  1  0.74652272  0.85340082  -0.01150497  1
  O  O266  1  0.76220348  0.86632860  0.49271135  1
  O  O267  1  0.13070827  0.49376681  0.24567826  1
  O  O268  1  0.13731061  0.50526025  0.74238950  1
  O  O269  1  0.13031887  0.99254166  0.24421396  1
  O  O270  1  0.12100438  0.99134208  0.73760050  1
  O  O271  1  0.63452917  0.49061459  0.25134097  1
  O  O272  1  0.62568773  0.49006323  0.74012839  1
  O  O273  1  0.62493829  0.98318049  0.25345894  1
  O  O274  1  0.62270909  1.00701348  0.73599787  1
  O  O275  1  0.36655966  -0.00319148  0.25973580  1
  O  O276  1  0.37460475  0.00917120  0.74653130  1
  O  O277  1  0.36667405  0.50509065  0.24925687  1
  O  O278  1  0.36630023  0.50643857  0.75613831  1
  O  O279  1  0.87666592  -0.00063409  0.26353633  1
  O  O280  1  0.87951527  0.01054150  0.75905443  1
  O  O281  1  0.86569466  0.50681418  0.25021685  1
  O  O282  1  0.87456655  0.50862543  0.75619097  1
  O  O283  1  0.11518010  0.37175195  0.37067532  1
  O  O284  1  0.11604477  0.36672792  0.87892974  1
  O  O285  1  0.12198080  0.86805718  0.36722519  1
  O  O286  1  0.12072260  0.87210459  0.86818935  1
  O  O287  1  0.61370242  0.37462863  0.37274542  1
  O  O288  1  0.61752705  0.37743172  0.86552104  1
  O  O289  1  0.61358946  0.87579668  0.37555508  1
  O  O290  1  0.59730580  0.88969433  0.86506080  1
  O  O291  1  0.38473491  0.13367029  0.12418728  1
  O  O292  1  0.37171153  0.13200445  0.63201584  1
  O  O293  1  0.37979259  0.62967784  0.13515228  1
  O  O294  1  0.37801535  0.63255772  0.63119740  1
  O  O295  1  0.88116697  0.13866990  0.12318234  1
  O  O296  1  0.87973844  0.13135644  0.62962279  1
  O  O297  1  0.87110824  0.63811674  0.13348617  1
  O  O298  1  0.87315576  0.63679432  0.63173618  1
  O  O299  1  0.26288244  0.24886146  0.12572525  1
  O  O300  1  0.25589717  0.25532957  0.61993718  1
  O  O301  1  0.26205673  0.74598196  0.11918231  1
  O  O302  1  0.26156234  0.76029494  0.63080353  1
  O  O303  1  0.76052695  0.24574035  0.11329232  1
  O  O304  1  0.75890491  0.25566134  0.61604254  1
  O  O305  1  0.75713814  0.74860275  0.10793570  1
  O  O306  1  0.75861262  0.74592595  0.61303467  1
  O  O307  1  0.25039654  0.23985770  0.38188254  1
  O  O308  1  0.24287286  0.24223412  0.87869973  1
  O  O309  1  0.24150402  0.74081812  0.36905750  1
  O  O310  1  0.24472730  0.74774366  0.88271575  1
  O  O311  1  0.75945270  0.24086381  0.38576202  1
  O  O312  1  0.75243200  0.24005990  0.88372610  1
  O  O313  1  0.75201270  0.74062289  0.38550411  1
  O  O314  1  0.75934819  0.73422222  0.88523539  1
  O  O315  1  0.00237455  0.11538223  0.00531696  1
  O  O316  1  -0.00835251  0.11358315  0.51033540  1
  O  O317  1  0.00377449  0.60898926  -0.00734329  1
  O  O318  1  -0.00646176  0.61210899  0.49040931  1
  O  O319  1  0.51706208  0.12842555  0.00354491  1
  O  O320  1  0.51215471  0.12753854  0.49664041  1
  O  O321  1  0.49520775  0.61694954  0.01269276  1
  O  O322  1  0.50137367  0.62271173  0.50832484  1
  O  O323  1  0.49188469  0.37044721  0.49215514  1
  O  O324  1  0.49249335  0.38152013  0.99359614  1
  O  O325  1  0.48783171  0.87523945  0.49175719  1
  O  O326  1  0.49895959  0.86607041  0.98609509  1
  O  O327  1  0.99576592  0.37921791  0.49281658  1
  O  O328  1  0.98905024  0.38404134  0.98991165  1
  O  O329  1  0.98966421  0.88410718  0.49429779  1
  O  O330  1  1.00701149  0.88871397  0.98805225  1
  O  O331  1  0.49588453  0.48768599  0.37668763  1
  O  O332  1  0.49409230  0.49294867  0.88176544  1
  O  O333  1  0.48871710  0.99068968  0.37506661  1
  O  O334  1  0.48058098  0.99068394  0.87330307  1
  O  O335  1  1.00079558  0.48890801  0.38318954  1
  O  O336  1  0.99495803  0.49221433  0.88115375  1
  O  O337  1  0.99322699  0.99652881  0.38257819  1
  O  O338  1  0.99666272  0.99631678  0.87927139  1
  O  O339  1  0.00351554  0.00380878  0.11717883  1
  O  O340  1  0.00551298  0.00623663  0.61830950  1
  O  O341  1  0.00826886  0.49237712  0.11543795  1
  O  O342  1  0.01325150  0.49696951  0.61584955  1
  O  O343  1  0.49343588  0.01445322  0.12935036  1
  O  O344  1  0.51146731  0.00561390  0.61930877  1
  O  O345  1  0.49662607  0.51206977  0.11854303  1
  O  O346  1  0.50695107  0.50548008  0.62559951  1
  O  O347  1  0.24587692  0.38232708  0.25256014  1
  O  O348  1  0.25879105  0.38663600  0.74207365  1
  O  O349  1  0.23985752  0.88663948  0.25633361  1
  O  O350  1  0.24079923  0.87589913  0.73870909  1
  O  O351  1  0.74012720  0.38484320  0.25383858  1
  O  O352  1  0.74132714  0.37742253  0.74547195  1
  O  O353  1  0.73614685  0.87536395  0.25316079  1
  O  O354  1  0.73970365  0.88497759  0.79511716  1
  O  O355  1  0.25428110  0.11342930  0.26000050  1
  O  O356  1  0.25996044  0.12822653  0.76303518  1
  O  O357  1  0.25802901  0.61514056  0.25690078  1
  O  O358  1  0.25573193  0.61744593  0.75876351  1
  O  O359  1  0.75003774  0.12547955  0.25957948  1
  O  O360  1  0.76072930  0.13192253  0.75932489  1
  O  O361  1  0.75576623  0.61911226  0.25495924  1
  O  O362  1  0.76327754  0.62636284  0.76217174  1
  O  O363  1  0.36729938  0.11337375  0.37398106  1
  O  O364  1  0.37032167  0.11293179  0.87119456  1
  O  O365  1  0.36964983  0.62449229  0.36314068  1
  O  O366  1  0.37032720  0.61988124  0.87301891  1
  O  O367  1  0.86547215  0.11576300  0.37568754  1
  O  O368  1  0.87275023  0.12203831  0.86561685  1
  O  O369  1  0.86445752  0.62606394  0.36358622  1
  O  O370  1  0.87312101  0.61691344  0.86780705  1
  O  O371  1  0.12700037  0.38367345  0.13225822  1
  O  O372  1  0.13897461  0.37988642  0.62482045  1
  O  O373  1  0.11901720  0.88792910  0.13364722  1
  O  O374  1  0.13041535  0.88031192  0.63175641  1
  O  O375  1  0.61934989  0.37563739  0.13319554  1
  O  O376  1  0.62806273  0.38088181  0.63112146  1
  O  O377  1  0.62676461  0.87084010  0.13433079  1
  O  O378  1  0.62275390  0.89030956  0.62840690  1
  O  O379  1  0.11757349  0.25500789  0.25199464  1
  O  O380  1  0.12916403  0.24894220  0.76222283  1
  O  O381  1  0.12486605  0.76109601  0.24944914  1
  O  O382  1  0.13156595  0.76166958  0.76363851  1
  O  O383  1  0.61598413  0.25885701  0.24363456  1
  O  O384  1  0.62252585  0.26170945  0.74992670  1
  O  O385  1  0.62440051  0.76350023  0.25416798  1
  O  O386  1  0.61091296  0.75197226  0.74090305  1
  O  O387  1  0.38636859  0.24943592  0.24025072  1
  O  O388  1  0.37288455  0.24431055  0.74072891  1
  O  O389  1  0.37425079  0.73999283  0.23923799  1
  O  O390  1  0.37971513  0.74544870  0.74193259  1
  O  O391  1  0.87875996  0.25303020  0.23887294  1
  O  O392  1  0.87103509  0.24330863  0.73680194  1
  O  O393  1  0.87649727  0.74125765  0.23987311  1
  O  O394  1  0.87506537  0.74566491  0.73445756  1
  O  O395  1  0.37620313  0.48478281  0.50165419  1
  O  O396  1  0.38196601  0.49129809  0.99722741  1
  O  O397  1  0.37521105  0.99017315  0.49034446  1
  O  O398  1  0.37468233  0.99854821  0.99439588  1
  O  O399  1  0.88483982  0.49324418  0.50078404  1
  O  O400  1  0.88139794  0.49523327  0.99230379  1
  O  O401  1  0.88103326  0.99288946  0.49353765  1
  O  O402  1  0.88735892  1.00794526  0.98508656  1
  O  O403  1  0.11749610  0.00289171  0.00870139  1
  O  O404  1  0.11213262  -0.00969484  0.50982878  1
  O  O405  1  0.11887078  0.49913438  0.00972997  1
  O  O406  1  0.11741525  0.49693973  0.50913921  1
  O  O407  1  0.63180944  0.00933720  -0.00691864  1
  O  O408  1  0.62490846  0.00980494  0.50888488  1
  O  O409  1  0.61213782  0.49434369  -0.00354072  1
  O  O410  1  0.62324970  0.49934868  0.51229926  1
  O  O411  1  0.37869168  0.36593573  0.11802976  1
  O  O412  1  0.36657158  0.36727206  0.61877706  1
  O  O413  1  0.38171519  0.85698191  0.13222559  1
  O  O414  1  0.36895702  0.87093832  0.61903949  1
  O  O415  1  0.88163196  0.36556536  0.11262600  1
  O  O416  1  0.87143007  0.36923258  0.62145982  1
  O  O417  1  0.86837882  0.85729103  0.13104612  1
  O  O418  1  0.88142960  0.86362789  0.61652746  1
  O  O419  1  0.13714197  0.12219116  0.37225079  1
  O  O420  1  0.13208294  0.13028214  0.87294437  1
  O  O421  1  0.13531561  0.63596402  0.36855990  1
  O  O422  1  0.13115292  0.63625878  0.87558667  1
  O  O423  1  0.63666217  0.11690494  0.38397786  1
  O  O424  1  0.63110557  0.12561682  0.88350105  1
  O  O425  1  0.63464818  0.62764628  0.37480483  1
  O  O426  1  0.64218184  0.61805989  0.86602035  1
