# generated using pymatgen
data_V85Zn86O256
_symmetry_space_group_name_H-M   'P 1'
_cell_length_a   16.96837660
_cell_length_b   16.97901514
_cell_length_c   16.96879157
_cell_angle_alpha   90.08130244
_cell_angle_beta   90.07918634
_cell_angle_gamma   89.88147392
_symmetry_Int_Tables_number   1
_chemical_formula_structural   V85Zn86O256
_chemical_formula_sum   'V85 Zn86 O256'
_cell_volume   4888.79611635
_cell_formula_units_Z   1
loop_
 _symmetry_equiv_pos_site_id
 _symmetry_equiv_pos_as_xyz
  1  'x, y, z'
loop_
 _atom_site_type_symbol
 _atom_site_label
 _atom_site_symmetry_multiplicity
 _atom_site_fract_x
 _atom_site_fract_y
 _atom_site_fract_z
 _atom_site_occupancy
  V  V0  1  0.87461998  0.62042202  0.26546504  1
  V  V1  1  0.63163764  0.24742587  0.87633349  1
  V  V2  1  -0.00129507  0.88078352  0.37112004  1
  V  V3  1  0.75562896  0.25014156  0.01006336  1
  V  V4  1  0.87288065  0.00410162  0.37343416  1
  V  V5  1  0.00194602  0.62535498  0.12113066  1
  V  V6  1  0.62854864  0.49943773  0.12718245  1
  V  V7  1  0.62840287  0.62601353  0.48726999  1
  V  V8  1  0.75703217  0.37420799  0.13294529  1
  V  V9  1  0.24985057  0.12920627  0.87697255  1
  V  V10  1  0.12113149  0.74188805  0.87958239  1
  V  V11  1  0.00220430  0.75143538  0.24966797  1
  V  V12  1  0.50115521  0.24689862  0.75200172  1
  V  V13  1  0.49910642  0.00024042  0.00023825  1
  V  V14  1  0.37727580  0.61945139  0.74831341  1
  V  V15  1  0.25213597  0.00253623  0.25024375  1
  V  V16  1  -0.01180056  0.13479978  0.62823129  1
  V  V17  1  0.12537572  0.50429795  0.12072639  1
  V  V18  1  0.62164053  0.00717057  0.61901070  1
  V  V19  1  0.25390154  0.25279069  0.00329225  1
  V  V20  1  0.24630260  0.00360483  0.74869437  1
  V  V21  1  0.75787202  0.00211029  0.75694176  1
  V  V22  1  0.86530075  0.62240182  0.75983472  1
  V  V23  1  0.24907726  0.61941514  0.87241994  1
  V  V24  1  0.00009659  0.37124679  0.37312145  1
  V  V25  1  0.37431084  0.87324480  -0.00395361  1
  V  V26  1  0.37650589  0.12568790  0.75237171  1
  V  V27  1  0.49825020  0.87993619  0.37185998  1
  V  V28  1  0.12351210  0.87752499  0.24903679  1
  V  V29  1  0.50474638  0.74766055  0.25038752  1
  V  V30  1  0.24276613  0.24727568  0.50047214  1
  V  V31  1  0.25183441  0.63376349  0.38563979  1
  V  V32  1  0.87418959  0.87851992  -0.00550541  1
  V  V33  1  0.62748650  0.87032281  0.25076404  1
  V  V34  1  0.37481729  0.49710143  0.87036271  1
  V  V35  1  0.49892045  0.74643641  0.74707271  1
  V  V36  1  -0.00251244  0.00368783  0.50058424  1
  V  V37  1  0.24919629  0.38472469  0.63164392  1
  V  V38  1  0.25529089  0.37412325  0.12728957  1
  V  V39  1  0.74599191  0.87469125  0.62357518  1
  V  V40  1  0.87648307  0.13262842  0.23771476  1
  V  V41  1  0.24723248  0.74435623  -0.00357236  1
  V  V42  1  0.50129775  0.62139986  0.12364065  1
  V  V43  1  0.62446473  0.87447833  0.75060652  1
  V  V44  1  0.49749402  0.87286000  0.87411781  1
  V  V45  1  0.11969658  0.38456203  0.75565464  1
  V  V46  1  -0.00522824  0.74454964  0.74752195  1
  V  V47  1  0.87182861  0.87571074  0.49759385  1
  V  V48  1  0.61733863  0.37444875  0.25625954  1
  V  V49  1  0.24952467  0.87442909  0.12207906  1
  V  V50  1  0.12008049  0.00418954  0.12173072  1
  V  V51  1  0.63170019  0.49814701  0.62646087  1
  V  V52  1  0.01391813  0.49946381  0.49961198  1
  V  V53  1  0.62750461  0.61770224  -0.00076097  1
  V  V54  1  0.87413249  0.74001498  0.62286800  1
  V  V55  1  0.74512920  0.12845039  0.37818706  1
  V  V56  1  0.25483130  0.51425708  0.24951149  1
  V  V57  1  0.50198877  0.37786907  0.87869695  1
  V  V58  1  0.87409211  0.38055519  0.49298284  1
  V  V59  1  0.37830260  0.37816120  0.00166336  1
  V  V60  1  0.75890280  0.37006499  0.62850775  1
  V  V61  1  -0.00067439  0.49792703  -0.00413445  1
  V  V62  1  0.37075962  0.24664550  0.62539490  1
  V  V63  1  0.62865365  0.74243091  0.87534724  1
  V  V64  1  0.75160201  0.87457163  0.12232486  1
  V  V65  1  0.12791182  0.36850918  0.25630346  1
  V  V66  1  0.75144268  0.74361792  -0.00227371  1
  V  V67  1  0.60949050  0.25072000  0.38059494  1
  V  V68  1  0.37376764  0.00002865  0.87495080  1
  V  V69  1  0.37586900  0.74376853  0.12754484  1
  V  V70  1  0.12426002  0.00279249  0.62785199  1
  V  V71  1  0.24234184  0.13138679  0.37500331  1
  V  V72  1  0.74527531  0.74690286  0.48745113  1
  V  V73  1  0.61544791  0.13202681  0.01184360  1
  V  V74  1  0.11942616  0.12811047  0.00240931  1
  V  V75  1  0.61926498  0.00076617  0.12383420  1
  V  V76  1  -0.00272306  0.24915453  0.23735559  1
  V  V77  1  0.11389793  0.25517279  0.87479650  1
  V  V78  1  0.37860680  0.13534616  0.23881584  1
  V  V79  1  0.50227161  0.61975894  0.62440383  1
  V  V80  1  0.87908262  0.37408878  0.00008949  1
  V  V81  1  -0.00303888  0.00295299  -0.00530581  1
  V  V82  1  0.75496906  0.24876451  0.50225332  1
  V  V83  1  0.00009002  0.87649560  0.87060656  1
  V  V84  1  0.75041771  0.00240102  0.24838187  1
  Zn  Zn85  1  0.87544816  0.74754643  0.12346381  1
  Zn  Zn86  1  0.74860624  0.49962627  0.75923009  1
  Zn  Zn87  1  0.50355501  0.48810058  0.48611675  1
  Zn  Zn88  1  0.25302970  0.84997235  0.60659441  1
  Zn  Zn89  1  0.75724805  0.11441310  0.88747962  1
  Zn  Zn90  1  0.12345730  0.63452780  0.50858302  1
  Zn  Zn91  1  0.38280323  0.37569839  0.49007061  1
  Zn  Zn92  1  -0.01109052  0.26144450  0.74891740  1
  Zn  Zn93  1  0.37303808  0.00321817  0.37848535  1
  Zn  Zn94  1  0.87539861  0.13386740  0.76433727  1
  Zn  Zn95  1  0.49423478  0.00166818  0.49960221  1
  Zn  Zn96  1  0.12408773  0.50902028  0.63294074  1
  Zn  Zn97  1  0.11803239  0.12945619  0.49646532  1
  Zn  Zn98  1  0.86730886  0.50255235  0.88354127  1
  Zn  Zn99  1  0.38146476  0.49938969  0.37341414  1
  Zn  Zn100  1  0.14297791  0.85471834  0.74082386  1
  Zn  Zn101  1  0.63031543  0.37385651  0.75187568  1
  Zn  Zn102  1  0.50719981  0.13406487  0.60681317  1
  Zn  Zn103  1  0.36358853  0.86552928  0.50305711  1
  Zn  Zn104  1  0.75290731  0.50562395  0.27485870  1
  Zn  Zn105  1  0.49754666  0.24584744  0.21708790  1
  Zn  Zn106  1  0.13785989  0.76257491  0.39455378  1
  Zn  Zn107  1  0.18700473  0.18930911  0.18683048  1
  Zn  Zn108  1  0.17950058  0.18888257  0.68857714  1
  Zn  Zn109  1  0.18335439  0.69127700  0.18591430  1
  Zn  Zn110  1  0.19051721  0.68203404  0.68731887  1
  Zn  Zn111  1  0.68045481  0.19162030  0.19136097  1
  Zn  Zn112  1  0.69211090  0.18652355  0.68869858  1
  Zn  Zn113  1  0.69259696  0.68581915  0.18770073  1
  Zn  Zn114  1  0.68734462  0.68846300  0.68142034  1
  Zn  Zn115  1  0.31804006  0.31226804  0.31444151  1
  Zn  Zn116  1  0.30828950  0.31321088  0.81228609  1
  Zn  Zn117  1  0.31492655  0.81261724  0.30971720  1
  Zn  Zn118  1  0.30544726  0.80359210  0.78936984  1
  Zn  Zn119  1  0.81199538  0.31213912  0.31462921  1
  Zn  Zn120  1  0.81644831  0.31413491  0.81715332  1
  Zn  Zn121  1  0.81695760  0.81019038  0.30865296  1
  Zn  Zn122  1  0.81159938  0.81335000  0.81247860  1
  Zn  Zn123  1  0.20866716  0.42961364  0.43095958  1
  Zn  Zn124  1  0.18732662  0.43916758  0.93749106  1
  Zn  Zn125  1  0.18752449  0.93957444  0.44182629  1
  Zn  Zn126  1  0.18565707  0.93436136  0.93091442  1
  Zn  Zn127  1  0.68524793  0.43554584  0.43759075  1
  Zn  Zn128  1  0.69287820  0.43533911  0.93916149  1
  Zn  Zn129  1  0.68540003  0.93643874  0.43591090  1
  Zn  Zn130  1  0.68263999  0.93399163  0.93828832  1
  Zn  Zn131  1  0.31024109  0.06284968  0.06120116  1
  Zn  Zn132  1  0.31641248  0.05706560  0.56024157  1
  Zn  Zn133  1  0.31529505  0.56039024  0.05854501  1
  Zn  Zn134  1  0.31747634  0.56393567  0.55924377  1
  Zn  Zn135  1  0.80946380  0.06152567  0.06083791  1
  Zn  Zn136  1  0.80931535  0.06270238  0.56373536  1
  Zn  Zn137  1  0.81539116  0.56052009  0.07295532  1
  Zn  Zn138  1  0.81181563  0.55723642  0.55065074  1
  Zn  Zn139  1  0.43935337  0.44065072  0.18893267  1
  Zn  Zn140  1  0.44553578  0.42840111  0.67431184  1
  Zn  Zn141  1  0.43555248  0.93576121  0.18595848  1
  Zn  Zn142  1  0.43407054  0.93446446  0.68499055  1
  Zn  Zn143  1  0.93948226  0.44067866  0.19084733  1
  Zn  Zn144  1  0.93781093  0.44138874  0.68154881  1
  Zn  Zn145  1  0.93477254  0.94152756  0.18275822  1
  Zn  Zn146  1  0.93738352  0.93596543  0.68368447  1
  Zn  Zn147  1  0.06010249  0.06752780  0.31006715  1
  Zn  Zn148  1  0.06124245  0.06738913  0.81246645  1
  Zn  Zn149  1  0.06860614  0.56171400  0.31801857  1
  Zn  Zn150  1  0.05589581  0.56561542  0.81183864  1
  Zn  Zn151  1  0.56280745  0.06548499  0.30927089  1
  Zn  Zn152  1  0.56770702  0.06236948  0.81477335  1
  Zn  Zn153  1  0.55892025  0.55894728  0.30913612  1
  Zn  Zn154  1  0.56545698  0.55806911  0.81255181  1
  Zn  Zn155  1  0.42730601  0.17852663  0.43705265  1
  Zn  Zn156  1  0.43833973  0.19080668  0.94048115  1
  Zn  Zn157  1  0.42876617  0.68444306  0.43178639  1
  Zn  Zn158  1  0.43994633  0.68434148  0.93866094  1
  Zn  Zn159  1  0.93662223  0.19230987  0.43129415  1
  Zn  Zn160  1  0.93093734  0.18714093  0.93773832  1
  Zn  Zn161  1  0.95682281  0.69682946  0.44571996  1
  Zn  Zn162  1  0.93670628  0.68598129  0.93962872  1
  Zn  Zn163  1  0.06570796  0.31664620  0.06562579  1
  Zn  Zn164  1  0.06343377  0.31790412  0.56463370  1
  Zn  Zn165  1  0.06211513  0.81438771  0.06185676  1
  Zn  Zn166  1  0.05990459  0.81864789  0.56485306  1
  Zn  Zn167  1  0.56473791  0.31809057  0.06392961  1
  Zn  Zn168  1  0.56656374  0.31233719  0.56137430  1
  Zn  Zn169  1  0.56329414  0.81103025  0.06203033  1
  Zn  Zn170  1  0.52614008  0.78457281  0.53603628  1
  O  O171  1  0.13167394  0.11603837  0.11303141  1
  O  O172  1  0.11130739  0.11690784  0.62338709  1
  O  O173  1  0.11552528  0.61488007  0.13018930  1
  O  O174  1  0.13503861  0.61894197  0.62006631  1
  O  O175  1  0.63506498  0.10820911  0.12107602  1
  O  O176  1  0.62393714  0.11082135  0.63235570  1
  O  O177  1  0.62276612  0.61819088  0.11903543  1
  O  O178  1  0.62093866  0.61456732  0.62335877  1
  O  O179  1  0.32962006  0.39223171  0.38999331  1
  O  O180  1  0.38006239  0.37938714  0.87928827  1
  O  O181  1  0.39135821  0.87725451  0.36705980  1
  O  O182  1  0.37940073  0.87950659  0.87769817  1
  O  O183  1  0.88522064  0.37230024  0.38219389  1
  O  O184  1  0.87358406  0.37756112  0.89689912  1
  O  O185  1  0.87824344  0.88475437  0.37713372  1
  O  O186  1  0.88415729  0.86868178  0.88613565  1
  O  O187  1  0.24745481  0.00677339  0.36115527  1
  O  O188  1  0.25358834  0.01290783  0.87502933  1
  O  O189  1  0.24076231  0.51837599  0.35723421  1
  O  O190  1  0.25911961  0.50965142  0.88089855  1
  O  O191  1  0.75119661  0.00878281  0.36893001  1
  O  O192  1  0.74133833  -0.00540209  0.86016417  1
  O  O193  1  0.75493135  0.49996855  0.38500601  1
  O  O194  1  0.75421326  0.49741613  0.87211878  1
  O  O195  1  0.24498184  0.49640605  0.12944565  1
  O  O196  1  0.25217111  0.48522401  0.62435879  1
  O  O197  1  0.23977216  0.99464781  0.12897158  1
  O  O198  1  0.23856713  1.00949953  0.63624247  1
  O  O199  1  0.74173761  0.49268558  0.13324055  1
  O  O200  1  0.74502513  0.49055804  0.62471734  1
  O  O201  1  0.74171675  0.99154543  0.12816398  1
  O  O202  1  0.74212866  0.99408362  0.63387399  1
  O  O203  1  0.00779154  0.37035375  0.25390444  1
  O  O204  1  0.01551375  0.37579200  0.74161812  1
  O  O205  1  0.00293892  0.87278806  0.24951033  1
  O  O206  1  -0.00916154  0.86497036  0.76158110  1
  O  O207  1  0.51369370  0.36721271  0.23647610  1
  O  O208  1  0.50209955  0.36111980  0.75886577  1
  O  O209  1  0.50883355  0.86854173  0.25039788  1
  O  O210  1  0.50360879  0.86411650  0.75437362  1
  O  O211  1  0.48094650  0.12326474  0.25232220  1
  O  O212  1  0.49589359  0.13659764  0.75687137  1
  O  O213  1  0.51165936  0.63673920  0.23472186  1
  O  O214  1  0.49689740  0.62789813  0.74673088  1
  O  O215  1  0.98953740  0.13680678  0.25511288  1
  O  O216  1  0.99646153  0.12548286  0.73712728  1
  O  O217  1  0.99745349  0.63333136  0.24440776  1
  O  O218  1  0.98425982  0.63725238  0.75321748  1
  O  O219  1  0.36222810  0.26175849  -0.00731091  1
  O  O220  1  0.36546700  0.25144511  0.51295901  1
  O  O221  1  0.36769534  0.75382257  0.00491129  1
  O  O222  1  0.41702737  0.76411976  0.50613296  1
  O  O223  1  0.86304215  0.25691046  0.00218447  1
  O  O224  1  0.86278618  0.26087943  0.49411200  1
  O  O225  1  0.86636635  0.75750899  0.00074963  1
  O  O226  1  0.86911392  0.75539462  0.50626440  1
  O  O227  1  0.13854127  0.24699134  0.50897919  1
  O  O228  1  0.13190624  0.24708425  0.99638945  1
  O  O229  1  0.07782262  0.73942575  0.48876342  1
  O  O230  1  0.13442808  0.75416564  0.99098592  1
  O  O231  1  0.63561147  0.25614691  0.48668726  1
  O  O232  1  0.63487062  0.24596957  0.99244589  1
  O  O233  1  0.63020175  0.73450018  0.50534881  1
  O  O234  1  0.63279527  0.74251692  0.99411514  1
  O  O235  1  0.53641524  0.22615255  0.11503286  1
  O  O236  1  0.49310955  0.24909024  0.63747345  1
  O  O237  1  0.49389000  0.74438076  0.12830063  1
  O  O238  1  0.51331723  0.73474483  0.64191554  1
  O  O239  1  1.00096221  0.25558608  0.13732362  1
  O  O240  1  1.00347500  0.23617220  0.62316163  1
  O  O241  1  1.00247223  0.74311597  0.13054203  1
  O  O242  1  0.98386879  0.76330380  0.63884933  1
  O  O243  1  0.00235055  0.26335499  0.36541922  1
  O  O244  1  0.01268705  0.24996511  0.88215849  1
  O  O245  1  -0.00405000  0.76416117  0.35700092  1
  O  O246  1  0.00395687  0.75522017  0.87302487  1
  O  O247  1  0.51036192  0.24577291  0.38295503  1
  O  O248  1  0.50857791  0.25686136  0.87069832  1
  O  O249  1  0.49786008  0.76017622  0.35557298  1
  O  O250  1  0.51030743  0.75182893  0.86920103  1
  O  O251  1  0.25097462  0.13027395  0.49146680  1
  O  O252  1  0.24183453  0.13508963  0.99728419  1
  O  O253  1  0.24916881  0.62781912  0.48845755  1
  O  O254  1  0.25718853  0.63609324  0.98851263  1
  O  O255  1  0.75605611  0.13338764  0.48850095  1
  O  O256  1  0.73771603  0.13395816  1.00522436  1
  O  O257  1  0.73725350  0.63271026  0.50506896  1
  O  O258  1  0.74295392  0.63521955  1.00948500  1
  O  O259  1  0.25634042  0.37108930  0.00679402  1
  O  O260  1  0.24532008  0.36345858  0.52290981  1
  O  O261  1  0.25368888  0.86475801  0.00104942  1
  O  O262  1  0.24427864  0.85846788  0.49415113  1
  O  O263  1  0.75714249  0.36838953  0.01333764  1
  O  O264  1  0.75689020  0.36782953  0.50704016  1
  O  O265  1  0.75639266  0.86841135  0.00155530  1
  O  O266  1  0.75148754  0.86813655  0.50560285  1
  O  O267  1  0.13524211  0.49199628  0.23911835  1
  O  O268  1  0.12111910  0.48870435  0.75441016  1
  O  O269  1  0.13041540  0.99939387  0.23917593  1
  O  O270  1  0.13188085  1.00701068  0.74331302  1
  O  O271  1  0.63096935  0.49219742  0.24380376  1
  O  O272  1  0.62942398  0.49572525  0.74054904  1
  O  O273  1  0.63046194  0.99346248  0.24024040  1
  O  O274  1  0.63303551  0.99315323  0.74259298  1
  O  O275  1  0.36130485  0.00578944  0.24548223  1
  O  O276  1  0.36870962  0.00844777  0.75646437  1
  O  O277  1  0.35653103  0.49524986  0.24760110  1
  O  O278  1  0.38272783  0.50543998  0.76211097  1
  O  O279  1  0.86955257  0.00836216  0.25351192  1
  O  O280  1  0.85867189  -0.00501378  0.74587709  1
  O  O281  1  0.87865335  0.51656499  0.25203203  1
  O  O282  1  0.87883947  0.51654484  0.74810960  1
  O  O283  1  0.12569212  0.37757983  0.36044550  1
  O  O284  1  0.13176296  0.36962852  0.86341413  1
  O  O285  1  0.11638683  0.87868047  0.36567628  1
  O  O286  1  0.11550084  0.86179166  0.86955147  1
  O  O287  1  0.62537167  0.36130097  0.36809442  1
  O  O288  1  0.61756110  0.36488618  0.87825969  1
  O  O289  1  0.61908845  0.88150910  0.35620809  1
  O  O290  1  0.61701471  0.86382821  0.87126846  1
  O  O291  1  0.36450545  0.12423463  0.13942538  1
  O  O292  1  0.37764881  0.13412670  0.63324094  1
  O  O293  1  0.38728159  0.63312951  0.11384140  1
  O  O294  1  0.38659198  0.61564207  0.63929527  1
  O  O295  1  0.86801172  0.12102103  0.13868986  1
  O  O296  1  0.88660945  0.12023979  0.62689863  1
  O  O297  1  0.88904332  0.62701077  0.13524327  1
  O  O298  1  0.86983759  0.63724967  0.62680186  1
  O  O299  1  0.24391564  0.26264911  0.11399232  1
  O  O300  1  0.25688760  0.24792363  0.62198285  1
  O  O301  1  0.25573260  0.75218327  0.11604273  1
  O  O302  1  0.23802865  0.78116564  0.69303116  1
  O  O303  1  0.73990287  0.26075317  0.11827002  1
  O  O304  1  0.74027475  0.25762070  0.61340395  1
  O  O305  1  0.75017609  0.75752761  0.11276964  1
  O  O306  1  0.75569642  0.75898158  0.61666203  1
  O  O307  1  0.25558595  0.24101577  0.38785889  1
  O  O308  1  0.23994404  0.24843834  0.88536354  1
  O  O309  1  0.24883161  0.73804256  0.36287063  1
  O  O310  1  0.24164850  0.74221278  0.87911589  1
  O  O311  1  0.74365236  0.24328583  0.38296842  1
  O  O312  1  0.74063875  0.25394257  0.88783130  1
  O  O313  1  0.75301601  0.75796831  0.38866964  1
  O  O314  1  0.73844359  0.75597689  0.88468928  1
  O  O315  1  0.01113499  0.11657160  -0.00560708  1
  O  O316  1  -0.00397662  0.12206777  0.50798562  1
  O  O317  1  -0.00625364  0.61646328  0.01276902  1
  O  O318  1  -0.00093905  0.59929829  0.48928370  1
  O  O319  1  0.51017057  0.11704556  -0.00757803  1
  O  O320  1  0.49655968  0.11477018  0.49703099  1
  O  O321  1  0.51539652  0.63136166  0.01183139  1
  O  O322  1  0.51444362  0.62625745  0.51175809  1
  O  O323  1  0.48652560  0.38466275  0.53681402  1
  O  O324  1  0.48959916  0.36658769  0.99002603  1
  O  O325  1  0.51955229  0.88317303  0.47356251  1
  O  O326  1  0.49487435  0.87857074  0.99378740  1
  O  O327  1  0.99456329  0.37577944  0.49152434  1
  O  O328  1  0.98965421  0.38554209  1.01404672  1
  O  O329  1  0.99000747  0.88567276  0.49246828  1
  O  O330  1  0.99443886  0.88106288  0.99094876  1
  O  O331  1  0.49540854  0.49454064  0.37143998  1
  O  O332  1  0.49459312  0.48475459  0.87117942  1
  O  O333  1  0.49813052  0.98716190  0.36308961  1
  O  O334  1  0.49499005  0.99300137  0.87917779  1
  O  O335  1  1.00969068  0.48131539  0.38213445  1
  O  O336  1  0.99535038  0.50873974  0.89275244  1
  O  O337  1  0.99307249  0.99962188  0.37899027  1
  O  O338  1  1.01047653  0.98895842  0.88453135  1
  O  O339  1  0.01228813  -0.00621007  0.11079161  1
  O  O340  1  0.00399616  0.00799719  0.62049462  1
  O  O341  1  0.00873304  0.50705368  0.12102242  1
  O  O342  1  0.00897863  0.48775240  0.60534889  1
  O  O343  1  0.51097507  -0.00861915  0.11711659  1
  O  O344  1  0.51620407  -0.00330137  0.62760253  1
  O  O345  1  0.51370745  0.51049366  0.13215075  1
  O  O346  1  0.51356710  0.51093459  0.63298849  1
  O  O347  1  0.24491456  0.37931072  0.24014481  1
  O  O348  1  0.23604020  0.36838118  0.74096176  1
  O  O349  1  0.24509572  0.88406039  0.24312727  1
  O  O350  1  0.24803161  0.90397571  0.77392833  1
  O  O351  1  0.73905384  0.37211914  0.24479010  1
  O  O352  1  0.75124039  0.37474879  0.73985656  1
  O  O353  1  0.74545268  0.87957791  0.24349688  1
  O  O354  1  0.74603590  0.88105855  0.74293797  1
  O  O355  1  0.25391722  0.12158086  0.25415705  1
  O  O356  1  0.25461471  0.12200389  0.75765450  1
  O  O357  1  0.24845807  0.61545815  0.24372805  1
  O  O358  1  0.26575754  0.62764144  0.76422681  1
  O  O359  1  0.75514909  0.12300922  0.25794341  1
  O  O360  1  0.75109845  0.10911073  0.75135811  1
  O  O361  1  0.76969460  0.62894612  0.24808540  1
  O  O362  1  0.76291990  0.62584386  0.74422269  1
  O  O363  1  0.35993122  0.12110189  0.35983744  1
  O  O364  1  0.37005740  0.12101826  0.87313603  1
  O  O365  1  0.35710996  0.62173034  0.37135763  1
  O  O366  1  0.37340369  0.61436087  0.87166974  1
  O  O367  1  0.86394862  0.12151141  0.36626001  1
  O  O368  1  0.86932798  0.11704737  0.87811695  1
  O  O369  1  0.88884378  0.63690489  0.36209901  1
  O  O370  1  0.87196643  0.62775948  0.86287543  1
  O  O371  1  0.13668359  0.38510351  0.13205981  1
  O  O372  1  0.13544868  0.37574043  0.63852668  1
  O  O373  1  0.13050890  0.88457135  0.12699383  1
  O  O374  1  0.12005740  0.89141479  0.63079386  1
  O  O375  1  0.63449381  0.38522558  0.13086958  1
  O  O376  1  0.63767204  0.38335775  0.62601994  1
  O  O377  1  0.63068435  0.88278806  0.12864516  1
  O  O378  1  0.63741877  0.88304083  0.63183855  1
  O  O379  1  0.11767230  0.26101211  0.24311077  1
  O  O380  1  0.11791393  0.25768385  0.76056182  1
  O  O381  1  0.11517275  0.76090063  0.24619861  1
  O  O382  1  0.10566864  0.74382666  0.76310978  1
  O  O383  1  0.62042619  0.25637611  0.26539933  1
  O  O384  1  0.61998450  0.24797006  0.76048822  1
  O  O385  1  0.61880030  0.76165503  0.23666768  1
  O  O386  1  0.62130660  0.75208088  0.75892340  1
  O  O387  1  0.37848566  0.24089654  0.24923869  1
  O  O388  1  0.38117117  0.24460383  0.74741531  1
  O  O389  1  0.38485177  0.75513218  0.23277673  1
  O  O390  1  0.39212563  0.73337087  0.76296167  1
  O  O391  1  0.88285867  0.24324544  0.25396094  1
  O  O392  1  0.87825907  0.24785224  0.75430909  1
  O  O393  1  0.88590678  0.74426021  0.24280328  1
  O  O394  1  0.87419003  0.74116002  0.74418371  1
  O  O395  1  0.38295412  0.49942907  0.49613099  1
  O  O396  1  0.37302830  0.48732556  0.98717111  1
  O  O397  1  0.37638853  0.98671231  0.49337996  1
  O  O398  1  0.37824841  0.99436403  0.99510642  1
  O  O399  1  0.88815475  0.48547737  0.50337801  1
  O  O400  1  0.88264751  0.49277357  1.00614801  1
  O  O401  1  0.87555239  0.99488661  0.49347911  1
  O  O402  1  0.88522265  0.99114377  1.00527951  1
  O  O403  1  0.12031566  0.00725954  0.00313086  1
  O  O404  1  0.11648371  0.00453653  0.51010151  1
  O  O405  1  0.11638920  0.49115258  0.01237586  1
  O  O406  1  0.11918236  0.49289003  0.49655276  1
  O  O407  1  0.62031551  0.00811731  0.00589274  1
  O  O408  1  0.63014565  -0.00329360  0.51752454  1
  O  O409  1  0.63315561  0.50853211  0.01206128  1
  O  O410  1  0.62402047  0.51015426  0.51086866  1
  O  O411  1  0.36578651  0.38397465  0.11491554  1
  O  O412  1  0.35768944  0.36106510  0.63983953  1
  O  O413  1  0.36896870  0.86553019  0.11641103  1
  O  O414  1  0.36349634  0.88005469  0.62221522  1
  O  O415  1  0.86257658  0.38216069  0.12317205  1
  O  O416  1  0.86450959  0.37685601  0.61545459  1
  O  O417  1  0.87068474  0.87321163  0.11159685  1
  O  O418  1  0.86192081  0.87026221  0.61855973  1
  O  O419  1  0.13733338  0.12162379  0.37602078  1
  O  O420  1  0.12932172  0.13517849  0.88451366  1
  O  O421  1  0.13850985  0.63243811  0.37750843  1
  O  O422  1  0.13400027  0.63261795  0.86995975  1
  O  O423  1  0.63428888  0.13806630  0.36648348  1
  O  O424  1  0.62987777  0.13409754  0.88770706  1
  O  O425  1  0.62001110  0.62123670  0.38961889  1
  O  O426  1  0.61820934  0.63265028  0.88536825  1
