# generated using pymatgen
data_V85Zn86O256
_symmetry_space_group_name_H-M   'P 1'
_cell_length_a   16.94831682
_cell_length_b   16.94268702
_cell_length_c   16.94049240
_cell_angle_alpha   89.90507770
_cell_angle_beta   89.91742791
_cell_angle_gamma   89.96804051
_symmetry_Int_Tables_number   1
_chemical_formula_structural   V85Zn86O256
_chemical_formula_sum   'V85 Zn86 O256'
_cell_volume   4864.45037865
_cell_formula_units_Z   1
loop_
 _symmetry_equiv_pos_site_id
 _symmetry_equiv_pos_as_xyz
  1  'x, y, z'
loop_
 _atom_site_type_symbol
 _atom_site_label
 _atom_site_symmetry_multiplicity
 _atom_site_fract_x
 _atom_site_fract_y
 _atom_site_fract_z
 _atom_site_occupancy
  V  V0  1  0.25468576  0.74767345  -0.00094362  1
  V  V1  1  -0.00152656  0.25301520  0.74719946  1
  V  V2  1  0.25477545  0.86871240  0.12611127  1
  V  V3  1  0.87711023  0.00128187  0.87388132  1
  V  V4  1  0.36943332  0.50941520  0.87629867  1
  V  V5  1  0.36908732  0.49597855  0.37391519  1
  V  V6  1  0.62476471  0.87654338  0.75052637  1
  V  V7  1  0.49838294  0.24927363  0.74860505  1
  V  V8  1  0.37346008  0.37355860  0.00397218  1
  V  V9  1  0.87512274  0.12035038  0.25896392  1
  V  V10  1  0.75662417  0.26612725  -0.00163024  1
  V  V11  1  0.25833639  0.12201000  0.37218777  1
  V  V12  1  0.50101186  0.12395873  0.62047026  1
  V  V13  1  0.37909028  0.87157368  0.00367366  1
  V  V14  1  0.86872466  0.50492346  0.87689855  1
  V  V15  1  0.25701826  0.00176448  0.25165530  1
  V  V16  1  0.75071297  0.87796563  0.62394881  1
  V  V17  1  0.24904218  0.24941260  0.00009345  1
  V  V18  1  0.62430556  0.87188776  0.23974470  1
  V  V19  1  0.62242304  0.25176041  0.38521606  1
  V  V20  1  0.76313967  0.25265925  0.50398553  1
  V  V21  1  0.75309087  -0.00356338  0.24865811  1
  V  V22  1  -0.00295768  0.62966037  0.12490922  1
  V  V23  1  0.86817601  0.49699232  0.38003566  1
  V  V24  1  0.00097106  0.24736263  0.24979949  1
  V  V25  1  0.12635077  0.12196535  0.50071099  1
  V  V26  1  0.12554244  0.12644428  0.00006790  1
  V  V27  1  0.12541970  0.49981242  0.12748721  1
  V  V28  1  0.12965775  0.75085272  0.87217768  1
  V  V29  1  -0.00254609  0.00027797  0.49494825  1
  V  V30  1  0.49649773  0.51558155  0.50316160  1
  V  V31  1  0.50487066  0.00620249  0.00101096  1
  V  V32  1  0.49749533  0.37470863  0.87443527  1
  V  V33  1  0.23215339  0.74719168  0.49279681  1
  V  V34  1  0.00330843  0.62476073  0.61774643  1
  V  V35  1  0.36682537  0.62645281  0.24736622  1
  V  V36  1  0.23778144  0.62375942  0.37808116  1
  V  V37  1  0.76056139  0.37398175  0.62087662  1
  V  V38  1  0.37581240  0.24115745  0.13145415  1
  V  V39  1  0.12991438  0.62535439  -0.00561585  1
  V  V40  1  0.49777748  0.74219535  0.74387592  1
  V  V41  1  0.00640357  0.87760974  0.87165049  1
  V  V42  1  0.87477772  0.13141446  0.74410110  1
  V  V43  1  0.74738032  0.50302352  0.74963044  1
  V  V44  1  0.74072410  0.62399912  0.37578417  1
  V  V45  1  0.75023894  0.00218309  0.74764761  1
  V  V46  1  -0.00107709  0.12916051  0.62364802  1
  V  V47  1  0.49948604  -0.00503814  0.49394450  1
  V  V48  1  0.00138767  0.12346810  0.12630111  1
  V  V49  1  -0.00450083  0.37648801  0.87706493  1
  V  V50  1  0.25105932  0.12421485  0.87170183  1
  V  V51  1  0.00242904  0.00100123  -0.00056877  1
  V  V52  1  0.37705500  0.87172632  0.48968541  1
  V  V53  1  0.49676609  0.24492706  0.25685133  1
  V  V54  1  0.12397165  0.37756313  0.25028544  1
  V  V55  1  0.87122866  0.87790006  0.49518006  1
  V  V56  1  -0.00184565  0.87276721  0.37500251  1
  V  V57  1  0.74751580  0.12583461  0.87714869  1
  V  V58  1  0.62362160  0.00426402  0.61787273  1
  V  V59  1  0.12666073  0.24893206  0.37444722  1
  V  V60  1  0.25456921  0.25384818  0.49939540  1
  V  V61  1  0.87274777  0.75322526  0.62589101  1
  V  V62  1  0.37458828  0.25237881  0.62323882  1
  V  V63  1  0.87036318  0.87357283  0.00672139  1
  V  V64  1  0.24803891  0.37635685  0.12722883  1
  V  V65  1  0.24884625  0.37528989  0.62563845  1
  V  V66  1  0.49858046  0.37438403  0.38319717  1
  V  V67  1  0.62283331  0.37481699  0.74648938  1
  V  V68  1  -0.00395726  0.37383163  0.38236113  1
  V  V69  1  0.61774422  0.75709381  0.38225600  1
  V  V70  1  0.12611405  0.86960164  0.25590573  1
  V  V71  1  0.74638240  0.12209489  0.37962205  1
  V  V72  1  0.50349785  0.87295558  0.87467924  1
  V  V73  1  0.24502816  0.87279275  0.62799773  1
  V  V74  1  0.24912463  0.50750076  0.75325041  1
  V  V75  1  0.62646565  0.62088105  -0.00597414  1
  V  V76  1  0.86793438  0.62927059  0.75495792  1
  V  V77  1  0.00035384  0.74852135  0.25253360  1
  V  V78  1  0.12735472  -0.00095784  0.12493172  1
  V  V79  1  0.00355564  0.75434294  0.75044397  1
  V  V80  1  0.62054440  0.51190099  0.61868687  1
  V  V81  1  -0.00505991  0.49901483  -0.00020116  1
  V  V82  1  0.87468521  0.25533297  0.12141867  1
  V  V83  1  0.50437130  0.63221145  0.13178141  1
  V  V84  1  0.49842693  0.49679569  0.01265111  1
  Zn  Zn85  1  0.00266347  0.49726482  0.50230563  1
  Zn  Zn86  1  0.38822461  -0.00175002  0.36572986  1
  Zn  Zn87  1  0.69899143  0.42366079  0.18947934  1
  Zn  Zn88  1  0.63554366  0.74181641  0.87060956  1
  Zn  Zn89  1  0.37269979  0.11755659  0.74816862  1
  Zn  Zn90  1  0.37933637  0.74062345  0.61103031  1
  Zn  Zn91  1  0.37589766  -0.00105410  0.87046505  1
  Zn  Zn92  1  0.63060660  0.12982557  0.01435539  1
  Zn  Zn93  1  0.74897239  0.74551156  -0.00011785  1
  Zn  Zn94  1  0.37707521  0.62195990  0.74007701  1
  Zn  Zn95  1  0.13162131  0.50807895  0.62070278  1
  Zn  Zn96  1  0.62368426  0.24941806  0.87605965  1
  Zn  Zn97  1  0.63160960  0.00757531  0.12661339  1
  Zn  Zn98  1  0.12360172  0.37965507  0.75029844  1
  Zn  Zn99  1  0.86288018  0.75915696  0.13304332  1
  Zn  Zn100  1  0.24517099  -0.00927361  0.75415248  1
  Zn  Zn101  1  0.49119472  0.76179903  0.25202256  1
  Zn  Zn102  1  0.86565097  0.62324339  0.24796684  1
  Zn  Zn103  1  0.12445171  0.25287380  0.87546231  1
  Zn  Zn104  1  0.50370823  0.12285806  0.13984659  1
  Zn  Zn105  1  0.12114960  -0.00815774  0.63308998  1
  Zn  Zn106  1  0.74307415  0.74039281  0.50575320  1
  Zn  Zn107  1  0.18978646  0.18762543  0.18787676  1
  Zn  Zn108  1  0.18271181  0.18706180  0.68825268  1
  Zn  Zn109  1  0.18587030  0.68591509  0.18718297  1
  Zn  Zn110  1  0.18997249  0.69038771  0.68419811  1
  Zn  Zn111  1  0.68975509  0.21522450  0.19420439  1
  Zn  Zn112  1  0.68610722  0.18895432  0.68355059  1
  Zn  Zn113  1  0.68868312  0.68477859  0.18711269  1
  Zn  Zn114  1  0.68546387  0.69122242  0.68846837  1
  Zn  Zn115  1  0.31252813  0.31610764  0.31000038  1
  Zn  Zn116  1  0.31237152  0.31366005  0.81130684  1
  Zn  Zn117  1  0.31113058  0.80815826  0.31532963  1
  Zn  Zn118  1  0.31775316  0.81061122  0.81498946  1
  Zn  Zn119  1  0.81097902  0.31105018  0.31343959  1
  Zn  Zn120  1  0.81309155  0.31730574  0.81167831  1
  Zn  Zn121  1  0.80883009  0.80958393  0.31435950  1
  Zn  Zn122  1  0.81137395  0.81370546  0.81927833  1
  Zn  Zn123  1  0.18200737  0.43962620  0.44250112  1
  Zn  Zn124  1  0.18480016  0.43679461  0.93613921  1
  Zn  Zn125  1  0.18620415  0.93687173  0.43911862  1
  Zn  Zn126  1  0.18902611  0.93740675  0.93775263  1
  Zn  Zn127  1  0.68210859  0.43584052  0.43716061  1
  Zn  Zn128  1  0.68324818  0.44068880  0.93894871  1
  Zn  Zn129  1  0.68606628  0.93729758  0.43173756  1
  Zn  Zn130  1  0.68758632  0.94016047  0.93759028  1
  Zn  Zn131  1  0.31470804  0.05900561  0.05963851  1
  Zn  Zn132  1  0.31575850  0.05960152  0.56078663  1
  Zn  Zn133  1  0.31319757  0.56147228  0.06636883  1
  Zn  Zn134  1  0.31442563  0.56430762  0.56128140  1
  Zn  Zn135  1  0.81562623  0.06469775  0.06585994  1
  Zn  Zn136  1  0.81368947  0.06399796  0.55921751  1
  Zn  Zn137  1  0.80640717  0.56092446  0.06715614  1
  Zn  Zn138  1  0.81281430  0.56084892  0.55980436  1
  Zn  Zn139  1  0.53935806  0.43168190  0.19562618  1
  Zn  Zn140  1  0.43373526  0.43897018  0.68425252  1
  Zn  Zn141  1  0.44170142  0.93743602  0.18413474  1
  Zn  Zn142  1  0.42890327  0.93213454  0.68339957  1
  Zn  Zn143  1  0.87588588  0.44616588  0.18591618  1
  Zn  Zn144  1  0.93658384  0.44181829  0.69114406  1
  Zn  Zn145  1  0.93807264  0.94061300  0.18995869  1
  Zn  Zn146  1  0.93766051  0.94123722  0.68557434  1
  Zn  Zn147  1  0.06769220  0.05933136  0.31379659  1
  Zn  Zn148  1  0.06940688  0.06276854  0.80921670  1
  Zn  Zn149  1  0.05265435  0.55642790  0.31156310  1
  Zn  Zn150  1  0.06210422  0.56505395  0.80796654  1
  Zn  Zn151  1  0.56967602  0.06667394  0.31016312  1
  Zn  Zn152  1  0.56165424  0.06193700  0.81029819  1
  Zn  Zn153  1  0.56584729  0.56097372  0.31343587  1
  Zn  Zn154  1  0.55879782  0.55556190  0.81411192  1
  Zn  Zn155  1  0.43755754  0.18287938  0.44049478  1
  Zn  Zn156  1  0.43537534  0.18754748  0.93654054  1
  Zn  Zn157  1  0.43294460  0.68622676  0.43185042  1
  Zn  Zn158  1  0.44328468  0.68741801  0.93738910  1
  Zn  Zn159  1  0.93655712  0.18999145  0.43833054  1
  Zn  Zn160  1  0.93621910  0.18817325  0.93571155  1
  Zn  Zn161  1  0.93025852  0.68977828  0.43490779  1
  Zn  Zn162  1  0.93948716  0.68917607  0.93769595  1
  Zn  Zn163  1  0.05871540  0.31332473  0.06232489  1
  Zn  Zn164  1  0.06679421  0.31026875  0.56287179  1
  Zn  Zn165  1  0.06321202  0.81370175  0.06252977  1
  Zn  Zn166  1  0.06001414  0.81052308  0.56151089  1
  Zn  Zn167  1  0.56673254  0.30472242  0.06528305  1
  Zn  Zn168  1  0.56327029  0.31756385  0.55877101  1
  Zn  Zn169  1  0.56538365  0.80825829  0.06393202  1
  Zn  Zn170  1  0.56192028  0.81597636  0.56342858  1
  O  O171  1  0.12183130  0.11873604  0.12050922  1
  O  O172  1  0.11422098  0.12381611  0.61771006  1
  O  O173  1  0.11881432  0.61920935  0.11689347  1
  O  O174  1  0.10576551  0.63064314  0.63050436  1
  O  O175  1  0.62255472  0.12998991  0.13127992  1
  O  O176  1  0.61541637  0.11379012  0.62955253  1
  O  O177  1  0.60795158  0.62286923  0.11956332  1
  O  O178  1  0.62963299  0.61095493  0.62870194  1
  O  O179  1  0.37430409  0.39068658  0.37347528  1
  O  O180  1  0.37707144  0.38002455  0.88705146  1
  O  O181  1  0.36949940  0.87923545  0.38405391  1
  O  O182  1  0.38563405  0.87575510  0.88592845  1
  O  O183  1  0.88047847  0.38645986  0.36765139  1
  O  O184  1  0.88633811  0.38998781  0.86798233  1
  O  O185  1  0.88426317  0.87118307  0.38453431  1
  O  O186  1  0.88779459  0.88227376  0.88328909  1
  O  O187  1  0.24733727  0.00642649  0.36713454  1
  O  O188  1  0.25225056  0.01037486  0.87755588  1
  O  O189  1  0.26092664  0.51065150  0.38807090  1
  O  O190  1  0.25771762  0.49310632  0.86628504  1
  O  O191  1  0.74518006  0.01209613  0.36640859  1
  O  O192  1  0.75593576  0.00787571  0.86658634  1
  O  O193  1  0.75928897  0.50624304  0.38122073  1
  O  O194  1  0.76114083  0.49363392  0.86801706  1
  O  O195  1  0.23302449  0.49400136  0.11738633  1
  O  O196  1  0.25424860  0.48946598  0.63154420  1
  O  O197  1  0.24762808  0.98981627  0.13120225  1
  O  O198  1  0.24976402  0.98075869  0.61739198  1
  O  O199  1  0.78031434  0.49066840  0.14713296  1
  O  O200  1  0.74145451  0.49298047  0.62767924  1
  O  O201  1  0.75073236  1.00825888  0.14275675  1
  O  O202  1  0.74275572  0.99940922  0.62754559  1
  O  O203  1  0.01201207  0.36432137  0.26254210  1
  O  O204  1  -0.00121905  0.36839040  0.75499756  1
  O  O205  1  0.00605036  0.87059844  0.25596204  1
  O  O206  1  -0.00711452  0.86574212  0.75869103  1
  O  O207  1  0.48981196  0.35897315  0.27130182  1
  O  O208  1  0.50508752  0.37100061  0.75199959  1
  O  O209  1  0.51634808  0.87672591  0.24748019  1
  O  O210  1  0.50334772  0.86971107  0.75789807  1
  O  O211  1  0.49228348  0.13672829  0.25944426  1
  O  O212  1  0.49795920  0.12990371  0.73886747  1
  O  O213  1  0.49228757  0.62317783  0.23995463  1
  O  O214  1  0.50368834  0.64007570  0.75629899  1
  O  O215  1  0.99668163  0.12616648  0.24818208  1
  O  O216  1  0.99323853  0.13186584  0.74392732  1
  O  O217  1  1.00642264  0.63638155  0.24172655  1
  O  O218  1  0.98940498  0.63690795  0.74358400  1
  O  O219  1  0.37045172  0.25707981  0.00625060  1
  O  O220  1  0.36414440  0.24287438  0.51044379  1
  O  O221  1  0.36620611  0.75841481  -0.00701081  1
  O  O222  1  0.36882254  0.75808926  0.49332154  1
  O  O223  1  0.86597039  0.24719457  0.00421250  1
  O  O224  1  0.86241056  0.25493067  0.49789625  1
  O  O225  1  0.88088894  0.76732736  -0.00100507  1
  O  O226  1  0.87255163  0.76394239  0.50711463  1
  O  O227  1  0.13537381  0.24160418  0.49434088  1
  O  O228  1  0.13082969  0.24447591  1.00106286  1
  O  O229  1  0.13331060  0.75173337  0.49433507  1
  O  O230  1  0.13225156  0.74442769  0.99298894  1
  O  O231  1  0.62809912  0.24797347  0.49145396  1
  O  O232  1  0.64145851  0.24751171  0.99426761  1
  O  O233  1  0.62513538  0.75918247  0.48718931  1
  O  O234  1  0.62015643  0.73079467  0.99879660  1
  O  O235  1  0.49120888  0.24880664  0.13745265  1
  O  O236  1  0.49369121  0.24407873  0.62606208  1
  O  O237  1  0.49737939  0.73629087  0.12865802  1
  O  O238  1  0.50036168  0.75746314  0.64124704  1
  O  O239  1  0.99733453  0.24016388  0.12899037  1
  O  O240  1  1.00245074  0.23936777  0.63167241  1
  O  O241  1  1.00097187  0.74416915  0.13252680  1
  O  O242  1  0.99390628  0.74666073  0.63376883  1
  O  O243  1  0.00654801  0.25260330  0.36975345  1
  O  O244  1  -0.00243969  0.26021805  0.86807659  1
  O  O245  1  -0.00262263  0.76023378  0.36574426  1
  O  O246  1  0.00818473  0.75830721  0.86877151  1
  O  O247  1  0.50078091  0.25381775  0.37814660  1
  O  O248  1  0.50067595  0.25676423  0.86792371  1
  O  O249  1  0.51593797  0.74054834  0.36962967  1
  O  O250  1  0.50523035  0.76092629  0.86838492  1
  O  O251  1  0.24555492  0.13035308  0.49365281  1
  O  O252  1  0.24541251  0.12921123  0.99360194  1
  O  O253  1  0.24904766  0.63651903  0.48952529  1
  O  O254  1  0.24080722  0.63489908  1.00828407  1
  O  O255  1  0.75744563  0.13801201  0.49299201  1
  O  O256  1  0.75251009  0.12357811  0.98553454  1
  O  O257  1  0.75193776  0.62526364  0.48559433  1
  O  O258  1  0.72726796  0.61031308  1.00218160  1
  O  O259  1  0.25416591  0.37015146  0.00498634  1
  O  O260  1  0.24512902  0.36034614  0.50751541  1
  O  O261  1  0.25801952  0.86892830  0.00723386  1
  O  O262  1  0.25388633  0.86165885  0.49992107  1
  O  O263  1  0.75154607  0.36497902  -0.00625100  1
  O  O264  1  0.74360176  0.36253650  0.50720033  1
  O  O265  1  0.76952849  0.88306462  -0.00318999  1
  O  O266  1  0.75967118  0.88039458  0.50460117  1
  O  O267  1  0.11429557  0.48986607  0.23707024  1
  O  O268  1  0.13294353  0.50031509  0.74352960  1
  O  O269  1  0.13447408  0.98871074  0.24473831  1
  O  O270  1  0.13218204  0.99741044  0.74569934  1
  O  O271  1  0.62093528  0.48523842  0.25538810  1
  O  O272  1  0.62643144  0.49307075  0.74220919  1
  O  O273  1  0.63223436  0.98758650  0.25062370  1
  O  O274  1  0.63008620  0.99556577  0.73964183  1
  O  O275  1  0.36142683  -0.00923194  0.24973615  1
  O  O276  1  0.36423696  -0.00122154  0.75143704  1
  O  O277  1  0.37678199  0.51617864  0.27027927  1
  O  O278  1  0.36863039  0.49915216  0.75984327  1
  O  O279  1  0.87014226  0.01131932  0.24897530  1
  O  O280  1  0.87076303  0.01022283  0.75365591  1
  O  O281  1  0.89166001  0.51126762  0.27409865  1
  O  O282  1  0.86867914  0.51143764  0.75757294  1
  O  O283  1  0.12017287  0.36976327  0.36856059  1
  O  O284  1  0.10993215  0.37499756  0.87175642  1
  O  O285  1  0.11532153  0.87811393  0.36423404  1
  O  O286  1  0.11536580  0.86560777  0.88175698  1
  O  O287  1  0.61230989  0.36404720  0.38052399  1
  O  O288  1  0.61798832  0.37763916  0.86103523  1
  O  O289  1  0.62827870  0.86161173  0.36569144  1
  O  O290  1  0.61679628  0.87724283  0.86921922  1
  O  O291  1  0.37726574  0.13762421  0.11701306  1
  O  O292  1  0.38148714  0.13340165  0.62699858  1
  O  O293  1  0.37790863  0.61975964  0.14172808  1
  O  O294  1  0.37521685  0.62965032  0.62706860  1
  O  O295  1  0.88358365  0.13176430  0.13422660  1
  O  O296  1  0.88449589  0.12041910  0.63497513  1
  O  O297  1  0.89140863  0.62600799  0.12585021  1
  O  O298  1  0.88064809  0.63322120  0.63494023  1
  O  O299  1  0.25636486  0.25526949  0.12057889  1
  O  O300  1  0.25545977  0.25280189  0.61954150  1
  O  O301  1  0.24313015  0.76041464  0.11423402  1
  O  O302  1  0.24907509  0.75507304  0.60764221  1
  O  O303  1  0.76102185  0.23900916  0.10208371  1
  O  O304  1  0.74467469  0.25629093  0.61148620  1
  O  O305  1  0.75583362  0.73440026  0.11216050  1
  O  O306  1  0.75363614  0.75964926  0.62362375  1
  O  O307  1  0.24805952  0.24312248  0.38072398  1
  O  O308  1  0.24871964  0.24357802  0.88202682  1
  O  O309  1  0.24674852  0.73747423  0.38323966  1
  O  O310  1  0.24025049  0.75852122  0.88555064  1
  O  O311  1  0.74292940  0.24686577  0.38943700  1
  O  O312  1  0.75468122  0.24441247  0.88400075  1
  O  O313  1  0.74060252  0.74028237  0.38025055  1
  O  O314  1  0.74717972  0.75236907  0.88630984  1
  O  O315  1  0.00474455  0.11998049  0.00412700  1
  O  O316  1  0.00232183  0.11960840  0.50456509  1
  O  O317  1  0.01062325  0.62261290  0.00597566  1
  O  O318  1  -0.00832855  0.63438838  0.51711350  1
  O  O319  1  0.50433229  0.11356576  -0.00625714  1
  O  O320  1  0.49412933  0.11350040  0.51438394  1
  O  O321  1  0.49898776  0.61771772  0.01370554  1
  O  O322  1  0.50091393  0.61407078  0.49498449  1
  O  O323  1  0.49406767  0.37970951  0.48897690  1
  O  O324  1  0.49006469  0.37882021  0.99603918  1
  O  O325  1  0.48877865  0.88383245  0.50571563  1
  O  O326  1  0.49703958  0.87871731  0.99563307  1
  O  O327  1  1.00219954  0.36464464  0.48505413  1
  O  O328  1  1.00400347  0.38875402  0.99152866  1
  O  O329  1  0.99354045  0.88016280  0.49394683  1
  O  O330  1  0.99650927  0.88161804  0.99053713  1
  O  O331  1  0.49110596  0.49574689  0.38531563  1
  O  O332  1  0.48762841  0.49208701  0.88402596  1
  O  O333  1  0.50474993  1.00969630  0.39010602  1
  O  O334  1  0.50094903  0.98990799  0.88199400  1
  O  O335  1  0.99358239  0.48922379  0.38178433  1
  O  O336  1  0.99324037  0.49679893  0.87957405  1
  O  O337  1  1.00412874  0.98952817  0.38480924  1
  O  O338  1  0.99822307  0.99497626  0.87769355  1
  O  O339  1  0.00800747  0.00472799  0.12076908  1
  O  O340  1  0.00108815  0.00970546  0.61544691  1
  O  O341  1  0.00919419  0.51047946  0.11332941  1
  O  O342  1  -0.00529157  0.51760068  0.62707662  1
  O  O343  1  0.50314763  0.00456914  0.11422741  1
  O  O344  1  0.50534926  0.00447544  0.61956015  1
  O  O345  1  0.48905603  0.50952151  0.11609388  1
  O  O346  1  0.50338210  0.49515664  0.61095109  1
  O  O347  1  0.23222357  0.37011498  0.24453397  1
  O  O348  1  0.24807439  0.38309403  0.74256106  1
  O  O349  1  0.24413875  0.87681118  0.24481963  1
  O  O350  1  0.25710644  0.86346096  0.73033945  1
  O  O351  1  0.74116707  0.32409035  0.22977347  1
  O  O352  1  0.74100227  0.38021631  0.74258684  1
  O  O353  1  0.74230830  0.88553207  0.25733497  1
  O  O354  1  0.74742779  0.88305654  0.74438618  1
  O  O355  1  0.24282185  0.11286548  0.25867528  1
  O  O356  1  0.24878403  0.12903303  0.76284099  1
  O  O357  1  0.25848871  0.63101162  0.26016404  1
  O  O358  1  0.25052307  0.61137475  0.74464016  1
  O  O359  1  0.75925201  0.12255846  0.26092475  1
  O  O360  1  0.75793058  0.12442075  0.75362662  1
  O  O361  1  0.75076098  0.62939318  0.26864936  1
  O  O362  1  0.76072983  0.62133260  0.74520359  1
  O  O363  1  0.36117047  0.11920694  0.37984053  1
  O  O364  1  0.36391623  0.12275700  0.87355378  1
  O  O365  1  0.36369874  0.61785104  0.36900301  1
  O  O366  1  0.37960186  0.61176733  0.87529591  1
  O  O367  1  0.86611729  0.13239730  0.36621148  1
  O  O368  1  0.86887177  0.12067242  0.86415477  1
  O  O369  1  0.86500572  0.61717994  0.37467172  1
  O  O370  1  0.88321888  0.61844503  0.86488840  1
  O  O371  1  0.12579698  0.38103025  0.13078018  1
  O  O372  1  0.13910526  0.37104844  0.62920670  1
  O  O373  1  0.13425998  0.87969907  0.13178901  1
  O  O374  1  0.13970966  0.87101168  0.61770562  1
  O  O375  1  0.61297971  0.38698627  0.12025882  1
  O  O376  1  0.62931360  0.38298320  0.63398611  1
  O  O377  1  0.62924972  0.87321340  0.13669177  1
  O  O378  1  0.63111645  0.88463637  0.63107853  1
  O  O379  1  0.12015562  0.25487374  0.25429706  1
  O  O380  1  0.10881463  0.25096814  0.75366734  1
  O  O381  1  0.11618433  0.76158003  0.24407176  1
  O  O382  1  0.11558318  0.74307752  0.76083882  1
  O  O383  1  0.60632487  0.24547581  0.27055789  1
  O  O384  1  0.61875718  0.26028442  0.74878629  1
  O  O385  1  0.62710133  0.76217502  0.25637206  1
  O  O386  1  0.61507123  0.75775341  0.75175944  1
  O  O387  1  0.37712100  0.25344447  0.23947027  1
  O  O388  1  0.38078901  0.24793811  0.73961253  1
  O  O389  1  0.37915923  0.73316930  0.26117131  1
  O  O390  1  0.39081330  0.74688695  0.75412882  1
  O  O391  1  0.88428585  0.23712368  0.24332262  1
  O  O392  1  0.88431420  0.24138302  0.75421775  1
  O  O393  1  0.88743641  0.74943135  0.24892027  1
  O  O394  1  0.88194880  0.74696708  0.74781422  1
  O  O395  1  0.38670044  0.50619415  0.48901707  1
  O  O396  1  0.37728848  0.49258464  0.99584065  1
  O  O397  1  0.38331672  0.99044793  0.49664306  1
  O  O398  1  0.38585225  0.98745385  0.99860434  1
  O  O399  1  0.88336465  0.50292883  0.48615717  1
  O  O400  1  0.88707821  0.51469471  0.98987485  1
  O  O401  1  0.88633826  0.99044094  0.50456359  1
  O  O402  1  0.88350197  0.99416232  0.99502554  1
  O  O403  1  0.12155473  0.00500749  0.00595883  1
  O  O404  1  0.11342008  0.00383708  0.50329204  1
  O  O405  1  0.11703476  0.50861034  0.00325810  1
  O  O406  1  0.11589329  0.49761366  0.51002094  1
  O  O407  1  0.61791089  0.00228603  0.00471543  1
  O  O408  1  0.61682949  -0.01009379  0.51169031  1
  O  O409  1  0.60760566  0.50810185  -0.00565871  1
  O  O410  1  0.60882960  0.49515381  0.50613202  1
  O  O411  1  0.36686998  0.36598078  0.11121167  1
  O  O412  1  0.36368299  0.36197297  0.62837457  1
  O  O413  1  0.36656681  0.87550895  0.11628664  1
  O  O414  1  0.36299220  0.86599626  0.60964601  1
  O  O415  1  0.89261301  0.35350280  0.12789971  1
  O  O416  1  0.85961828  0.38111528  0.63141429  1
  O  O417  1  0.88513401  0.87730189  0.11005892  1
  O  O418  1  0.87056069  0.87301943  0.61784644  1
  O  O419  1  0.13421234  0.12953571  0.38078441  1
  O  O420  1  0.13273459  0.12861494  0.88332083  1
  O  O421  1  0.14031781  0.61282408  0.36543468  1
  O  O422  1  0.11812910  0.63554685  0.88574547  1
  O  O423  1  0.63944767  0.13425183  0.37447069  1
  O  O424  1  0.63963093  0.12770246  0.86834086  1
  O  O425  1  0.63452341  0.63533249  0.37221580  1
  O  O426  1  0.61284439  0.62340823  0.88979083  1
