# generated using pymatgen
data_V85Zn86O256
_symmetry_space_group_name_H-M   'P 1'
_cell_length_a   16.97373711
_cell_length_b   16.96059227
_cell_length_c   16.95374418
_cell_angle_alpha   90.02334305
_cell_angle_beta   89.81099228
_cell_angle_gamma   90.13261613
_symmetry_Int_Tables_number   1
_chemical_formula_structural   V85Zn86O256
_chemical_formula_sum   'V85 Zn86 O256'
_cell_volume   4880.68242416
_cell_formula_units_Z   1
loop_
 _symmetry_equiv_pos_site_id
 _symmetry_equiv_pos_as_xyz
  1  'x, y, z'
loop_
 _atom_site_type_symbol
 _atom_site_label
 _atom_site_symmetry_multiplicity
 _atom_site_fract_x
 _atom_site_fract_y
 _atom_site_fract_z
 _atom_site_occupancy
  V  V0  1  -0.00491333  0.49038888  0.49580599  1
  V  V1  1  0.63962636  0.75015880  0.37576816  1
  V  V2  1  0.25471823  0.87025156  0.11106721  1
  V  V3  1  0.50030992  0.87409670  0.37339499  1
  V  V4  1  0.00116586  0.62230937  0.62282927  1
  V  V5  1  0.24977371  0.12404401  0.88200209  1
  V  V6  1  0.74951329  0.63137999  0.88322348  1
  V  V7  1  0.87570646  0.75569402  0.11827831  1
  V  V8  1  0.74762799  0.50412424  0.25339597  1
  V  V9  1  0.74173098  0.49815423  0.74855222  1
  V  V10  1  0.12557058  0.12235358  0.50745989  1
  V  V11  1  0.62505940  -0.00686888  0.62597039  1
  V  V12  1  0.49571320  0.62761897  0.62092359  1
  V  V13  1  0.37620197  0.48772697  0.37442734  1
  V  V14  1  0.00358873  0.01858724  0.00166144  1
  V  V15  1  0.50359515  0.75945207  0.75056250  1
  V  V16  1  0.00362609  0.75752057  0.74970797  1
  V  V17  1  0.24897509  0.74613786  0.49281187  1
  V  V18  1  0.87780098  0.11918438  0.74861086  1
  V  V19  1  0.62011076  0.51238878  0.11640534  1
  V  V20  1  0.12396224  0.01259263  0.11862338  1
  V  V21  1  0.62138004  0.49840024  0.63167238  1
  V  V22  1  0.37869833  0.12761966  0.75312230  1
  V  V23  1  0.00077905  0.75049532  0.24980282  1
  V  V24  1  0.87623718  0.62268293  0.74962371  1
  V  V25  1  0.75099529  0.37544590  0.11797110  1
  V  V26  1  0.89158015  0.25074526  0.12519529  1
  V  V27  1  0.74261741  0.24166535  0.00050181  1
  V  V28  1  0.12434855  0.24431151  0.87928613  1
  V  V29  1  0.62186948  0.25728588  0.37577918  1
  V  V30  1  0.50885076  0.37388776  0.85681977  1
  V  V31  1  0.24929747  0.50961279  0.25654158  1
  V  V32  1  0.75823356  0.87970837  0.12039924  1
  V  V33  1  0.75172950  0.00561787  0.25006193  1
  V  V34  1  0.37757845  0.25335294  0.12489171  1
  V  V35  1  -0.00139935  0.24288367  0.74481142  1
  V  V36  1  0.38066394  0.63168567  0.25892985  1
  V  V37  1  -0.00081319  0.62592180  0.12381196  1
  V  V38  1  0.24873816  0.49884979  0.74825525  1
  V  V39  1  0.12869858  0.62975490  -0.00162224  1
  V  V40  1  0.12679568  0.62435498  0.49178493  1
  V  V41  1  0.89278223  0.13144516  0.25013033  1
  V  V42  1  0.12327173  -0.00709688  0.63163031  1
  V  V43  1  0.37653696  0.24994268  0.62537657  1
  V  V44  1  0.37293622  0.62568603  0.74687790  1
  V  V45  1  0.12479299  0.50206668  0.12451195  1
  V  V46  1  0.49833882  -0.01655171  -0.00304777  1
  V  V47  1  0.86749117  0.74851623  0.62050119  1
  V  V48  1  0.87031136  0.62392824  0.25631318  1
  V  V49  1  0.00106462  0.87427831  0.37480737  1
  V  V50  1  -0.00170715  0.87333633  0.88701856  1
  V  V51  1  0.37661033  0.12483481  0.25111556  1
  V  V52  1  -0.00031591  0.00220798  0.50882238  1
  V  V53  1  0.62683061  0.00665397  0.11913894  1
  V  V54  1  0.74944538  -0.00611960  0.75139095  1
  V  V55  1  0.50362838  0.12753657  0.11562511  1
  V  V56  1  0.49470152  0.49138640  0.49188578  1
  V  V57  1  0.12372312  0.37199364  0.75132634  1
  V  V58  1  0.87595154  0.00231138  0.37576625  1
  V  V59  1  0.12149159  0.37062146  0.25484518  1
  V  V60  1  0.24561777  0.62559919  0.87305128  1
  V  V61  1  0.37417392  0.50023605  0.87543861  1
  V  V62  1  0.87303407  -0.00584946  0.88469432  1
  V  V63  1  0.62990723  0.13065821  0.50181333  1
  V  V64  1  0.25099423  0.24922826  0.49902854  1
  V  V65  1  0.50171475  0.12827030  0.62922118  1
  V  V66  1  0.12529163  0.87498265  0.24881421  1
  V  V67  1  0.12668807  0.75316912  0.87288771  1
  V  V68  1  0.86663707  0.24876945  0.62226836  1
  V  V69  1  0.37742327  -0.01321510  0.87985685  1
  V  V70  1  0.38491139  0.38024624  -0.00039297  1
  V  V71  1  0.62636312  0.87822393  0.25140210  1
  V  V72  1  0.63403711  0.62967724  0.49301439  1
  V  V73  1  0.86816183  0.87145535  0.50063691  1
  V  V74  1  0.24695111  -0.00756192  0.75181584  1
  V  V75  1  0.37239356  0.87624741  0.50074255  1
  V  V76  1  0.50086092  0.25871095  0.25416211  1
  V  V77  1  0.25345701  0.37265347  0.62169523  1
  V  V78  1  0.75113237  0.13406337  0.37764053  1
  V  V79  1  0.25177573  -0.00109682  0.24982683  1
  V  V80  1  0.25212864  0.37899322  0.12486092  1
  V  V81  1  -0.00471406  0.49337917  -0.00285527  1
  V  V82  1  0.25106667  0.25112404  -0.00057661  1
  V  V83  1  0.87393280  0.48997497  0.87570197  1
  V  V84  1  0.37657864  0.74742915  0.11143306  1
  Zn  Zn85  1  0.12409025  0.49632155  0.62338503  1
  Zn  Zn86  1  0.50532014  0.52932385  -0.00005987  1
  Zn  Zn87  1  0.62223661  0.38074242  0.25155487  1
  Zn  Zn88  1  0.37733251  0.00084543  0.37534207  1
  Zn  Zn89  1  0.73772961  0.11506514  0.88661447  1
  Zn  Zn90  1  0.25159051  0.12494186  0.37656221  1
  Zn  Zn91  1  0.61294254  0.24120432  0.86301329  1
  Zn  Zn92  1  0.49864516  0.00103273  0.49904934  1
  Zn  Zn93  1  0.85097974  0.35034022  0.48460142  1
  Zn  Zn94  1  -0.01356857  0.36372854  0.36125269  1
  Zn  Zn95  1  0.74310329  0.86513416  0.62271093  1
  Zn  Zn96  1  0.62191070  0.87116094  0.77541614  1
  Zn  Zn97  1  0.37034003  0.75159288  0.62319539  1
  Zn  Zn98  1  0.24498292  0.87143883  0.62732401  1
  Zn  Zn99  1  0.74668306  0.75896221  -0.00349883  1
  Zn  Zn100  1  0.11942226  0.24071615  0.36970931  1
  Zn  Zn101  1  0.86341619  0.49769821  0.37909462  1
  Zn  Zn102  1  0.50603239  0.74600491  0.24411543  1
  Zn  Zn103  1  -0.01135778  0.36767664  0.87766312  1
  Zn  Zn104  1  0.73657740  0.36432325  0.62345575  1
  Zn  Zn105  1  0.12760603  0.74556904  0.37044126  1
  Zn  Zn106  1  0.59480550  0.73433158  0.91638846  1
  Zn  Zn107  1  0.19027148  0.18984881  0.18572759  1
  Zn  Zn108  1  0.18888630  0.18145959  0.68983996  1
  Zn  Zn109  1  0.19055049  0.68859979  0.18575194  1
  Zn  Zn110  1  0.18597291  0.68860226  0.68282137  1
  Zn  Zn111  1  0.69016860  0.18959214  0.19012075  1
  Zn  Zn112  1  0.68695770  0.18174453  0.69646843  1
  Zn  Zn113  1  0.68890203  0.69226471  0.18383192  1
  Zn  Zn114  1  0.68383058  0.67875169  0.68997427  1
  Zn  Zn115  1  0.30779815  0.31357337  0.31151420  1
  Zn  Zn116  1  0.31464091  0.31354008  0.81250846  1
  Zn  Zn117  1  0.31084205  0.81434258  0.31234638  1
  Zn  Zn118  1  0.31345262  0.80835871  0.81193708  1
  Zn  Zn119  1  0.80998968  0.31535672  0.30275473  1
  Zn  Zn120  1  0.78419661  0.30030488  0.80017073  1
  Zn  Zn121  1  0.81629261  0.81605391  0.30645763  1
  Zn  Zn122  1  0.81454468  0.81405786  0.81045328  1
  Zn  Zn123  1  0.18777675  0.44041622  0.43783793  1
  Zn  Zn124  1  0.18715754  0.43708373  0.93832684  1
  Zn  Zn125  1  0.18735750  0.93612419  0.43743856  1
  Zn  Zn126  1  0.18363887  0.93731421  0.93634847  1
  Zn  Zn127  1  0.68444840  0.43960006  0.44242605  1
  Zn  Zn128  1  0.68972825  0.43777376  0.93820177  1
  Zn  Zn129  1  0.68683953  0.94273842  0.43762629  1
  Zn  Zn130  1  0.68112684  0.92895799  0.93811216  1
  Zn  Zn131  1  0.31617773  0.06073119  0.06406733  1
  Zn  Zn132  1  0.31096675  0.06074396  0.56493661  1
  Zn  Zn133  1  0.31299157  0.56606818  0.06454941  1
  Zn  Zn134  1  0.31110853  0.56073925  0.55891545  1
  Zn  Zn135  1  0.81938968  0.06954796  0.06621791  1
  Zn  Zn136  1  0.81144486  0.06322784  0.56498624  1
  Zn  Zn137  1  0.81360151  0.56213266  0.06572110  1
  Zn  Zn138  1  0.80984634  0.55629676  0.56186763  1
  Zn  Zn139  1  0.43963154  0.44523924  0.18540844  1
  Zn  Zn140  1  0.43648802  0.43966273  0.68464950  1
  Zn  Zn141  1  0.43858514  0.93468412  0.18438256  1
  Zn  Zn142  1  0.43430253  0.94125959  0.68666797  1
  Zn  Zn143  1  0.93422884  0.43724188  0.18390448  1
  Zn  Zn144  1  0.93525873  0.43171483  0.68817280  1
  Zn  Zn145  1  0.94124038  0.94355169  0.18635786  1
  Zn  Zn146  1  0.93616023  0.93358449  0.68855309  1
  Zn  Zn147  1  0.06848637  0.05769285  0.31766694  1
  Zn  Zn148  1  0.06175868  0.06050685  0.81562727  1
  Zn  Zn149  1  0.05678897  0.55861577  0.31238498  1
  Zn  Zn150  1  0.06088991  0.56053521  0.81243242  1
  Zn  Zn151  1  0.56299241  0.06534162  0.31107020  1
  Zn  Zn152  1  0.56323209  0.05886721  0.81465199  1
  Zn  Zn153  1  0.56315611  0.56389984  0.31001118  1
  Zn  Zn154  1  0.55346638  0.57587529  0.83072468  1
  Zn  Zn155  1  0.43942371  0.18875891  0.44054639  1
  Zn  Zn156  1  0.43808302  0.19075190  0.93524935  1
  Zn  Zn157  1  0.43986655  0.68872638  0.43529771  1
  Zn  Zn158  1  0.42938904  0.69098719  0.93126670  1
  Zn  Zn159  1  0.94368599  0.18513269  0.43644913  1
  Zn  Zn160  1  0.92606412  0.18947834  0.93455041  1
  Zn  Zn161  1  0.93744780  0.68626167  0.43664806  1
  Zn  Zn162  1  0.93687949  0.68349225  0.93733333  1
  Zn  Zn163  1  0.06710081  0.31477300  0.06258580  1
  Zn  Zn164  1  0.06111704  0.30571708  0.56255919  1
  Zn  Zn165  1  0.06536286  0.81585611  0.06357878  1
  Zn  Zn166  1  0.06062691  0.81172013  0.56050940  1
  Zn  Zn167  1  0.56920379  0.31653063  0.06312867  1
  Zn  Zn168  1  0.55991936  0.31303299  0.56230103  1
  Zn  Zn169  1  0.56617111  0.81174263  0.06916950  1
  Zn  Zn170  1  0.55880527  0.80962571  0.55826968  1
  O  O171  1  0.13394583  0.11180496  0.12657214  1
  O  O172  1  0.13052048  0.11104981  0.61622676  1
  O  O173  1  0.12055776  0.62263605  0.11703544  1
  O  O174  1  0.11293604  0.62246303  0.61732680  1
  O  O175  1  0.61671763  0.11448359  0.13372001  1
  O  O176  1  0.61999864  0.12013494  0.62307233  1
  O  O177  1  0.63108568  0.61102902  0.12924836  1
  O  O178  1  0.61423679  0.62002289  0.61261193  1
  O  O179  1  0.37574621  0.38800295  0.36690899  1
  O  O180  1  0.37996741  0.37992818  0.88191955  1
  O  O181  1  0.38358161  0.87607959  0.38096693  1
  O  O182  1  0.36958284  0.88800114  0.87382674  1
  O  O183  1  0.87292968  0.37841515  0.37557741  1
  O  O184  1  0.86930611  0.38881866  0.86385001  1
  O  O185  1  0.87996988  0.88171110  0.38128422  1
  O  O186  1  0.88439293  0.88551567  0.87114808  1
  O  O187  1  0.25212616  0.00025775  0.35984421  1
  O  O188  1  0.25561347  0.00649338  0.87248726  1
  O  O189  1  0.25929243  0.49708606  0.36538692  1
  O  O190  1  0.25295358  0.50444223  0.86758246  1
  O  O191  1  0.75607785  0.01085388  0.36988201  1
  O  O192  1  0.75703730  -0.00701552  0.87069108  1
  O  O193  1  0.74408087  0.49716911  0.35775822  1
  O  O194  1  0.75545464  0.50981519  0.86770338  1
  O  O195  1  0.24510063  0.49820047  0.13394532  1
  O  O196  1  0.24903342  0.48843126  0.62825213  1
  O  O197  1  0.24711668  0.99053236  0.13043560  1
  O  O198  1  0.24299189  0.99794495  0.63598363  1
  O  O199  1  0.74412588  0.49403474  0.12996717  1
  O  O200  1  0.73495710  0.51335758  0.63618724  1
  O  O201  1  0.74579706  0.99964556  0.12941022  1
  O  O202  1  0.74024677  0.99882228  0.63367109  1
  O  O203  1  0.01788773  0.38497451  0.24699643  1
  O  O204  1  0.00889184  0.36456736  0.75337555  1
  O  O205  1  0.00569573  0.87181012  0.25423461  1
  O  O206  1  -0.00451350  0.86223723  0.75960743  1
  O  O207  1  0.49916377  0.36196930  0.24420465  1
  O  O208  1  0.49823910  0.37747800  0.75742788  1
  O  O209  1  0.50715434  0.87635448  0.25789780  1
  O  O210  1  0.50048949  0.86277056  0.73808920  1
  O  O211  1  0.49209626  0.13156904  0.24068675  1
  O  O212  1  0.48978455  0.11826567  0.74127266  1
  O  O213  1  0.48472189  0.62641879  0.24895096  1
  O  O214  1  0.49311053  0.63284794  0.73943303  1
  O  O215  1  0.99159932  0.12284222  0.26221759  1
  O  O216  1  0.98919747  0.13073397  0.75910824  1
  O  O217  1  0.99334964  0.62849833  0.24249965  1
  O  O218  1  0.99258427  0.62908830  0.74221944  1
  O  O219  1  0.37043559  0.26057951  0.00547165  1
  O  O220  1  0.36384814  0.24143235  0.51268727  1
  O  O221  1  0.37356373  0.74552975  0.01193063  1
  O  O222  1  0.36673012  0.75665105  0.49838892  1
  O  O223  1  0.86857888  0.24254775  0.02143163  1
  O  O224  1  0.88236608  0.24216068  0.51854229  1
  O  O225  1  0.87379951  0.74323357  0.01565481  1
  O  O226  1  0.88280602  0.75858512  0.50877778  1
  O  O227  1  0.13676071  0.23709358  0.50945227  1
  O  O228  1  0.13415322  0.25880234  0.98708999  1
  O  O229  1  0.12982630  0.74210024  0.49795826  1
  O  O230  1  0.11595391  0.73821272  0.98904743  1
  O  O231  1  0.61852857  0.23884090  0.49348266  1
  O  O232  1  0.64021709  0.25702855  0.99215900  1
  O  O233  1  0.62304917  0.73758671  0.49355987  1
  O  O234  1  0.63650095  0.74197497  1.02090000  1
  O  O235  1  0.49825046  0.24452593  0.13231816  1
  O  O236  1  0.49027349  0.23965284  0.62070835  1
  O  O237  1  0.47950734  0.76310547  0.13041179  1
  O  O238  1  0.49404488  0.74024449  0.62730568  1
  O  O239  1  0.99052740  0.25719549  0.12299792  1
  O  O240  1  0.99350445  0.24768007  0.64007352  1
  O  O241  1  0.99466004  0.74732242  0.12996515  1
  O  O242  1  0.99345356  0.74149483  0.63121312  1
  O  O243  1  0.01333312  0.26218797  0.39825464  1
  O  O244  1  0.00660874  0.25004849  0.86863213  1
  O  O245  1  0.00077734  0.75711957  0.36742994  1
  O  O246  1  0.00323907  0.75427212  0.86881038  1
  O  O247  1  0.50891281  0.24192701  0.36540317  1
  O  O248  1  0.49803944  0.26796660  0.87601952  1
  O  O249  1  0.50942912  0.76224170  0.37157148  1
  O  O250  1  0.49494252  0.75270071  0.85288219  1
  O  O251  1  0.24421373  0.13076777  0.49999602  1
  O  O252  1  0.26123118  0.13181219  0.98841487  1
  O  O253  1  0.23728675  0.63190051  0.50727417  1
  O  O254  1  0.23545639  0.61775929  0.99187877  1
  O  O255  1  0.74185270  0.12089148  0.49004342  1
  O  O256  1  0.74712379  0.13627252  1.00679693  1
  O  O257  1  0.73203790  0.61701054  0.50006624  1
  O  O258  1  0.75654080  0.62051719  0.98410893  1
  O  O259  1  0.26058725  0.37280092  0.00454369  1
  O  O260  1  0.24015417  0.36503461  0.51283582  1
  O  O261  1  0.24952480  0.87883596  0.01248888  1
  O  O262  1  0.25778592  0.86760585  0.49911524  1
  O  O263  1  0.75149720  0.36915111  0.01172706  1
  O  O264  1  0.75607730  0.39790676  0.51637506  1
  O  O265  1  0.75352067  0.88081021  0.01798161  1
  O  O266  1  0.76483982  0.88295352  0.50147250  1
  O  O267  1  0.13249726  0.49721338  0.24492054  1
  O  O268  1  0.12845636  0.48874929  0.74869321  1
  O  O269  1  0.13352585  0.99583307  0.24053882  1
  O  O270  1  0.13450585  1.00761823  0.74363550  1
  O  O271  1  0.63001823  0.50063564  0.24040012  1
  O  O272  1  0.62967468  0.51690246  0.74217695  1
  O  O273  1  0.63094308  0.99824647  0.24175566  1
  O  O274  1  0.63068745  0.99066571  0.74373548  1
  O  O275  1  0.36876384  0.00841295  0.24567995  1
  O  O276  1  0.36877923  0.00847804  0.75896247  1
  O  O277  1  0.36992868  0.51077536  0.25418001  1
  O  O278  1  0.36788832  0.50549197  0.75438333  1
  O  O279  1  0.87249949  0.01068995  0.25577965  1
  O  O280  1  0.87065176  0.00124120  0.75749842  1
  O  O281  1  0.86613035  0.50803124  0.24748244  1
  O  O282  1  0.87009653  0.50858381  0.75264279  1
  O  O283  1  0.12871577  0.37899330  0.35833355  1
  O  O284  1  0.13036123  0.36288540  0.86296470  1
  O  O285  1  0.11797166  0.87501685  0.36704629  1
  O  O286  1  0.11549463  0.86202059  0.87844391  1
  O  O287  1  0.62962967  0.36060720  0.37561947  1
  O  O288  1  0.60894823  0.38124240  0.87719378  1
  O  O289  1  0.62036047  0.87040089  0.37309568  1
  O  O290  1  0.63674739  0.84384516  0.88264575  1
  O  O291  1  0.38282299  0.13195639  0.13301455  1
  O  O292  1  0.38169950  0.12849927  0.63303243  1
  O  O293  1  0.36691893  0.64161224  0.13450429  1
  O  O294  1  0.38179748  0.62334882  0.62821348  1
  O  O295  1  0.87618796  0.13790354  0.13853631  1
  O  O296  1  0.87107230  0.13119733  0.63883973  1
  O  O297  1  0.88069751  0.63388017  0.13327857  1
  O  O298  1  0.88243672  0.62934123  0.62944834  1
  O  O299  1  0.25794669  0.25781617  0.11957445  1
  O  O300  1  0.25671242  0.25295549  0.62037515  1
  O  O301  1  0.25788880  0.76328023  0.12725901  1
  O  O302  1  0.25013491  0.75392605  0.61304188  1
  O  O303  1  0.74852827  0.25756355  0.11712774  1
  O  O304  1  0.76291017  0.24645275  0.62749553  1
  O  O305  1  0.76170630  0.76421517  0.13017987  1
  O  O306  1  0.76388167  0.74549559  0.63244695  1
  O  O307  1  0.24593207  0.25000852  0.38725720  1
  O  O308  1  0.24541850  0.24210598  0.87766324  1
  O  O309  1  0.24625923  0.75288294  0.38746453  1
  O  O310  1  0.23596713  0.74209546  0.86545478  1
  O  O311  1  0.74072073  0.23988259  0.36871754  1
  O  O312  1  0.77369422  0.24792798  0.90219472  1
  O  O313  1  0.73895455  0.75693066  0.36983408  1
  O  O314  1  0.77354481  0.73453123  0.88042213  1
  O  O315  1  0.00069536  0.11703986  -0.00926843  1
  O  O316  1  0.01040851  0.10940698  0.49786859  1
  O  O317  1  0.00908708  0.61556920  0.00323361  1
  O  O318  1  0.00591699  0.61752023  0.50707075  1
  O  O319  1  0.49603319  0.12569163  0.01357098  1
  O  O320  1  0.50884324  0.12228691  0.51108522  1
  O  O321  1  0.51874036  0.62493280  -0.05902040  1
  O  O322  1  0.50333511  0.62034387  0.50737953  1
  O  O323  1  0.50014187  0.39299252  0.50406972  1
  O  O324  1  0.48755984  0.37516619  0.99976173  1
  O  O325  1  0.49019616  0.87585801  0.49097992  1
  O  O326  1  0.49798672  0.88585866  1.00648835  1
  O  O327  1  1.00004170  0.39007674  0.51238219  1
  O  O328  1  1.00800600  0.38920742  0.99523528  1
  O  O329  1  0.99071015  0.88282028  0.49557889  1
  O  O330  1  0.99943304  0.87811669  0.98969253  1
  O  O331  1  0.49513450  0.50362959  0.38573925  1
  O  O332  1  0.49014906  0.48459006  0.87564763  1
  O  O333  1  0.50159722  0.98858701  0.37604907  1
  O  O334  1  0.49387714  1.00053984  0.88942790  1
  O  O335  1  0.99923500  0.49093673  0.38887559  1
  O  O336  1  0.99132016  0.49710316  0.87961020  1
  O  O337  1  0.99510026  0.99322440  0.38595078  1
  O  O338  1  0.99558498  0.99193790  0.88291626  1
  O  O339  1  0.01140524  -0.00406162  0.11337388  1
  O  O340  1  0.00637341  -0.00643243  0.61772699  1
  O  O341  1  0.00323690  0.50575809  0.11615456  1
  O  O342  1  -0.00186433  0.50877715  0.61901214  1
  O  O343  1  0.50550020  0.00614018  0.11547704  1
  O  O344  1  0.50901232  0.01013632  0.62474483  1
  O  O345  1  0.51373353  0.50137674  0.11865925  1
  O  O346  1  0.50174911  0.50919013  0.61582299  1
  O  O347  1  0.24272653  0.38681012  0.24366268  1
  O  O348  1  0.24318463  0.37699936  0.74206782  1
  O  O349  1  0.24560135  0.88416458  0.24408369  1
  O  O350  1  0.25575315  0.88902066  0.75000063  1
  O  O351  1  0.74563735  0.38611554  0.23774736  1
  O  O352  1  0.75626847  0.39696537  0.73907132  1
  O  O353  1  0.74633842  0.88700983  0.24345314  1
  O  O354  1  0.74926887  0.88296383  0.74459693  1
  O  O355  1  0.26072993  0.11762096  0.24775668  1
  O  O356  1  0.25953865  0.11548649  0.76042211  1
  O  O357  1  0.25846069  0.61582069  0.24683878  1
  O  O358  1  0.25148539  0.61841463  0.75112336  1
  O  O359  1  0.75655651  0.12199874  0.26034359  1
  O  O360  1  0.75924583  0.10432309  0.75308167  1
  O  O361  1  0.76061630  0.61732294  0.24126405  1
  O  O362  1  0.76308093  0.61985327  0.75576069  1
  O  O363  1  0.37551772  0.12360760  0.36276344  1
  O  O364  1  0.36985005  0.11936218  0.86862241  1
  O  O365  1  0.37633983  0.61857491  0.36265485  1
  O  O366  1  0.36243618  0.62045153  0.86586026  1
  O  O367  1  0.86833577  0.12337087  0.37169533  1
  O  O368  1  0.86787059  0.11080046  0.86620413  1
  O  O369  1  0.88092302  0.62042834  0.36076984  1
  O  O370  1  0.87306626  0.61407240  0.86437858  1
  O  O371  1  0.13246164  0.38261859  0.13341220  1
  O  O372  1  0.13334254  0.37006168  0.63775621  1
  O  O373  1  0.13825577  0.88057801  0.12924154  1
  O  O374  1  0.12523279  0.88755265  0.62128064  1
  O  O375  1  0.63437211  0.38603426  0.12871638  1
  O  O376  1  0.61975150  0.39360195  0.62133190  1
  O  O377  1  0.63473507  0.88901435  0.13245913  1
  O  O378  1  0.62526828  0.88708126  0.61389464  1
  O  O379  1  0.13368203  0.26651493  0.24975008  1
  O  O380  1  0.11882779  0.25099088  0.75698576  1
  O  O381  1  0.11921403  0.75521317  0.24907878  1
  O  O382  1  0.11214764  0.74026415  0.75885796  1
  O  O383  1  0.61613910  0.24999683  0.25865184  1
  O  O384  1  0.67665900  0.26240121  0.77090209  1
  O  O385  1  0.62415460  0.75798776  0.25660906  1
  O  O386  1  0.60765386  0.75056278  0.73740761  1
  O  O387  1  0.38011249  0.24398661  0.24583906  1
  O  O388  1  0.36593082  0.23654463  0.73981198  1
  O  O389  1  0.37266401  0.73812868  0.25074448  1
  O  O390  1  0.38282822  0.74447713  0.74399893  1
  O  O391  1  0.87225558  0.24224669  0.23901683  1
  O  O392  1  0.87915478  0.23891727  0.74576118  1
  O  O393  1  0.88144636  0.74260869  0.24276920  1
  O  O394  1  0.88488322  0.74048306  0.74199245  1
  O  O395  1  0.38611926  0.50615089  0.48996313  1
  O  O396  1  0.37768076  0.49656374  0.99553470  1
  O  O397  1  0.37458949  0.99127612  0.49622944  1
  O  O398  1  0.38965164  1.00362533  0.99507605  1
  O  O399  1  0.89012390  0.50687756  0.49815441  1
  O  O400  1  0.88576944  0.50661221  0.99023376  1
  O  O401  1  0.88250075  0.99504231  0.49819413  1
  O  O402  1  0.88393436  1.00701054  0.99111755  1
  O  O403  1  0.11629571  -0.00263705  0.00661170  1
  O  O404  1  0.11984973  0.00304652  0.50876912  1
  O  O405  1  0.11750249  0.50800948  0.00330021  1
  O  O406  1  0.11448843  0.50629580  0.50301050  1
  O  O407  1  0.61208165  -0.00324821  0.00922625  1
  O  O408  1  0.62451345  0.01316275  0.50879408  1
  O  O409  1  0.62701336  0.50007895  0.01295904  1
  O  O410  1  0.60980084  0.51318964  0.50310205  1
  O  O411  1  0.37172550  0.37421558  0.11852538  1
  O  O412  1  0.36419237  0.36312712  0.63278916  1
  O  O413  1  0.36127491  0.86605369  0.13023151  1
  O  O414  1  0.37316964  0.87569417  0.61108919  1
  O  O415  1  0.86563606  0.35981975  0.13358505  1
  O  O416  1  0.87514233  0.35368396  0.62935882  1
  O  O417  1  0.86916883  0.86825116  0.13588359  1
  O  O418  1  0.87377531  0.86482077  0.61770813  1
  O  O419  1  0.13139474  0.12233569  0.39001167  1
  O  O420  1  0.13757764  0.13429467  0.86945116  1
  O  O421  1  0.11650358  0.62508624  0.38752740  1
  O  O422  1  0.12538706  0.63139874  0.88009078  1
  O  O423  1  0.63198425  0.13125483  0.38267847  1
  O  O424  1  0.62716533  0.12857596  0.87088533  1
  O  O425  1  0.61796270  0.63452822  0.38567418  1
  O  O426  1  0.65006435  0.63810798  0.86086317  1
