# generated using pymatgen
data_V85Zn86O256
_symmetry_space_group_name_H-M   'P 1'
_cell_length_a   16.98634394
_cell_length_b   16.98530105
_cell_length_c   16.96480545
_cell_angle_alpha   89.91956380
_cell_angle_beta   90.10726588
_cell_angle_gamma   89.98082616
_symmetry_Int_Tables_number   1
_chemical_formula_structural   V85Zn86O256
_chemical_formula_sum   'V85 Zn86 O256'
_cell_volume   4894.64086808
_cell_formula_units_Z   1
loop_
 _symmetry_equiv_pos_site_id
 _symmetry_equiv_pos_as_xyz
  1  'x, y, z'
loop_
 _atom_site_type_symbol
 _atom_site_label
 _atom_site_symmetry_multiplicity
 _atom_site_fract_x
 _atom_site_fract_y
 _atom_site_fract_z
 _atom_site_occupancy
  V  V0  1  0.24805100  0.49183900  0.24803942  1
  V  V1  1  0.75634003  0.50671727  0.75650647  1
  V  V2  1  0.49986564  0.24446397  0.24790122  1
  V  V3  1  0.25170865  0.75115071  -0.00036308  1
  V  V4  1  0.62509887  0.87649211  0.74332641  1
  V  V5  1  0.63011849  0.49713773  0.62837486  1
  V  V6  1  0.12500187  0.74911547  0.37452937  1
  V  V7  1  -0.00104573  0.74681118  0.24980960  1
  V  V8  1  0.75660982  0.75178177  0.51448721  1
  V  V9  1  0.37411726  0.49683220  0.87487213  1
  V  V10  1  0.87410297  0.87763850  0.51870566  1
  V  V11  1  0.37497073  0.87114137  0.50811551  1
  V  V12  1  0.49352697  0.75184042  0.74622905  1
  V  V13  1  0.00566770  0.25813028  0.74027693  1
  V  V14  1  0.62995891  0.24593255  0.37692052  1
  V  V15  1  0.50182638  0.87179167  0.37387846  1
  V  V16  1  0.50283489  0.50031905  0.50048957  1
  V  V17  1  -0.00134231  0.62105696  0.12783401  1
  V  V18  1  0.12233842  0.25441764  0.87153315  1
  V  V19  1  0.24908877  0.49652716  0.74824132  1
  V  V20  1  0.25221464  0.75023473  0.50553324  1
  V  V21  1  0.74947089  -0.00213258  0.74684741  1
  V  V22  1  0.50150694  -0.00255677  0.00012856  1
  V  V23  1  -0.01164007  0.87802467  0.37449335  1
  V  V24  1  0.62818094  0.37544932  0.75220177  1
  V  V25  1  0.24963409  0.62425162  0.37528465  1
  V  V26  1  -0.01931085  0.49582547  0.50044845  1
  V  V27  1  0.11493732  0.00188066  0.12144756  1
  V  V28  1  0.12736662  0.61971514  0.00021951  1
  V  V29  1  0.12563738  0.12308836  0.49484552  1
  V  V30  1  0.12653102  0.00094471  0.62350235  1
  V  V31  1  0.62581597  0.00351803  0.12481511  1
  V  V32  1  0.11605469  0.87131536  0.75216048  1
  V  V33  1  0.24953789  0.62076578  0.87469974  1
  V  V34  1  0.25070654  0.37512212  0.62470039  1
  V  V35  1  0.87968535  0.87554912  -0.00371308  1
  V  V36  1  0.50061706  0.00503986  0.51008338  1
  V  V37  1  0.38240560  0.23340357  0.62591891  1
  V  V38  1  0.13021892  0.48811992  0.12902805  1
  V  V39  1  0.37942474  0.37378729  0.49865985  1
  V  V40  1  0.37584122  0.75343206  0.12294346  1
  V  V41  1  -0.00419555  0.63521239  0.63190420  1
  V  V42  1  0.50328384  0.37364230  0.37575196  1
  V  V43  1  0.75856877  0.62172060  0.37640572  1
  V  V44  1  0.37082623  0.37226784  0.00624966  1
  V  V45  1  0.28249752  0.22676106  -0.04336400  1
  V  V46  1  0.12373933  0.87405411  0.24837398  1
  V  V47  1  0.62262661  0.74920024  0.87700185  1
  V  V48  1  0.75289826  0.88079299  0.12931237  1
  V  V49  1  0.62619675  0.62765266  0.49999863  1
  V  V50  1  0.49559806  0.62813160  0.62578271  1
  V  V51  1  0.75608848  0.49854803  0.25260707  1
  V  V52  1  0.75400554  0.25918059  0.51100673  1
  V  V53  1  0.49533737  0.87273922  0.88217356  1
  V  V54  1  0.24937315  0.87284436  0.12036340  1
  V  V55  1  0.11143725  0.13249492  -0.00060454  1
  V  V56  1  0.87080110  0.36262412  -0.00607064  1
  V  V57  1  0.36928093  0.25085890  0.12786479  1
  V  V58  1  0.37461305  -0.00120897  0.37213835  1
  V  V59  1  0.75874104  0.62217168  0.87938489  1
  V  V60  1  0.25250530  -0.00323067  0.24305197  1
  V  V61  1  -0.01149730  0.37205575  0.37051566  1
  V  V62  1  0.49946306  0.49928514  0.00219854  1
  V  V63  1  0.87966139  0.12707605  0.74752110  1
  V  V64  1  0.50492469  0.37125801  0.87374768  1
  V  V65  1  0.24982950  0.87725621  0.63035940  1
  V  V66  1  0.74950831  0.75188342  0.00427342  1
  V  V67  1  0.38155778  0.11950153  0.23608781  1
  V  V68  1  -0.01073781  0.49907024  -0.00436749  1
  V  V69  1  -0.00218962  -0.00019037  -0.01298334  1
  V  V70  1  0.75358160  0.10737086  0.37094681  1
  V  V71  1  0.62251082  0.62293358  0.00498964  1
  V  V72  1  0.25483174  0.24641054  0.49321253  1
  V  V73  1  0.37699527  0.62566397  0.25133915  1
  V  V74  1  0.37475275  0.62406398  0.74816966  1
  V  V75  1  0.63151745  0.13621770  -0.00141313  1
  V  V76  1  0.88858312  0.11878614  0.24621424  1
  V  V77  1  0.12594794  0.49560186  0.62544632  1
  V  V78  1  0.63146177  0.88013775  0.25230967  1
  V  V79  1  0.12437952  0.62329106  0.50076869  1
  V  V80  1  -0.00476276  0.37954136  0.86842065  1
  V  V81  1  0.75216791  0.14273597  0.87634618  1
  V  V82  1  0.75085974  0.36450584  0.12206236  1
  V  V83  1  -0.00436996  0.13295969  0.61811118  1
  V  V84  1  0.50377309  0.23927729  0.74727310  1
  Zn  Zn85  1  0.87425882  -0.00337281  0.87325730  1
  Zn  Zn86  1  0.07536493  0.31400788  0.21460676  1
  Zn  Zn87  1  0.87982316  0.64077897  0.75321540  1
  Zn  Zn88  1  0.11525867  0.25060472  0.36911047  1
  Zn  Zn89  1  0.90242758  0.32072213  0.57540649  1
  Zn  Zn90  1  0.87407038  0.74942073  0.12808686  1
  Zn  Zn91  1  0.87993075  0.61822285  0.25886819  1
  Zn  Zn92  1  0.62654276  0.12768909  0.50924902  1
  Zn  Zn93  1  0.24773914  0.12055087  0.37010205  1
  Zn  Zn94  1  0.12188428  0.74579827  0.86775259  1
  Zn  Zn95  1  -0.04087371  0.80404041  0.81687064  1
  Zn  Zn96  1  0.36708998  0.97661501  -0.11642342  1
  Zn  Zn97  1  0.50006829  0.62328478  0.12857814  1
  Zn  Zn98  1  0.62938199  0.74971638  0.37408309  1
  Zn  Zn99  1  0.37368197  0.49770472  0.37365563  1
  Zn  Zn100  1  -0.01379950  0.00800768  0.49152959  1
  Zn  Zn101  1  0.62040492  0.00654850  0.63138239  1
  Zn  Zn102  1  0.62486066  0.49884689  0.12870561  1
  Zn  Zn103  1  0.50365016  0.74836666  0.24883461  1
  Zn  Zn104  1  0.30182260  0.09392851  0.80829059  1
  Zn  Zn105  1  0.90049963  0.24354201  0.13543531  1
  Zn  Zn106  1  0.62622746  0.37422273  0.24756966  1
  Zn  Zn107  1  0.18760400  0.17637475  0.18174975  1
  Zn  Zn108  1  0.18965154  0.19595747  0.67900549  1
  Zn  Zn109  1  0.18741002  0.68207113  0.18655628  1
  Zn  Zn110  1  0.18354287  0.68668415  0.68619307  1
  Zn  Zn111  1  0.69091325  0.18438423  0.19077278  1
  Zn  Zn112  1  0.68400719  0.18302786  0.68741967  1
  Zn  Zn113  1  0.68936650  0.69039408  0.19240251  1
  Zn  Zn114  1  0.68286237  0.68492762  0.69125195  1
  Zn  Zn115  1  0.27441667  0.28553663  0.27967124  1
  Zn  Zn116  1  0.32128997  0.31178298  0.80531004  1
  Zn  Zn117  1  0.31211814  0.81160019  0.31218255  1
  Zn  Zn118  1  0.30863754  0.80811114  0.81185616  1
  Zn  Zn119  1  0.81557893  0.30737781  0.31122173  1
  Zn  Zn120  1  0.83143376  0.33170706  0.76992527  1
  Zn  Zn121  1  0.81097294  0.80758676  0.31629978  1
  Zn  Zn122  1  0.79933839  0.80999500  0.81089482  1
  Zn  Zn123  1  0.18323189  0.43690718  0.43284456  1
  Zn  Zn124  1  0.18876510  0.42842830  0.93930959  1
  Zn  Zn125  1  0.18522463  0.93550054  0.43509732  1
  Zn  Zn126  1  0.18506450  0.94145984  0.93309009  1
  Zn  Zn127  1  0.69167721  0.43799857  0.43855786  1
  Zn  Zn128  1  0.68881981  0.43642482  0.93785042  1
  Zn  Zn129  1  0.68692694  0.93140552  0.44601903  1
  Zn  Zn130  1  0.69087019  0.94235437  0.93584904  1
  Zn  Zn131  1  0.29235560  0.04659607  0.02747324  1
  Zn  Zn132  1  0.31125687  0.05777455  0.56122649  1
  Zn  Zn133  1  0.31391721  0.56149342  0.06595094  1
  Zn  Zn134  1  0.31420708  0.56109482  0.56013274  1
  Zn  Zn135  1  0.81473653  0.06558501  0.06442528  1
  Zn  Zn136  1  0.80644443  0.06698114  0.55957030  1
  Zn  Zn137  1  0.80971560  0.55796324  0.06657191  1
  Zn  Zn138  1  0.81075781  0.56927009  0.57032019  1
  Zn  Zn139  1  0.43695321  0.43714247  0.18948984  1
  Zn  Zn140  1  0.43942797  0.43608379  0.68610689  1
  Zn  Zn141  1  0.44261437  0.93407583  0.18262981  1
  Zn  Zn142  1  0.42698072  0.95236263  0.69965326  1
  Zn  Zn143  1  0.93437848  0.43398777  0.18461139  1
  Zn  Zn144  1  0.93695945  0.45149929  0.69005969  1
  Zn  Zn145  1  0.93298568  0.94045129  0.19032442  1
  Zn  Zn146  1  0.94182773  0.94773829  0.68441194  1
  Zn  Zn147  1  0.06175285  0.05881176  0.31109082  1
  Zn  Zn148  1  0.10700567  0.08328288  0.79003979  1
  Zn  Zn149  1  0.06371185  0.55368399  0.31616679  1
  Zn  Zn150  1  0.06489013  0.55903984  0.81090130  1
  Zn  Zn151  1  0.56542547  0.06079749  0.31675212  1
  Zn  Zn152  1  0.56767671  0.06023612  0.82158875  1
  Zn  Zn153  1  0.56822523  0.56004126  0.31400117  1
  Zn  Zn154  1  0.56258266  0.56141339  0.81545933  1
  Zn  Zn155  1  0.43618627  0.18533372  0.43276906  1
  Zn  Zn156  1  0.45256712  0.18402847  0.93552792  1
  Zn  Zn157  1  0.43675688  0.68760421  0.43751179  1
  Zn  Zn158  1  0.43551228  0.68593151  0.93712062  1
  Zn  Zn159  1  0.92908790  0.18907424  0.42815683  1
  Zn  Zn160  1  0.93866244  0.18834043  0.93084447  1
  Zn  Zn161  1  0.93757681  0.68947004  0.44389046  1
  Zn  Zn162  1  0.93942147  0.68882678  0.94531865  1
  Zn  Zn163  1  0.05889710  0.31469617  0.04987274  1
  Zn  Zn164  1  0.07267078  0.31908232  0.54224707  1
  Zn  Zn165  1  0.06208235  0.81012068  0.05754976  1
  Zn  Zn166  1  0.06264983  0.81485430  0.55972778  1
  Zn  Zn167  1  0.56057160  0.31388244  0.06537158  1
  Zn  Zn168  1  0.56800987  0.30979983  0.56662579  1
  Zn  Zn169  1  0.56376209  0.81338531  0.06700868  1
  Zn  Zn170  1  0.56418335  0.81268602  0.56133916  1
  O  O171  1  0.12873924  0.11335946  0.11092274  1
  O  O172  1  0.11577785  0.12081309  0.61198940  1
  O  O173  1  0.11617975  0.61457165  0.11885873  1
  O  O174  1  0.11841889  0.61501409  0.61996180  1
  O  O175  1  0.64087035  0.11453083  0.11014503  1
  O  O176  1  0.62126384  0.11858570  0.62163405  1
  O  O177  1  0.62375089  0.62843280  0.11386449  1
  O  O178  1  0.61299491  0.61807306  0.62159023  1
  O  O179  1  0.38970496  0.37287821  0.38944420  1
  O  O180  1  0.38565789  0.37818296  0.88110908  1
  O  O181  1  0.38107565  0.88148182  0.38085917  1
  O  O182  1  0.39007335  0.86247394  0.87548294  1
  O  O183  1  0.88800972  0.37503399  0.37324202  1
  O  O184  1  0.88620121  0.36956652  0.87794858  1
  O  O185  1  0.88531155  0.86831608  0.37911698  1
  O  O186  1  0.87131162  0.87426103  0.88925081  1
  O  O187  1  0.26026178  -0.00578470  0.36518394  1
  O  O188  1  0.26477798  0.01747867  0.91386011  1
  O  O189  1  0.25055818  0.50743123  0.36946351  1
  O  O190  1  0.25409488  0.49936852  0.86949581  1
  O  O191  1  0.74194184  0.00964111  0.38501692  1
  O  O192  1  0.75345975  0.00662418  0.86220241  1
  O  O193  1  0.74476221  0.50995885  0.36715120  1
  O  O194  1  0.74034962  0.51378231  0.86927962  1
  O  O195  1  0.24105959  0.50679378  0.13442685  1
  O  O196  1  0.24564364  0.49364288  0.62631500  1
  O  O197  1  0.24112510  0.99197243  0.12136260  1
  O  O198  1  0.23872453  0.98831634  0.61587980  1
  O  O199  1  0.74631509  0.49159928  0.13432763  1
  O  O200  1  0.73591306  0.51531582  0.63922340  1
  O  O201  1  0.74041283  0.98769797  0.11860403  1
  O  O202  1  0.74936243  1.00761064  0.64319334  1
  O  O203  1  0.00486538  0.38989287  0.26722658  1
  O  O204  1  -0.00330557  0.37093358  0.75747193  1
  O  O205  1  0.00344315  0.86587093  0.25448938  1
  O  O206  1  0.01163331  0.87691338  0.74498531  1
  O  O207  1  0.49795383  0.36561593  0.26194368  1
  O  O208  1  0.50865674  0.37494704  0.75747520  1
  O  O209  1  0.50828548  0.87341645  0.25962683  1
  O  O210  1  0.50447287  0.86773089  0.75948088  1
  O  O211  1  0.49250354  0.13311222  0.25965106  1
  O  O212  1  0.51101738  0.14207398  0.76187032  1
  O  O213  1  0.49072596  0.62646491  0.25229531  1
  O  O214  1  0.49662205  0.63180268  0.74507838  1
  O  O215  1  0.98906661  0.12589832  0.25765415  1
  O  O216  1  1.00093515  0.13379309  0.73549822  1
  O  O217  1  1.00221788  0.62804413  0.24524434  1
  O  O218  1  1.00240879  0.61959487  0.73675464  1
  O  O219  1  0.38293415  0.25298977  0.01101282  1
  O  O220  1  0.37473143  0.25402582  0.50668899  1
  O  O221  1  0.36187496  0.73907289  0.00970404  1
  O  O222  1  0.36517631  0.76100744  0.49457018  1
  O  O223  1  0.88411567  0.26110795  0.00396123  1
  O  O224  1  0.86022045  0.24772025  0.50020846  1
  O  O225  1  0.86836622  0.75935868  0.00706641  1
  O  O226  1  0.86335795  0.75783844  0.50177332  1
  O  O227  1  0.13966329  0.23692841  0.49972396  1
  O  O228  1  0.11931170  0.24439293  0.98627895  1
  O  O229  1  0.13349453  0.74504730  0.49369092  1
  O  O230  1  0.13643177  0.73184687  1.00883353  1
  O  O231  1  0.63088267  0.24848208  0.49189432  1
  O  O232  1  0.62079295  0.23439528  1.00639926  1
  O  O233  1  0.63772027  0.74753864  0.49966587  1
  O  O234  1  0.62737646  0.74315487  0.99464351  1
  O  O235  1  0.49286174  0.25617228  0.14229473  1
  O  O236  1  0.49500745  0.25233236  0.63606079  1
  O  O237  1  0.48850021  0.74821450  0.12580048  1
  O  O238  1  0.50653340  0.74027846  0.63517748  1
  O  O239  1  1.01055687  0.26628099  0.13644076  1
  O  O240  1  1.00359600  0.24787424  0.62319388  1
  O  O241  1  1.00385851  0.73838330  0.13384348  1
  O  O242  1  1.01024010  0.73270919  0.61893767  1
  O  O243  1  -0.00237433  0.26564058  0.37893866  1
  O  O244  1  0.00528595  0.25850518  0.86207508  1
  O  O245  1  0.00524953  0.75394670  0.36788273  1
  O  O246  1  0.01535223  0.75683535  0.90008422  1
  O  O247  1  0.50780875  0.25460586  0.37052717  1
  O  O248  1  0.49693786  0.26261445  0.86007452  1
  O  O249  1  0.50212531  0.76264617  0.37696411  1
  O  O250  1  0.50634654  0.75206780  0.86894779  1
  O  O251  1  0.24362616  0.12951356  0.49787758  1
  O  O252  1  0.23725833  0.14930923  1.00766069  1
  O  O253  1  0.24734457  0.63246756  0.49690591  1
  O  O254  1  0.24433487  0.62710232  0.99511450  1
  O  O255  1  0.74855068  0.13537819  0.48642062  1
  O  O256  1  0.74596995  0.12294267  0.98619538  1
  O  O257  1  0.74712969  0.63360456  0.49585886  1
  O  O258  1  0.74148157  0.62896882  0.99796596  1
  O  O259  1  0.26922916  0.35059582  -0.01501894  1
  O  O260  1  0.26145975  0.36726662  0.50440965  1
  O  O261  1  0.23768186  0.85784355  0.00357240  1
  O  O262  1  0.25564920  0.86825374  0.50507731  1
  O  O263  1  0.75878679  0.38217176  0.01078690  1
  O  O264  1  0.74612865  0.35970605  0.49871788  1
  O  O265  1  0.75669190  0.87137506  0.00789090  1
  O  O266  1  0.76054782  0.86153540  0.50116064  1
  O  O267  1  0.13547980  0.50488214  0.24147628  1
  O  O268  1  0.13289457  0.50108945  0.73434926  1
  O  O269  1  0.13186291  0.99556230  0.23969879  1
  O  O270  1  0.11855060  0.98488618  0.73134278  1
  O  O271  1  0.63659076  0.49465643  0.24842702  1
  O  O272  1  0.62853134  0.49685345  0.74546692  1
  O  O273  1  0.61851994  0.98916157  0.24095004  1
  O  O274  1  0.63027550  0.99167225  0.75309776  1
  O  O275  1  0.37474898  0.00140113  0.25234582  1
  O  O276  1  0.37875009  0.01534383  0.77615856  1
  O  O277  1  0.36963411  0.51163853  0.25054360  1
  O  O278  1  0.37000437  0.50418968  0.75465130  1
  O  O279  1  0.87341672  0.01646103  0.24632668  1
  O  O280  1  0.87168539  0.01080808  0.75157989  1
  O  O281  1  0.86173235  0.50180568  0.24489026  1
  O  O282  1  0.85911570  0.51597668  0.75126180  1
  O  O283  1  0.10378157  0.36590629  0.40040372  1
  O  O284  1  0.10844008  0.36587295  0.88410042  1
  O  O285  1  0.11765598  0.86715186  0.36814829  1
  O  O286  1  0.13381084  0.87978744  0.85294400  1
  O  O287  1  0.61539206  0.36569193  0.37568348  1
  O  O288  1  0.61266168  0.38195038  0.86921359  1
  O  O289  1  0.61807251  0.87654013  0.36876189  1
  O  O290  1  0.61791999  0.86293074  0.87000995  1
  O  O291  1  0.37785319  0.13080877  0.13469609  1
  O  O292  1  0.37017236  0.13450015  0.62219279  1
  O  O293  1  0.37530435  0.63406495  0.13492763  1
  O  O294  1  0.38829021  0.61765095  0.63010569  1
  O  O295  1  0.86861208  0.12962615  0.13865125  1
  O  O296  1  0.88844880  0.11916880  0.63057817  1
  O  O297  1  0.89074245  0.62428436  0.12421908  1
  O  O298  1  0.89238056  0.62502052  0.62788021  1
  O  O299  1  0.26939141  0.25186405  0.13657839  1
  O  O300  1  0.26109791  0.25754621  0.61413384  1
  O  O301  1  0.25610250  0.75148487  0.11936191  1
  O  O302  1  0.24360608  0.75786208  0.61175961  1
  O  O303  1  0.74638892  0.26508367  0.12866413  1
  O  O304  1  0.74341355  0.24552350  0.60981383  1
  O  O305  1  0.75081485  0.76093529  0.12125667  1
  O  O306  1  0.74732421  0.73965240  0.61322520  1
  O  O307  1  0.26151764  0.24467392  0.38948801  1
  O  O308  1  0.23265886  0.26289701  0.86325463  1
  O  O309  1  0.24477179  0.74579237  0.38367237  1
  O  O310  1  0.24486474  0.74068165  0.88326553  1
  O  O311  1  0.73859554  0.24718048  0.38086741  1
  O  O312  1  0.75723002  0.23875259  0.86633785  1
  O  O313  1  0.74797948  0.73928868  0.38533719  1
  O  O314  1  0.73721775  0.74198361  0.88411156  1
  O  O315  1  0.00448625  0.11799440  -0.00046799  1
  O  O316  1  0.00618211  0.12862991  0.50085047  1
  O  O317  1  0.00837871  0.61493453  0.00803078  1
  O  O318  1  0.00344227  0.61344339  0.50828347  1
  O  O319  1  0.52410061  0.11316886  -0.01339264  1
  O  O320  1  0.49747206  0.10595372  0.49150704  1
  O  O321  1  0.50732335  0.61876343  -0.00043365  1
  O  O322  1  0.50403430  0.62238814  0.50703024  1
  O  O323  1  0.49793970  0.37836386  0.49626203  1
  O  O324  1  0.49311045  0.37778643  0.99219046  1
  O  O325  1  0.49147164  0.87931240  0.49442649  1
  O  O326  1  0.51002916  0.88142498  0.99150541  1
  O  O327  1  0.98439141  0.38563558  0.50847075  1
  O  O328  1  0.98832560  0.38342728  0.98977193  1
  O  O329  1  0.98540453  0.87049714  0.49352577  1
  O  O330  1  0.98833904  0.88474954  1.01009946  1
  O  O331  1  0.50149424  0.48936575  0.38173463  1
  O  O332  1  0.49285487  0.49308839  0.88125937  1
  O  O333  1  0.49244754  0.98815794  0.38236226  1
  O  O334  1  0.50670028  0.98534330  0.88452669  1
  O  O335  1  1.00337370  0.49178856  0.39581418  1
  O  O336  1  1.00652534  0.49291880  0.88522736  1
  O  O337  1  1.00791379  0.98292983  0.37904661  1
  O  O338  1  0.99851930  1.00063387  0.88729454  1
  O  O339  1  0.01300122  -0.00520477  0.12057158  1
  O  O340  1  0.00974912  0.01256705  0.61379115  1
  O  O341  1  0.00786370  0.50361748  0.11713360  1
  O  O342  1  0.00806832  0.50539393  0.61546710  1
  O  O343  1  0.51631687  -0.00835066  0.11554164  1
  O  O344  1  0.49044840  -0.00514560  0.61138238  1
  O  O345  1  0.50308307  0.50167954  0.11793779  1
  O  O346  1  0.50870156  0.50877235  0.62152779  1
  O  O347  1  0.26345516  0.39442441  0.25747070  1
  O  O348  1  0.26178597  0.38020777  0.73147067  1
  O  O349  1  0.24342852  0.87795565  0.24224576  1
  O  O350  1  0.24471186  0.86891947  0.73542177  1
  O  O351  1  0.75180005  0.38032026  0.23891893  1
  O  O352  1  0.73400743  0.39166917  0.76535655  1
  O  O353  1  0.74278144  0.86946322  0.24282520  1
  O  O354  1  0.73517891  0.88429242  0.75702788  1
  O  O355  1  0.26373171  0.11304048  0.25012750  1
  O  O356  1  0.21166536  0.11533810  0.74981856  1
  O  O357  1  0.25863097  0.61966950  0.25623391  1
  O  O358  1  0.25407717  0.61863364  0.75372293  1
  O  O359  1  0.74178802  0.12033551  0.26890512  1
  O  O360  1  0.75890804  0.12204694  0.75901528  1
  O  O361  1  0.75270078  0.61907951  0.25851922  1
  O  O362  1  0.74600889  0.62300971  0.76454429  1
  O  O363  1  0.37417084  0.10894455  0.36667169  1
  O  O364  1  0.34821034  0.16888974  0.88960030  1
  O  O365  1  0.36948712  0.62454625  0.36720079  1
  O  O366  1  0.36878066  0.61672697  0.86916612  1
  O  O367  1  0.86030858  0.12202194  0.36595762  1
  O  O368  1  0.86727864  0.12204400  0.86686773  1
  O  O369  1  0.86368295  0.62814271  0.37811451  1
  O  O370  1  0.86056948  0.62999445  0.88336246  1
  O  O371  1  0.12375082  0.38723752  0.12093317  1
  O  O372  1  0.14082608  0.38225272  0.61345714  1
  O  O373  1  0.12938622  0.88067636  0.12872873  1
  O  O374  1  0.13034523  0.88148010  0.62733750  1
  O  O375  1  0.63791187  0.37697391  0.12371334  1
  O  O376  1  0.61925459  0.38957208  0.63598392  1
  O  O377  1  0.63401153  0.88109085  0.13258766  1
  O  O378  1  0.61570708  0.87964389  0.64024308  1
  O  O379  1  0.15912859  0.25374412  0.26120341  1
  O  O380  1  0.11133064  0.25082475  0.75315690  1
  O  O381  1  0.11708803  0.75249751  0.25318605  1
  O  O382  1  0.12624954  0.76510247  0.74760631  1
  O  O383  1  0.61602714  0.24987943  0.25895398  1
  O  O384  1  0.61355708  0.26452033  0.74088474  1
  O  O385  1  0.62208644  0.76388017  0.25242844  1
  O  O386  1  0.61535893  0.75527266  0.75848579  1
  O  O387  1  0.38046109  0.23837950  0.24757423  1
  O  O388  1  0.39261305  0.25345355  0.73851757  1
  O  O389  1  0.37452615  0.74111895  0.24260825  1
  O  O390  1  0.38697310  0.74188553  0.75443804  1
  O  O391  1  0.86656413  0.22942710  0.24954924  1
  O  O392  1  0.89110947  0.23383178  0.75185730  1
  O  O393  1  0.88898093  0.74501375  0.24852978  1
  O  O394  1  0.87829171  0.75277343  0.75973819  1
  O  O395  1  0.38329601  0.49054563  0.49826045  1
  O  O396  1  0.37701715  0.49028077  0.99643694  1
  O  O397  1  0.38105614  0.99029101  0.49097622  1
  O  O398  1  0.39916819  1.00954406  1.00237456  1
  O  O399  1  0.88288164  0.50507029  0.50592265  1
  O  O400  1  0.88596892  0.49218368  1.00479682  1
  O  O401  1  0.86995430  0.98224768  0.50584603  1
  O  O402  1  0.88183099  0.99286950  1.00068460  1
  O  O403  1  0.11541515  0.00812230  0.00357755  1
  O  O404  1  0.12560649  0.00906107  0.50450785  1
  O  O405  1  0.12325810  0.50549170  0.00739194  1
  O  O406  1  0.12317215  0.50569231  0.51190024  1
  O  O407  1  0.62198802  0.00429157  0.00699434  1
  O  O408  1  0.60685307  -0.00787811  0.50517119  1
  O  O409  1  0.61879087  0.51051158  -0.00010576  1
  O  O410  1  0.62273720  0.50587606  0.50956707  1
  O  O411  1  0.38181145  0.36742764  0.11393492  1
  O  O412  1  0.37198011  0.37024202  0.61263841  1
  O  O413  1  0.36689899  0.86190549  0.13028462  1
  O  O414  1  0.36571337  0.88433210  0.61522278  1
  O  O415  1  0.86395309  0.37047509  0.11625910  1
  O  O416  1  0.86297945  0.37219974  0.66296312  1
  O  O417  1  0.86617365  0.87484287  0.11953538  1
  O  O418  1  0.88317201  0.87230868  0.61673908  1
  O  O419  1  0.12727721  0.12566136  0.38338519  1
  O  O420  1  0.11717609  0.14052535  0.88752655  1
  O  O421  1  0.12947068  0.62933923  0.38118950  1
  O  O422  1  0.13197317  0.62032166  0.88496384  1
  O  O423  1  0.63108549  0.13151370  0.38190369  1
  O  O424  1  0.64274554  0.12487914  0.88463535  1
  O  O425  1  0.63360100  0.62719666  0.38415321  1
  O  O426  1  0.62761575  0.63378818  0.88531855  1
