# generated using pymatgen
data_V85Zn86O256
_symmetry_space_group_name_H-M   'P 1'
_cell_length_a   17.00213459
_cell_length_b   16.98987011
_cell_length_c   16.97394719
_cell_angle_alpha   90.01878480
_cell_angle_beta   89.95182534
_cell_angle_gamma   89.89363204
_symmetry_Int_Tables_number   1
_chemical_formula_structural   V85Zn86O256
_chemical_formula_sum   'V85 Zn86 O256'
_cell_volume   4903.15282148
_cell_formula_units_Z   1
loop_
 _symmetry_equiv_pos_site_id
 _symmetry_equiv_pos_as_xyz
  1  'x, y, z'
loop_
 _atom_site_type_symbol
 _atom_site_label
 _atom_site_symmetry_multiplicity
 _atom_site_fract_x
 _atom_site_fract_y
 _atom_site_fract_z
 _atom_site_occupancy
  V  V0  1  0.50345232  0.74780752  0.25126306  1
  V  V1  1  0.13129299  0.62639051  0.48198345  1
  V  V2  1  0.00071953  0.62578747  0.62095039  1
  V  V3  1  0.12303125  0.25083507  0.87431341  1
  V  V4  1  0.37514185  0.87460602  -0.00176121  1
  V  V5  1  0.25193897  0.49939726  0.75121163  1
  V  V6  1  0.12510461  0.49723441  0.12724283  1
  V  V7  1  0.37870059  0.49625322  0.88112581  1
  V  V8  1  0.24585061  -0.00136827  0.74434032  1
  V  V9  1  0.12367281  -0.00141582  0.61628453  1
  V  V10  1  0.24685275  0.85958898  0.63158916  1
  V  V11  1  0.62708531  0.87457990  0.74731058  1
  V  V12  1  0.24813721  0.12345616  0.87422072  1
  V  V13  1  0.49903080  -0.00142259  0.00046785  1
  V  V14  1  0.62269794  0.12569849  0.50016767  1
  V  V15  1  0.87510049  0.62467963  0.74633260  1
  V  V16  1  0.75124357  0.12277175  0.37133954  1
  V  V17  1  0.37702017  0.24266030  0.63084673  1
  V  V18  1  0.37608531  0.24326136  0.12883634  1
  V  V19  1  0.87438618  0.00159412  0.87609804  1
  V  V20  1  0.49670245  -0.00127472  0.50076781  1
  V  V21  1  0.75472604  0.75441781  -0.00076881  1
  V  V22  1  0.50315089  0.24819213  0.25065510  1
  V  V23  1  0.12409179  0.37599860  0.75077124  1
  V  V24  1  0.87087151  0.62188068  0.24945273  1
  V  V25  1  0.00241724  0.00569746  0.00342476  1
  V  V26  1  0.25392469  0.37479354  0.62643531  1
  V  V27  1  0.74313276  0.62745128  0.37568022  1
  V  V28  1  0.74672989  0.24789073  0.00044889  1
  V  V29  1  0.62764193  0.86871537  0.25551162  1
  V  V30  1  0.49873173  0.75092943  0.74590099  1
  V  V31  1  0.87612933  -0.00618097  0.39470540  1
  V  V32  1  0.24774455  0.24908782  0.00020045  1
  V  V33  1  0.37712150  0.62645535  0.74537623  1
  V  V34  1  -0.06142205  0.18919530  0.20725173  1
  V  V35  1  0.87429235  0.24962382  0.62261597  1
  V  V36  1  0.62503973  0.63256093  0.00298797  1
  V  V37  1  0.87242502  0.50039782  0.37351773  1
  V  V38  1  0.62514821  0.49463764  0.62765015  1
  V  V39  1  0.62074741  0.38730097  0.24660354  1
  V  V40  1  0.00012750  0.12105132  0.61315314  1
  V  V41  1  0.75740173  -0.00243115  0.25191498  1
  V  V42  1  0.12480607  0.75292278  0.86897811  1
  V  V43  1  0.61950585  0.25668264  0.37297788  1
  V  V44  1  0.50522741  0.61930661  0.11828273  1
  V  V45  1  0.37325801  -0.00109291  0.87434955  1
  V  V46  1  0.87631544  0.12653760  0.74883727  1
  V  V47  1  0.00457591  0.87715621  0.86930663  1
  V  V48  1  0.74548265  0.49424149  0.74889867  1
  V  V49  1  0.75600224  0.87548285  0.12557198  1
  V  V50  1  0.87657549  0.37583467  0.49728668  1
  V  V51  1  0.25172816  0.74838694  0.47690393  1
  V  V52  1  0.51292273  0.26042107  0.76411840  1
  V  V53  1  0.50027963  0.62260927  0.62158331  1
  V  V54  1  0.25044103  0.62457916  0.87581035  1
  V  V55  1  0.00087363  0.75182679  0.74767181  1
  V  V56  1  0.87523864  0.36717505  0.00789527  1
  V  V57  1  0.24731577  0.37427168  0.13319447  1
  V  V58  1  0.74885356  0.25160960  0.49867774  1
  V  V59  1  0.50510504  0.12332562  0.12834330  1
  V  V60  1  0.87609580  0.49977225  0.87418709  1
  V  V61  1  0.62487966  0.12547149  -0.00628365  1
  V  V62  1  0.00253581  0.49713767  0.49366712  1
  V  V63  1  0.38024684  0.86039527  0.51122622  1
  V  V64  1  0.11008488  0.36278279  0.26385194  1
  V  V65  1  0.36860681  0.62500798  0.25152200  1
  V  V66  1  0.74823123  0.75950323  0.49943243  1
  V  V67  1  0.24042683  0.24563176  0.49961016  1
  V  V68  1  0.12599294  0.50081402  0.62245067  1
  V  V69  1  -0.00405750  0.87429686  0.39217661  1
  V  V70  1  0.53195288  0.46987314  -0.00948718  1
  V  V71  1  0.11345164  0.86923711  0.24871843  1
  V  V72  1  -0.00093988  0.49775330  -0.00042850  1
  V  V73  1  0.25017036  0.74992452  -0.00102606  1
  V  V74  1  0.50465930  0.86866804  0.37926899  1
  V  V75  1  0.38070734  0.37334078  0.49014513  1
  V  V76  1  0.74683061  0.38784029  0.13068035  1
  V  V77  1  0.75119127  -0.00467238  0.74678068  1
  V  V78  1  0.62787473  -0.00178693  0.62518778  1
  V  V79  1  0.24782088  0.87612875  0.12854983  1
  V  V80  1  0.75027572  0.62840262  0.87358575  1
  V  V81  1  0.37178861  0.37664077  0.00062927  1
  V  V82  1  0.87218131  0.76306812  0.61783729  1
  V  V83  1  -0.00123042  0.62818480  0.12511805  1
  V  V84  1  0.12684371  0.00461811  0.12833311  1
  Zn  Zn85  1  0.37248582  0.00845753  0.35662106  1
  Zn  Zn86  1  -0.00149536  0.74603814  0.26091431  1
  Zn  Zn87  1  0.62687087  0.75446745  0.87205858  1
  Zn  Zn88  1  0.87688183  0.87755012  0.00130631  1
  Zn  Zn89  1  0.11952164  0.12807239  0.00425467  1
  Zn  Zn90  1  0.50139400  0.12575580  0.63030224  1
  Zn  Zn91  1  0.87781341  0.75240097  0.12753499  1
  Zn  Zn92  1  0.25655045  0.11770162  0.36070797  1
  Zn  Zn93  1  0.24468442  0.50575621  0.26074518  1
  Zn  Zn94  1  0.62683558  -0.00149179  0.12730116  1
  Zn  Zn95  1  -0.00202646  0.37323167  0.87355040  1
  Zn  Zn96  1  0.74588403  0.37139828  0.62907949  1
  Zn  Zn97  1  0.62245843  0.62545290  0.49684059  1
  Zn  Zn98  1  0.37825039  0.75019958  0.12258189  1
  Zn  Zn99  1  0.11750789  0.13203717  0.49096462  1
  Zn  Zn100  1  -0.00058068  0.25192235  0.74841062  1
  Zn  Zn101  1  0.37671503  0.49661622  0.37224077  1
  Zn  Zn102  1  0.37893156  0.12588045  0.75260448  1
  Zn  Zn103  1  0.50046358  0.87519114  0.87428355  1
  Zn  Zn104  1  0.74480934  0.13301926  0.87182902  1
  Zn  Zn105  1  0.12487850  0.62472531  0.00065708  1
  Zn  Zn106  1  0.50683824  0.48872796  0.49334319  1
  Zn  Zn107  1  0.18579849  0.18653897  0.18739691  1
  Zn  Zn108  1  0.18610045  0.18484565  0.68626367  1
  Zn  Zn109  1  0.18354020  0.69208549  0.18801469  1
  Zn  Zn110  1  0.18315808  0.67854214  0.68890097  1
  Zn  Zn111  1  0.76943814  0.18957631  0.18580827  1
  Zn  Zn112  1  0.68657205  0.18684950  0.68853713  1
  Zn  Zn113  1  0.68908473  0.68779024  0.18735613  1
  Zn  Zn114  1  0.68778607  0.68559487  0.68342944  1
  Zn  Zn115  1  0.29322607  0.27594961  0.29674560  1
  Zn  Zn116  1  0.31551107  0.31170922  0.81271108  1
  Zn  Zn117  1  0.32421474  0.83766721  0.30436687  1
  Zn  Zn118  1  0.31405118  0.81220631  0.81074367  1
  Zn  Zn119  1  0.80938889  0.31830580  0.31481283  1
  Zn  Zn120  1  0.81191983  0.31305683  0.81762990  1
  Zn  Zn121  1  0.81816337  0.80966097  0.31458470  1
  Zn  Zn122  1  0.81668586  0.81422168  0.80998534  1
  Zn  Zn123  1  0.19574110  0.43642223  0.43303457  1
  Zn  Zn124  1  0.18879500  0.43667339  0.93890067  1
  Zn  Zn125  1  0.15313150  0.98847634  0.39586436  1
  Zn  Zn126  1  0.18656262  0.93750469  0.93798447  1
  Zn  Zn127  1  0.68810382  0.44027126  0.43815746  1
  Zn  Zn128  1  0.69739807  0.44228934  0.94279392  1
  Zn  Zn129  1  0.68521300  0.93671039  0.43808245  1
  Zn  Zn130  1  0.68523097  0.94102688  0.93579179  1
  Zn  Zn131  1  0.31126865  0.06248278  0.06183391  1
  Zn  Zn132  1  0.28664830  0.03490432  0.52335858  1
  Zn  Zn133  1  0.31352332  0.56447532  0.06811333  1
  Zn  Zn134  1  0.31206441  0.56276244  0.55688023  1
  Zn  Zn135  1  0.81841042  0.06535570  0.06788073  1
  Zn  Zn136  1  0.80845033  0.06479120  0.56307490  1
  Zn  Zn137  1  0.81166582  0.56292212  0.06101705  1
  Zn  Zn138  1  0.81140676  0.56603012  0.56207476  1
  Zn  Zn139  1  0.44257944  0.44051996  0.17835807  1
  Zn  Zn140  1  0.44159272  0.43538934  0.68886325  1
  Zn  Zn141  1  0.43473217  0.93823252  0.18726632  1
  Zn  Zn142  1  0.43517932  0.93878790  0.68642181  1
  Zn  Zn143  1  0.93488823  0.43661186  0.18807344  1
  Zn  Zn144  1  0.93710731  0.43759768  0.68441169  1
  Zn  Zn145  1  0.97017761  0.99377758  0.22488178  1
  Zn  Zn146  1  0.94080210  0.93925920  0.68546035  1
  Zn  Zn147  1  0.06988568  0.16346981  0.31344217  1
  Zn  Zn148  1  0.06331063  0.06217697  0.80685677  1
  Zn  Zn149  1  0.05835950  0.55538017  0.30800558  1
  Zn  Zn150  1  0.06301206  0.56481216  0.81196968  1
  Zn  Zn151  1  0.56531426  0.06064594  0.31329177  1
  Zn  Zn152  1  0.55754555  0.06607579  0.81185622  1
  Zn  Zn153  1  0.55456276  0.56277247  0.31510786  1
  Zn  Zn154  1  0.56467413  0.56366808  0.81628078  1
  Zn  Zn155  1  0.43337120  0.18674719  0.44028634  1
  Zn  Zn156  1  0.43740023  0.18789685  0.93913530  1
  Zn  Zn157  1  0.43604632  0.68615975  0.43445777  1
  Zn  Zn158  1  0.43858143  0.68920494  0.93139384  1
  Zn  Zn159  1  0.93396334  0.19193890  0.42273751  1
  Zn  Zn160  1  0.93649926  0.18777613  0.93865633  1
  Zn  Zn161  1  0.93699684  0.68718337  0.43819698  1
  Zn  Zn162  1  0.93733873  0.68691719  0.93681413  1
  Zn  Zn163  1  0.05714272  0.30640973  0.07167928  1
  Zn  Zn164  1  0.05861908  0.31379640  0.56584535  1
  Zn  Zn165  1  0.06239045  0.81637736  0.05636095  1
  Zn  Zn166  1  0.07142441  0.80798930  0.56095590  1
  Zn  Zn167  1  0.56947490  0.31011292  0.06023293  1
  Zn  Zn168  1  0.56074029  0.30977471  0.56879066  1
  Zn  Zn169  1  0.56545671  0.81333958  0.06649877  1
  Zn  Zn170  1  0.56943404  0.80862395  0.56717396  1
  O  O171  1  0.13566605  0.10856076  0.12229168  1
  O  O172  1  0.11374153  0.11890991  0.62502911  1
  O  O173  1  0.11662563  0.61473871  0.12505122  1
  O  O174  1  0.12003078  0.61821073  0.61457172  1
  O  O175  1  0.61082239  0.11858789  0.11326777  1
  O  O176  1  0.62578517  0.11425794  0.61783216  1
  O  O177  1  0.61674932  0.63370665  0.11623482  1
  O  O178  1  0.61556680  0.61435556  0.62578026  1
  O  O179  1  0.37213051  0.36401869  0.39214046  1
  O  O180  1  0.36600842  0.38523573  0.88726676  1
  O  O181  1  0.39312156  0.86904681  0.39939839  1
  O  O182  1  0.37491581  0.88149522  0.88077383  1
  O  O183  1  0.86624173  0.38741209  0.38595722  1
  O  O184  1  0.87785847  0.38206227  0.88760430  1
  O  O185  1  0.88296746  0.88303443  0.37758364  1
  O  O186  1  0.88372302  0.88734147  0.87485257  1
  O  O187  1  0.26456096  0.00592778  0.41181078  1
  O  O188  1  0.25090567  0.00495158  0.86676063  1
  O  O189  1  0.26433289  0.49738001  0.37017808  1
  O  O190  1  0.25667200  0.50504287  0.87095379  1
  O  O191  1  0.75420427  0.00238547  0.37252601  1
  O  O192  1  0.76118935  0.00246285  0.86705719  1
  O  O193  1  0.76205829  0.51607019  0.38244282  1
  O  O194  1  0.75551075  0.50636567  0.86789581  1
  O  O195  1  0.24013790  0.49151651  0.12714995  1
  O  O196  1  0.24625398  0.49298566  0.63021795  1
  O  O197  1  0.23802043  0.98642223  0.11210974  1
  O  O198  1  0.24361010  0.99230893  0.62811514  1
  O  O199  1  0.74688099  0.48729189  0.11754602  1
  O  O200  1  0.74301355  0.50258223  0.63325341  1
  O  O201  1  0.75041627  0.99281602  0.13485528  1
  O  O202  1  0.74048380  1.00461409  0.63549567  1
  O  O203  1  0.01258504  0.38101364  0.24670052  1
  O  O204  1  0.00731168  0.37403642  0.75137339  1
  O  O205  1  0.00807333  0.87972925  0.24471665  1
  O  O206  1  -0.00435301  0.86933434  0.76206460  1
  O  O207  1  0.51472401  0.36721666  0.23583593  1
  O  O208  1  0.49830367  0.36059090  0.75053811  1
  O  O209  1  0.50992195  0.86650554  0.25771536  1
  O  O210  1  0.50664096  0.86713668  0.74766834  1
  O  O211  1  0.50882224  0.13415166  0.24038027  1
  O  O212  1  0.49544192  0.13535413  0.74759418  1
  O  O213  1  0.49727821  0.63105264  0.23788677  1
  O  O214  1  0.49493853  0.62927303  0.74462942  1
  O  O215  1  0.99804333  0.10518900  0.23455128  1
  O  O216  1  0.98737467  0.12558540  0.74166408  1
  O  O217  1  0.99244296  0.62496887  0.24061139  1
  O  O218  1  0.99531411  0.63086979  0.74250826  1
  O  O219  1  0.36789099  0.25753981  0.00866290  1
  O  O220  1  0.36665296  0.25925187  0.51312871  1
  O  O221  1  0.36356843  0.75474982  -0.00519357  1
  O  O222  1  0.36342252  0.74888566  0.50082749  1
  O  O223  1  0.87107394  0.26109765  -0.00151335  1
  O  O224  1  0.87102940  0.25834003  0.49948886  1
  O  O225  1  0.86558097  0.75335196  0.00146155  1
  O  O226  1  0.86877832  0.74670917  0.51222150  1
  O  O227  1  0.13575812  0.25251765  0.50913514  1
  O  O228  1  0.12751917  0.24930334  0.99282312  1
  O  O229  1  0.14273524  0.74102063  0.49858336  1
  O  O230  1  0.13349663  0.74827529  0.98826790  1
  O  O231  1  0.62792138  0.24799318  0.49283028  1
  O  O232  1  0.63210884  0.23418170  1.00284547  1
  O  O233  1  0.64414212  0.74212270  0.51118152  1
  O  O234  1  0.63800862  0.74900560  0.99667092  1
  O  O235  1  0.49531972  0.24112198  0.12901745  1
  O  O236  1  0.49090144  0.24784979  0.63545600  1
  O  O237  1  0.50037635  0.74411887  0.13477416  1
  O  O238  1  0.50590989  0.73874756  0.63781769  1
  O  O239  1  0.99293773  0.24275207  0.14129844  1
  O  O240  1  0.99192844  0.24038802  0.62844536  1
  O  O241  1  0.99956970  0.73496526  0.11550412  1
  O  O242  1  0.99292926  0.74682122  0.62589312  1
  O  O243  1  -0.02535512  0.22261829  0.32373665  1
  O  O244  1  0.01157771  0.25051632  0.87327172  1
  O  O245  1  -0.00887413  0.76940550  0.37594960  1
  O  O246  1  0.00540127  0.75660595  0.87096580  1
  O  O247  1  0.51149893  0.24405127  0.36755849  1
  O  O248  1  0.49462795  0.24760238  0.86355274  1
  O  O249  1  0.49975194  0.75579998  0.36394428  1
  O  O250  1  0.50485559  0.75223919  0.85917721  1
  O  O251  1  0.24623488  0.14386400  0.51488520  1
  O  O252  1  0.24571298  0.12976508  0.98937735  1
  O  O253  1  0.24715481  0.63866135  0.49981167  1
  O  O254  1  0.24983587  0.63436003  0.99574020  1
  O  O255  1  0.74175731  0.13099656  0.49215468  1
  O  O256  1  0.74384202  0.13081655  1.00383279  1
  O  O257  1  0.75198132  0.63233032  0.48768469  1
  O  O258  1  0.74666893  0.63666863  0.99593675  1
  O  O259  1  0.25418810  0.36966337  0.01065187  1
  O  O260  1  0.25624599  0.36692710  0.51253176  1
  O  O261  1  0.25323723  0.86611002  0.00385414  1
  O  O262  1  0.26093777  0.85394853  0.51564946  1
  O  O263  1  0.75843174  0.37043988  0.00826719  1
  O  O264  1  0.75994414  0.37012532  0.50205693  1
  O  O265  1  0.74927808  0.87038797  0.00641565  1
  O  O266  1  0.74780201  0.85854408  0.49341449  1
  O  O267  1  0.12605572  0.49091459  0.23918819  1
  O  O268  1  0.13148245  0.49732586  0.74415559  1
  O  O269  1  0.12555296  0.98613159  0.22958583  1
  O  O270  1  0.13874932  1.00354483  0.73973658  1
  O  O271  1  0.61784317  0.48560768  0.25541366  1
  O  O272  1  0.63558140  0.50606805  0.74442062  1
  O  O273  1  0.63502256  0.98548535  0.25210766  1
  O  O274  1  0.63173963  0.99577660  0.74434975  1
  O  O275  1  0.36041959  -0.05593050  0.26715373  1
  O  O276  1  0.36425262  0.00305133  0.75450554  1
  O  O277  1  0.37941551  0.51711135  0.24098976  1
  O  O278  1  0.37358307  0.50475787  0.76259206  1
  O  O279  1  0.85938731  -0.00644810  0.26291893  1
  O  O280  1  0.86930395  0.00622734  0.75450325  1
  O  O281  1  0.88053933  0.51018811  0.26099830  1
  O  O282  1  0.86919343  0.50587445  0.75340922  1
  O  O283  1  0.12438588  0.38062793  0.36135363  1
  O  O284  1  0.12579141  0.36615413  0.87076292  1
  O  O285  1  0.10666116  0.89034194  0.35736292  1
  O  O286  1  0.11629023  0.86478407  0.87826992  1
  O  O287  1  0.63715071  0.36677121  0.36118244  1
  O  O288  1  0.59631380  0.39283053  0.96104068  1
  O  O289  1  0.61549609  0.87497543  0.36876267  1
  O  O290  1  0.62220834  0.87677811  0.86023130  1
  O  O291  1  0.38453217  0.13634248  0.11688240  1
  O  O292  1  0.37394227  0.14015877  0.62542988  1
  O  O293  1  0.38865035  0.62986788  0.12785370  1
  O  O294  1  0.38376948  0.61235446  0.63884903  1
  O  O295  1  0.87111897  0.13126326  0.14561570  1
  O  O296  1  0.88029364  0.12787561  0.63041636  1
  O  O297  1  0.88158064  0.62111860  0.13326237  1
  O  O298  1  0.88339977  0.63105432  0.62828761  1
  O  O299  1  0.25680490  0.25656602  0.11865042  1
  O  O300  1  0.25578744  0.25967373  0.62514439  1
  O  O301  1  0.24706796  0.75681783  0.11126966  1
  O  O302  1  0.24607154  0.75990655  0.63828810  1
  O  O303  1  0.74730831  0.26696036  0.10788366  1
  O  O304  1  0.75609649  0.24931135  0.61711846  1
  O  O305  1  0.75189737  0.75691299  0.11545107  1
  O  O306  1  0.76460851  0.74454336  0.61551684  1
  O  O307  1  0.25065262  0.25491778  0.40079420  1
  O  O308  1  0.24231987  0.24333112  0.87900748  1
  O  O309  1  0.25701270  0.76454404  0.38058581  1
  O  O310  1  0.24296639  0.74663715  0.87883729  1
  O  O311  1  0.74092318  0.24113407  0.37881368  1
  O  O312  1  0.75382218  0.24938918  0.89201837  1
  O  O313  1  0.76044782  0.73849386  0.38867169  1
  O  O314  1  0.75318627  0.74782611  0.88235319  1
  O  O315  1  0.00166532  0.11111733  -0.00602251  1
  O  O316  1  -0.00348838  0.13405591  0.50982803  1
  O  O317  1  -0.00111806  0.61322800  0.00640138  1
  O  O318  1  0.00974453  0.61833349  0.50165928  1
  O  O319  1  0.50528979  0.11911872  0.00572348  1
  O  O320  1  0.50627657  0.11408567  0.50327502  1
  O  O321  1  0.51157680  0.64042100  0.00640146  1
  O  O322  1  0.49884820  0.63054319  0.51461672  1
  O  O323  1  0.48389285  0.37053816  0.50762776  1
  O  O324  1  0.47327488  0.37491777  1.02361986  1
  O  O325  1  0.50154607  0.87456553  0.49990213  1
  O  O326  1  0.49411308  0.87940696  1.00025613  1
  O  O327  1  0.98994090  0.38581158  0.50459173  1
  O  O328  1  0.99251615  0.38341187  1.00539344  1
  O  O329  1  1.01029988  0.87665214  0.48953726  1
  O  O330  1  0.99685152  0.88464942  0.98713602  1
  O  O331  1  0.48724970  0.51034796  0.38488993  1
  O  O332  1  0.49247797  0.50643510  0.89264702  1
  O  O333  1  0.50324956  0.98841304  0.38673871  1
  O  O334  1  0.49024608  0.99872350  0.88157895  1
  O  O335  1  0.98796995  0.50572757  0.38663086  1
  O  O336  1  0.99707846  0.49960307  0.88519966  1
  O  O337  1  0.97892327  0.99045696  0.37488114  1
  O  O338  1  0.99549080  0.99463649  0.87753154  1
  O  O339  1  0.01616678  -0.00745713  0.11298989  1
  O  O340  1  0.01034155  0.00929535  0.63179661  1
  O  O341  1  0.00571796  0.50732189  0.11783585  1
  O  O342  1  0.00533637  0.50538733  0.61323223  1
  O  O343  1  0.49614182  0.00763681  0.12126222  1
  O  O344  1  0.51198360  0.00073705  0.62016394  1
  O  O345  1  0.50181180  0.51018594  0.09912238  1
  O  O346  1  0.50831408  0.50705740  0.62500084  1
  O  O347  1  0.23822577  0.36922517  0.23978716  1
  O  O348  1  0.24534066  0.38059494  0.74428687  1
  O  O349  1  0.22970190  0.86178165  0.23407240  1
  O  O350  1  0.25712648  0.88392229  0.73824476  1
  O  O351  1  0.74052591  0.37497042  0.23667337  1
  O  O352  1  0.75745689  0.38961904  0.74971502  1
  O  O353  1  0.74549508  0.87568613  0.24705901  1
  O  O354  1  0.74334908  0.88686169  0.75435623  1
  O  O355  1  0.26490358  0.16871801  0.26072976  1
  O  O356  1  0.25234290  0.11770365  0.75885696  1
  O  O357  1  0.26586427  0.62777957  0.23489577  1
  O  O358  1  0.25891536  0.61856824  0.75474098  1
  O  O359  1  0.73756350  0.11093991  0.26254980  1
  O  O360  1  0.76002723  0.11581270  0.75135774  1
  O  O361  1  0.75918635  0.63384275  0.26346278  1
  O  O362  1  0.75608946  0.61825245  0.75418982  1
  O  O363  1  0.37299790  0.11917867  0.37840681  1
  O  O364  1  0.36060788  0.11852639  0.87845349  1
  O  O365  1  0.37737343  0.63069622  0.35243854  1
  O  O366  1  0.37088232  0.61510633  0.86804012  1
  O  O367  1  0.85760830  0.10823763  0.38349557  1
  O  O368  1  0.87594424  0.11604440  0.86570170  1
  O  O369  1  0.87059363  0.61934232  0.36776061  1
  O  O370  1  0.87062607  0.61974134  0.86806534  1
  O  O371  1  0.12981931  0.38026204  0.12951987  1
  O  O372  1  0.13394174  0.38100938  0.63023069  1
  O  O373  1  0.12913822  0.87971700  0.12692103  1
  O  O374  1  0.14093196  0.88053502  0.62051059  1
  O  O375  1  0.63539080  0.37416067  0.13512803  1
  O  O376  1  0.62753328  0.38954354  0.62010179  1
  O  O377  1  0.63650047  0.87648526  0.13638766  1
  O  O378  1  0.62418183  0.88608688  0.63649928  1
  O  O379  1  0.12038007  0.25979848  0.25160294  1
  O  O380  1  0.12572548  0.25617305  0.75943263  1
  O  O381  1  0.11330115  0.76348906  0.24440954  1
  O  O382  1  0.11793199  0.74272496  0.76183213  1
  O  O383  1  0.61538082  0.26097488  0.25947353  1
  O  O384  1  0.61310793  0.24654277  0.74908138  1
  O  O385  1  0.61834103  0.75933434  0.24705123  1
  O  O386  1  0.62143267  0.75965434  0.74673290  1
  O  O387  1  0.39349136  0.26451359  0.23598844  1
  O  O388  1  0.38008480  0.24885054  0.74378909  1
  O  O389  1  0.38658918  0.74366458  0.24503831  1
  O  O390  1  0.38386239  0.73589454  0.75676590  1
  O  O391  1  0.85440256  0.24641219  0.24236760  1
  O  O392  1  0.87170897  0.24018885  0.74515164  1
  O  O393  1  0.88046848  0.73718381  0.24666744  1
  O  O394  1  0.87976463  0.74514229  0.73800754  1
  O  O395  1  0.37271211  0.48028634  0.50472419  1
  O  O396  1  0.36641012  0.49261523  0.99209643  1
  O  O397  1  0.39344869  0.98395170  0.51259369  1
  O  O398  1  0.37864300  0.99388643  0.99458429  1
  O  O399  1  0.88271892  0.49565668  0.49520352  1
  O  O400  1  0.88220189  0.49326802  0.99510709  1
  O  O401  1  0.86694591  0.99504524  0.49390748  1
  O  O402  1  0.88225162  1.00175143  0.99152766  1
  O  O403  1  0.11782429  0.00053852  0.00561619  1
  O  O404  1  0.12863328  0.00735695  0.51472161  1
  O  O405  1  0.11671029  0.49855396  0.00943815  1
  O  O406  1  0.12053574  0.50478085  0.50216092  1
  O  O407  1  0.61727306  0.00456366  0.00508155  1
  O  O408  1  0.61862455  0.00195616  0.50795225  1
  O  O409  1  0.63039933  0.52836684  -0.00479862  1
  O  O410  1  0.62414935  0.50574195  0.50964118  1
  O  O411  1  0.36113682  0.36980951  0.12212408  1
  O  O412  1  0.36398093  0.36867461  0.62603373  1
  O  O413  1  0.36368610  0.87085178  0.11477375  1
  O  O414  1  0.36414516  0.87340440  0.61957625  1
  O  O415  1  0.86240292  0.38260971  0.11758779  1
  O  O416  1  0.87236073  0.36925903  0.61395150  1
  O  O417  1  0.85984706  0.87292482  0.12298113  1
  O  O418  1  0.87908379  0.86172056  0.62782682  1
  O  O419  1  0.13770716  0.10542372  0.37968619  1
  O  O420  1  0.13319887  0.13332944  0.87277284  1
  O  O421  1  0.12125240  0.61859165  0.38308108  1
  O  O422  1  0.13129196  0.63342559  0.87788222  1
  O  O423  1  0.63184922  0.13186846  0.38153638  1
  O  O424  1  0.62925706  0.11243486  0.88905775  1
  O  O425  1  0.64105294  0.62191710  0.37230565  1
  O  O426  1  0.63324874  0.63362610  0.88142763  1
