# generated using pymatgen
data_V85Zn86O256
_symmetry_space_group_name_H-M   'P 1'
_cell_length_a   16.96801086
_cell_length_b   16.96888516
_cell_length_c   16.98243156
_cell_angle_alpha   90.08580848
_cell_angle_beta   89.92729828
_cell_angle_gamma   90.24579172
_symmetry_Int_Tables_number   1
_chemical_formula_structural   V85Zn86O256
_chemical_formula_sum   'V85 Zn86 O256'
_cell_volume   4889.66704948
_cell_formula_units_Z   1
loop_
 _symmetry_equiv_pos_site_id
 _symmetry_equiv_pos_as_xyz
  1  'x, y, z'
loop_
 _atom_site_type_symbol
 _atom_site_label
 _atom_site_symmetry_multiplicity
 _atom_site_fract_x
 _atom_site_fract_y
 _atom_site_fract_z
 _atom_site_occupancy
  V  V0  1  0.50276554  0.12373189  0.62798202  1
  V  V1  1  0.88075644  0.12927333  0.25137264  1
  V  V2  1  0.25142693  0.50207398  0.25595428  1
  V  V3  1  0.74688296  0.62319885  0.37696539  1
  V  V4  1  0.00162006  -0.00137386  0.49955766  1
  V  V5  1  0.25054570  0.12461427  0.37383243  1
  V  V6  1  0.74535252  0.74629969  0.50190605  1
  V  V7  1  0.25276380  0.50092446  0.74902253  1
  V  V8  1  0.74714693  0.88059574  0.13809847  1
  V  V9  1  0.87167459  -0.00254179  0.36763767  1
  V  V10  1  0.87605030  0.88726232  0.00214477  1
  V  V11  1  -0.00173770  0.37534708  0.87560203  1
  V  V12  1  -0.00046481  0.50203162  0.49728583  1
  V  V13  1  0.74978827  0.25233945  0.50663694  1
  V  V14  1  0.62467461  0.12112900  0.00085745  1
  V  V15  1  0.12611420  0.50119090  0.62293680  1
  V  V16  1  0.87151790  0.00304248  0.87390698  1
  V  V17  1  0.37445949  0.87567977  0.00148583  1
  V  V18  1  0.01523753  0.87301093  0.37072679  1
  V  V19  1  0.38015177  0.50128674  0.87980361  1
  V  V20  1  0.50067562  0.37853469  0.87914622  1
  V  V21  1  0.50724504  0.87557556  0.37471999  1
  V  V22  1  0.14024803  0.63525327  0.48667090  1
  V  V23  1  0.01203535  0.75434137  0.25267816  1
  V  V24  1  0.12566629  0.12550994  0.50061152  1
  V  V25  1  0.86809175  0.12106137  0.75036361  1
  V  V26  1  0.87131725  0.75256268  0.12268777  1
  V  V27  1  0.24963842  0.25093884  -0.00054943  1
  V  V28  1  0.87528929  0.87506808  0.49848823  1
  V  V29  1  0.62226827  -0.00447980  0.14540927  1
  V  V30  1  0.39471863  0.37239109  0.49876539  1
  V  V31  1  0.86978215  0.25555565  0.12646397  1
  V  V32  1  0.24641409  0.37571291  0.12691202  1
  V  V33  1  0.12082920  0.24952707  0.36827364  1
  V  V34  1  0.62335419  0.74657560  0.37564326  1
  V  V35  1  -0.00080640  0.50051223  -0.00122647  1
  V  V36  1  0.24757174  0.12363197  0.87249977  1
  V  V37  1  0.37641794  0.74851008  0.12388587  1
  V  V38  1  -0.00071178  0.12536152  0.12509664  1
  V  V39  1  0.86943620  0.37571843  0.50369589  1
  V  V40  1  0.00111768  0.12367639  0.62476676  1
  V  V41  1  0.50763318  0.75273196  0.24710113  1
  V  V42  1  0.50429433  -0.00284278  0.50996829  1
  V  V43  1  0.37668618  0.25054453  0.62578490  1
  V  V44  1  0.50234119  0.75048358  0.74100009  1
  V  V45  1  0.87573042  0.62681403  0.74813584  1
  V  V46  1  0.38355407  0.62398909  0.74341094  1
  V  V47  1  0.62227783  0.25564156  0.37671459  1
  V  V48  1  0.11855663  0.12000495  0.00031581  1
  V  V49  1  0.24839886  0.75561309  0.00545462  1
  V  V50  1  0.12463818  0.62509981  -0.00065988  1
  V  V51  1  0.50124247  0.61994519  0.11886841  1
  V  V52  1  0.87292153  0.25143502  0.62453823  1
  V  V53  1  0.74403571  0.88551790  0.63152416  1
  V  V54  1  -0.00003880  0.62703829  0.62283868  1
  V  V55  1  0.74801875  0.62729862  0.87271981  1
  V  V56  1  -0.00031367  0.87980113  0.87290406  1
  V  V57  1  0.62766299  0.49532659  0.11410109  1
  V  V58  1  0.74908188  0.12034822  0.37015099  1
  V  V59  1  0.13645882  -0.01085955  0.63735387  1
  V  V60  1  0.37689781  0.24982244  0.12534094  1
  V  V61  1  0.50618712  0.52726105  0.49725647  1
  V  V62  1  0.12295215  0.75572147  0.86955713  1
  V  V63  1  0.74617715  0.48607213  0.74337487  1
  V  V64  1  0.63271705  0.37654032  0.24878694  1
  V  V65  1  0.38094246  0.49364471  0.37333337  1
  V  V66  1  0.36157552  0.74819242  0.62255504  1
  V  V67  1  0.37154787  0.12469461  0.75163506  1
  V  V68  1  0.36684694  0.87297081  0.50510805  1
  V  V69  1  0.62625440  0.25409645  0.87487323  1
  V  V70  1  0.87324797  0.50093520  0.87330017  1
  V  V71  1  0.50717640  0.25640468  0.75234193  1
  V  V72  1  0.87521211  0.75111356  0.62503456  1
  V  V73  1  0.62320479  0.50487071  0.62610541  1
  V  V74  1  0.25207969  0.37484183  0.62028341  1
  V  V75  1  0.37308785  0.12609064  0.25368828  1
  V  V76  1  0.37132891  0.00113595  0.87912415  1
  V  V77  1  0.62379640  0.75543264  0.87085534  1
  V  V78  1  0.62584913  0.12018232  0.50476089  1
  V  V79  1  0.00048131  0.25122780  0.74975993  1
  V  V80  1  0.12681124  -0.00945818  0.12848116  1
  V  V81  1  -0.00178528  0.62588694  0.12467657  1
  V  V82  1  0.50049959  0.25694902  0.25535053  1
  V  V83  1  0.87319970  0.62587099  0.25172172  1
  V  V84  1  -0.00052652  0.37002538  0.37068468  1
  Zn  Zn85  1  0.37135976  0.62830783  0.25653671  1
  Zn  Zn86  1  0.00605663  0.75536406  0.74559316  1
  Zn  Zn87  1  0.37307316  -0.00571318  0.37512977  1
  Zn  Zn88  1  0.50015824  -0.00233991  0.00624367  1
  Zn  Zn89  1  0.25182746  0.62642693  0.87408856  1
  Zn  Zn90  1  0.12561447  0.37558357  0.74869830  1
  Zn  Zn91  1  0.12347516  0.49876696  0.12755926  1
  Zn  Zn92  1  0.12337339  0.25035714  0.87507065  1
  Zn  Zn93  1  0.23271477  -0.02572930  0.25486410  1
  Zn  Zn94  1  0.74354763  0.12153348  0.87182265  1
  Zn  Zn95  1  0.74528018  0.25663055  0.00419057  1
  Zn  Zn96  1  0.11946342  0.37322649  0.24812512  1
  Zn  Zn97  1  0.61122614  0.89578825  0.74306858  1
  Zn  Zn98  1  0.74983062  0.49653339  0.24696866  1
  Zn  Zn99  1  0.74506371  0.75284693  0.00013201  1
  Zn  Zn100  1  0.87121704  0.49680125  0.37379560  1
  Zn  Zn101  1  0.49969533  0.12012530  0.12853248  1
  Zn  Zn102  1  0.37723429  0.38424470  0.00312823  1
  Zn  Zn103  1  0.86804485  0.37891958  0.00742286  1
  Zn  Zn104  1  0.50086509  0.87712745  0.87403339  1
  Zn  Zn105  1  0.61970237  0.62390137  -0.00532179  1
  Zn  Zn106  1  0.25145202  0.25145375  0.49873832  1
  Zn  Zn107  1  0.18643661  0.18442204  0.18770806  1
  Zn  Zn108  1  0.18605985  0.18634195  0.68600250  1
  Zn  Zn109  1  0.19077784  0.68544112  0.18777187  1
  Zn  Zn110  1  0.18723288  0.68425017  0.68370693  1
  Zn  Zn111  1  0.68799865  0.18341581  0.18879713  1
  Zn  Zn112  1  0.68740120  0.06382758  0.68723851  1
  Zn  Zn113  1  0.68605345  0.68585949  0.18692790  1
  Zn  Zn114  1  0.68453677  0.68434423  0.68534024  1
  Zn  Zn115  1  0.31022915  0.31499180  0.31560059  1
  Zn  Zn116  1  0.31623134  0.31423852  0.81199664  1
  Zn  Zn117  1  0.31027397  0.81012740  0.31518528  1
  Zn  Zn118  1  0.30151285  0.81235434  0.81556186  1
  Zn  Zn119  1  0.81185205  0.30864779  0.31516894  1
  Zn  Zn120  1  0.81156265  0.30856656  0.81463116  1
  Zn  Zn121  1  0.81576030  0.80961608  0.31362126  1
  Zn  Zn122  1  0.81407378  0.81475761  0.81084280  1
  Zn  Zn123  1  0.18705087  0.43987154  0.43673455  1
  Zn  Zn124  1  0.18733960  0.43757155  0.93579647  1
  Zn  Zn125  1  0.18919982  0.94214709  0.44390934  1
  Zn  Zn126  1  0.18603101  0.93801460  0.94030887  1
  Zn  Zn127  1  0.68090411  0.44022260  0.44136188  1
  Zn  Zn128  1  0.69092399  0.43445192  0.93462823  1
  Zn  Zn129  1  0.68845518  0.93432624  0.43862448  1
  Zn  Zn130  1  0.69062464  0.93676893  0.93966108  1
  Zn  Zn131  1  0.30586004  0.06214275  0.06546424  1
  Zn  Zn132  1  0.31416368  0.06068629  0.56200311  1
  Zn  Zn133  1  0.30985481  0.56638433  0.06476548  1
  Zn  Zn134  1  0.31864208  0.56027912  0.55848390  1
  Zn  Zn135  1  0.80481298  0.06443348  0.06492318  1
  Zn  Zn136  1  0.81732931  0.06420341  0.55626159  1
  Zn  Zn137  1  0.80874253  0.56235992  0.05985522  1
  Zn  Zn138  1  0.81037929  0.56235522  0.56382100  1
  Zn  Zn139  1  0.44120219  0.43603722  0.18698164  1
  Zn  Zn140  1  0.44513420  0.43930640  0.68333547  1
  Zn  Zn141  1  0.41298885  0.92420514  0.20161362  1
  Zn  Zn142  1  0.39592401  0.91635962  0.71152605  1
  Zn  Zn143  1  0.93736650  0.44056518  0.18865670  1
  Zn  Zn144  1  0.93520569  0.43926864  0.68681346  1
  Zn  Zn145  1  0.94273163  0.93969460  0.18761167  1
  Zn  Zn146  1  0.93934466  0.93790987  0.68773398  1
  Zn  Zn147  1  0.06041489  0.06100681  0.31096785  1
  Zn  Zn148  1  0.05767707  0.06018259  0.81360034  1
  Zn  Zn149  1  0.06402778  0.56173144  0.31124704  1
  Zn  Zn150  1  0.06311223  0.56486888  0.81088867  1
  Zn  Zn151  1  0.55530831  0.06691405  0.31769416  1
  Zn  Zn152  1  0.55392411  0.06682020  0.81818053  1
  Zn  Zn153  1  0.55833308  0.56119374  0.31016279  1
  Zn  Zn154  1  0.56470816  0.56216862  0.80807355  1
  Zn  Zn155  1  0.43879674  0.18819705  0.44026901  1
  Zn  Zn156  1  0.44067867  0.18755865  0.94119255  1
  Zn  Zn157  1  0.40497626  0.69813317  0.42218956  1
  Zn  Zn158  1  0.43886995  0.68679536  0.93357592  1
  Zn  Zn159  1  0.93798847  0.18682189  0.43824761  1
  Zn  Zn160  1  0.93493698  0.18769378  0.94004035  1
  Zn  Zn161  1  0.93922575  0.69013108  0.43656038  1
  Zn  Zn162  1  0.93711175  0.69065888  0.93634693  1
  Zn  Zn163  1  0.05751002  0.30807661  0.06318449  1
  Zn  Zn164  1  0.06260881  0.31282356  0.55887446  1
  Zn  Zn165  1  0.05622439  0.81178195  0.05853919  1
  Zn  Zn166  1  0.06651877  0.81260579  0.55838619  1
  Zn  Zn167  1  0.56155101  0.31410475  0.06063405  1
  Zn  Zn168  1  0.57411090  0.31246759  0.57383771  1
  Zn  Zn169  1  0.56303862  0.81534389  0.05941924  1
  Zn  Zn170  1  0.56303684  0.80914013  0.56197401  1
  O  O171  1  0.11721744  0.12344796  0.11860104  1
  O  O172  1  0.11873031  0.12098245  0.61850844  1
  O  O173  1  0.11811648  0.62553390  0.11264390  1
  O  O174  1  0.11911595  0.61884005  0.61535447  1
  O  O175  1  0.62579689  0.11165499  0.12120205  1
  O  O176  1  0.62151985  0.12565731  0.61090814  1
  O  O177  1  0.61828023  0.61535776  0.12296793  1
  O  O178  1  0.62871986  0.60953263  0.62217124  1
  O  O179  1  0.37352016  0.37966340  0.38807125  1
  O  O180  1  0.38059457  0.38478143  0.87712658  1
  O  O181  1  0.39408643  0.87193861  0.39517440  1
  O  O182  1  0.37186594  0.88496987  0.88791444  1
  O  O183  1  0.88223838  0.37369384  0.38413448  1
  O  O184  1  0.88711403  0.38124022  0.87278622  1
  O  O185  1  0.87578191  0.88371209  0.37979244  1
  O  O186  1  0.87740796  0.88255205  0.88278056  1
  O  O187  1  0.25199123  0.01220291  0.37146168  1
  O  O188  1  0.25815716  0.01391624  0.88431231  1
  O  O189  1  0.26047966  0.48827589  0.36318154  1
  O  O190  1  0.25819163  0.49900608  0.86262699  1
  O  O191  1  0.76028331  0.00894485  0.38421912  1
  O  O192  1  0.76626925  0.00167019  0.87694055  1
  O  O193  1  0.74964274  0.51202563  0.37497999  1
  O  O194  1  0.75234853  0.50896513  0.86467345  1
  O  O195  1  0.25098181  0.48797505  0.12968611  1
  O  O196  1  0.24979037  0.49282667  0.63189954  1
  O  O197  1  0.23176670  1.00593670  0.13116582  1
  O  O198  1  0.23519278  1.00655586  0.62209401  1
  O  O199  1  0.73235230  0.50924438  0.12915685  1
  O  O200  1  0.74145185  0.50485214  0.63270219  1
  O  O201  1  0.73425390  0.99358951  0.12443874  1
  O  O202  1  0.75204633  0.99027429  0.61812528  1
  O  O203  1  0.00006188  0.38352946  0.26682863  1
  O  O204  1  -0.00063595  0.36767536  0.75552775  1
  O  O205  1  -0.00630908  0.86602605  0.25897831  1
  O  O206  1  -0.00871774  0.87123567  0.76654402  1
  O  O207  1  0.51093749  0.36264861  0.24824601  1
  O  O208  1  0.49082196  0.36466287  0.76032172  1
  O  O209  1  0.49320435  0.86410338  0.26358187  1
  O  O210  1  0.49495296  0.86519018  0.75521793  1
  O  O211  1  0.49380361  0.14148282  0.24858977  1
  O  O212  1  0.48940924  0.13681754  0.74707629  1
  O  O213  1  0.49750905  0.63474625  0.23998979  1
  O  O214  1  0.48958215  0.63236242  0.75208283  1
  O  O215  1  0.98858765  0.12466059  0.24444925  1
  O  O216  1  0.99193926  0.13580019  0.74601422  1
  O  O217  1  0.99102895  0.63147778  0.24605317  1
  O  O218  1  0.99385930  0.62599120  0.74092463  1
  O  O219  1  0.36405222  0.24735330  0.00986507  1
  O  O220  1  0.37381711  0.25645682  0.50760777  1
  O  O221  1  0.36737515  0.75428615  0.00199759  1
  O  O222  1  0.38427638  0.75995464  0.51684874  1
  O  O223  1  0.87307986  0.24811554  0.01637551  1
  O  O224  1  0.86888296  0.25586945  0.50283328  1
  O  O225  1  0.87329155  0.75563957  0.01285914  1
  O  O226  1  0.86636531  0.75572748  0.50433549  1
  O  O227  1  0.12769118  0.24260077  0.49141822  1
  O  O228  1  0.13474322  0.24162444  0.99972468  1
  O  O229  1  0.12575010  0.73394589  0.50313090  1
  O  O230  1  0.13006040  0.74411443  0.99533565  1
  O  O231  1  0.63054972  0.24271084  0.49437935  1
  O  O232  1  0.62270242  0.24162574  0.99415835  1
  O  O233  1  0.63611545  0.75084929  0.49085798  1
  O  O234  1  0.62581875  0.74877410  0.98547574  1
  O  O235  1  0.48879610  0.25142593  0.13301730  1
  O  O236  1  0.49794945  0.24487380  0.63370067  1
  O  O237  1  0.49920178  0.74367416  0.12962873  1
  O  O238  1  0.49755155  0.75250794  0.63734266  1
  O  O239  1  0.98801866  0.23567778  0.12388268  1
  O  O240  1  0.99450530  0.24610096  0.63136173  1
  O  O241  1  0.98943125  0.74673068  0.13167143  1
  O  O242  1  0.99348269  0.74611155  0.62482582  1
  O  O243  1  0.00820745  0.25876659  0.38260811  1
  O  O244  1  -0.00211713  0.25808242  0.86707909  1
  O  O245  1  -0.00708909  0.76142346  0.36462967  1
  O  O246  1  0.00746230  0.75764467  0.87355576  1
  O  O247  1  0.51215004  0.24289969  0.36810192  1
  O  O248  1  0.50247867  0.25758098  0.87025983  1
  O  O249  1  0.50644685  0.75353489  0.36840216  1
  O  O250  1  0.50874581  0.74932746  0.86406973  1
  O  O251  1  0.24622487  0.12597803  0.48890268  1
  O  O252  1  0.24242506  0.13468565  0.99329798  1
  O  O253  1  0.23811612  0.61472506  0.50112952  1
  O  O254  1  0.23989516  0.63423886  0.99845077  1
  O  O255  1  0.74446381  0.13145636  0.49135383  1
  O  O256  1  0.73643987  0.13050107  0.99733277  1
  O  O257  1  0.75963586  0.63647174  0.48852980  1
  O  O258  1  0.74834136  0.62748451  0.98314356  1
  O  O259  1  0.25021668  0.36656900  0.00732692  1
  O  O260  1  0.25840030  0.37858371  0.51216356  1
  O  O261  1  0.25746642  0.86362832  -0.00169528  1
  O  O262  1  0.26869597  0.87750932  0.49357930  1
  O  O263  1  0.75672306  0.37005045  -0.00441208  1
  O  O264  1  0.76089590  0.36690219  0.48896916  1
  O  O265  1  0.76133424  0.87237792  0.01043830  1
  O  O266  1  0.75488541  0.86598750  0.50783628  1
  O  O267  1  0.13514654  0.49565753  0.24737832  1
  O  O268  1  0.13660590  0.50147324  0.74346541  1
  O  O269  1  0.12284981  1.00105423  0.23664926  1
  O  O270  1  0.11959998  1.00596827  0.73577890  1
  O  O271  1  0.62517669  0.48955286  0.24581046  1
  O  O272  1  0.63068203  0.50159135  0.73676210  1
  O  O273  1  0.62125007  1.00510570  0.24393878  1
  O  O274  1  0.62381834  1.00626080  0.75729773  1
  O  O275  1  0.39110503  0.02466582  0.25494665  1
  O  O276  1  0.38100478  0.02043131  0.76251731  1
  O  O277  1  0.36989157  0.49159791  0.25733657  1
  O  O278  1  0.37095686  0.50647591  0.75209791  1
  O  O279  1  0.87855862  0.00917155  0.26202009  1
  O  O280  1  0.88299990  0.01225947  0.75811056  1
  O  O281  1  0.87065814  0.51312819  0.25053474  1
  O  O282  1  0.86701411  0.50721052  0.75257656  1
  O  O283  1  0.11695227  0.36590304  0.37786439  1
  O  O284  1  0.11194563  0.37404000  0.87119530  1
  O  O285  1  0.11432673  0.88314706  0.37790368  1
  O  O286  1  0.11363565  0.86700108  0.88652632  1
  O  O287  1  0.63003548  0.36127644  0.36900344  1
  O  O288  1  0.61362470  0.36503079  0.87999542  1
  O  O289  1  0.61731660  0.86247753  0.37967563  1
  O  O290  1  0.62666128  0.86578910  0.86933763  1
  O  O291  1  0.37097320  0.13659493  0.13425039  1
  O  O292  1  0.37972231  0.13017849  0.63277862  1
  O  O293  1  0.38416999  0.63328490  0.12355499  1
  O  O294  1  0.37192614  0.63705644  0.63053497  1
  O  O295  1  0.87964196  0.12700525  0.13361411  1
  O  O296  1  0.88100918  0.13035776  0.63025806  1
  O  O297  1  0.87632163  0.63318834  0.13115369  1
  O  O298  1  0.88015457  0.63114465  0.62814402  1
  O  O299  1  0.25605750  0.25638632  0.11999345  1
  O  O300  1  0.25625138  0.25973813  0.62524536  1
  O  O301  1  0.26244532  0.74281518  0.11558580  1
  O  O302  1  0.26296014  0.75149618  0.62804437  1
  O  O303  1  0.76564141  0.24275253  0.12695847  1
  O  O304  1  0.75632302  0.24612599  0.60732191  1
  O  O305  1  0.75720062  0.75684488  0.12444748  1
  O  O306  1  0.75467763  0.75607606  0.61678105  1
  O  O307  1  0.24065355  0.24267223  0.37811424  1
  O  O308  1  0.24947506  0.24476141  0.88396002  1
  O  O309  1  0.30287988  0.72411725  0.37592617  1
  O  O310  1  0.24139845  0.74733807  0.88627944  1
  O  O311  1  0.74252322  0.23953954  0.38394382  1
  O  O312  1  0.73631425  0.24581320  0.87391344  1
  O  O313  1  0.74331151  0.74537757  0.38147554  1
  O  O314  1  0.74234858  0.74317856  0.87113321  1
  O  O315  1  0.01121520  0.13049049  0.00639230  1
  O  O316  1  0.00477690  0.11936615  0.50457032  1
  O  O317  1  0.00586678  0.62210870  0.00397712  1
  O  O318  1  0.00152825  0.61591664  0.50327462  1
  O  O319  1  0.50887350  0.12362327  0.00847834  1
  O  O320  1  0.50731885  0.11877893  0.50503807  1
  O  O321  1  0.50093755  0.63051162  0.01300778  1
  O  O322  1  0.49132603  0.62336099  0.49278017  1
  O  O323  1  0.49381361  0.36821149  0.50497538  1
  O  O324  1  0.49316430  0.37007797  0.98557358  1
  O  O325  1  0.50308095  0.88257201  0.49537666  1
  O  O326  1  0.48860353  0.87589316  0.99301416  1
  O  O327  1  0.99192859  0.38290737  0.49269541  1
  O  O328  1  0.99687547  0.38023435  0.99117500  1
  O  O329  1  0.99403146  0.87805517  0.48924745  1
  O  O330  1  0.98354844  0.86903323  0.98905554  1
  O  O331  1  0.49934078  0.49815022  0.39012053  1
  O  O332  1  0.49105442  0.49158263  0.86498442  1
  O  O333  1  0.49798553  0.99235478  0.38584138  1
  O  O334  1  0.48073091  1.00217372  0.88298310  1
  O  O335  1  0.99682719  0.49238147  0.38506764  1
  O  O336  1  0.99458957  0.49438364  0.87739549  1
  O  O337  1  0.99181825  0.99240345  0.37867400  1
  O  O338  1  0.98776505  0.99182081  0.87595943  1
  O  O339  1  0.00988984  0.01493452  0.12789150  1
  O  O340  1  0.00499260  0.00560920  0.61766208  1
  O  O341  1  0.00088045  0.50749398  0.11789201  1
  O  O342  1  0.00425623  0.50436798  0.61540041  1
  O  O343  1  0.51438804  -0.00244568  0.12676980  1
  O  O344  1  0.49708085  0.00717770  0.61236233  1
  O  O345  1  0.51180043  0.50935707  0.13140732  1
  O  O346  1  0.50813022  0.50396557  0.61057786  1
  O  O347  1  0.24797317  0.37966729  0.23967672  1
  O  O348  1  0.25226748  0.38340961  0.73915609  1
  O  O349  1  0.30645398  0.89428623  0.24958334  1
  O  O350  1  0.28955753  0.89020294  0.74281039  1
  O  O351  1  0.73805987  0.37432704  0.25371996  1
  O  O352  1  0.75591682  0.38769409  0.75409417  1
  O  O353  1  0.75647734  0.87083766  0.23719704  1
  O  O354  1  0.75384327  0.87451216  0.73193011  1
  O  O355  1  0.25902979  0.12924001  0.26045663  1
  O  O356  1  0.25832752  0.13697152  0.76280507  1
  O  O357  1  0.25559976  0.60650836  0.23841732  1
  O  O358  1  0.26051603  0.61458611  0.74891427  1
  O  O359  1  0.75858951  0.12781957  0.26495379  1
  O  O360  1  0.76505045  0.12669559  0.74864870  1
  O  O361  1  0.75866206  0.62856282  0.25950603  1
  O  O362  1  0.75600878  0.62027593  0.75879289  1
  O  O363  1  0.36590201  0.12973998  0.37075996  1
  O  O364  1  0.36633520  0.12283183  0.87293932  1
  O  O365  1  0.38363621  0.59680251  0.37026255  1
  O  O366  1  0.37344244  0.61825535  0.86302231  1
  O  O367  1  0.86997575  0.11931424  0.37050580  1
  O  O368  1  0.87518038  0.11972874  0.86772033  1
  O  O369  1  0.86692647  0.62695695  0.36556458  1
  O  O370  1  0.86843532  0.62158426  0.86920017  1
  O  O371  1  0.13347028  0.37316800  0.12593912  1
  O  O372  1  0.13464589  0.38131920  0.62415654  1
  O  O373  1  0.11523084  0.89236971  0.11415947  1
  O  O374  1  0.12066863  0.89038993  0.62048904  1
  O  O375  1  0.61860181  0.38827098  0.13157512  1
  O  O376  1  0.62832701  0.40047009  0.61327376  1
  O  O377  1  0.63139026  0.88750900  0.12237917  1
  O  O378  1  0.64069499  0.87214448  0.62566607  1
  O  O379  1  0.12771571  0.25067079  0.26407488  1
  O  O380  1  0.11173531  0.25136506  0.75110947  1
  O  O381  1  0.11116493  0.74508479  0.24188100  1
  O  O382  1  0.12808373  0.74277786  0.76562733  1
  O  O383  1  0.62026846  0.25471770  0.25595235  1
  O  O384  1  0.60969866  0.24429358  0.76405480  1
  O  O385  1  0.61578490  0.74824810  0.25798628  1
  O  O386  1  0.61724333  0.75060936  0.75559657  1
  O  O387  1  0.38089174  0.24751954  0.24584852  1
  O  O388  1  0.38198404  0.24245423  0.74611140  1
  O  O389  1  0.38897845  0.74690257  0.23374964  1
  O  O390  1  0.38118567  0.74183539  0.73962155  1
  O  O391  1  0.87183950  0.23928125  0.24160913  1
  O  O392  1  0.88298747  0.24412863  0.74514167  1
  O  O393  1  0.88075175  0.74188370  0.24037850  1
  O  O394  1  0.87600031  0.74286341  0.74232899  1
  O  O395  1  0.39116644  0.49238825  0.49667360  1
  O  O396  1  0.36619588  0.50425830  0.98362655  1
  O  O397  1  0.38440507  0.98810289  0.50077450  1
  O  O398  1  0.37167143  0.99275408  0.99906524  1
  O  O399  1  0.88206801  0.49253574  0.49987860  1
  O  O400  1  0.88166209  0.50132090  0.99246704  1
  O  O401  1  0.88287444  0.99626505  0.48882851  1
  O  O402  1  0.87127343  0.99388423  0.99517581  1
  O  O403  1  0.13133246  0.01358254  0.01128343  1
  O  O404  1  0.11890438  0.00823918  0.50756992  1
  O  O405  1  0.12001092  0.51040312  -0.00085501  1
  O  O406  1  0.11482041  0.50512428  0.50362460  1
  O  O407  1  0.62196883  0.01037131  -0.00185477  1
  O  O408  1  0.61844538  0.01153780  0.49142439  1
  O  O409  1  0.62590287  0.49984314  0.01155804  1
  O  O410  1  0.61241018  0.50896610  0.50205496  1
  O  O411  1  0.36705331  0.36569551  0.12320213  1
  O  O412  1  0.37110410  0.37095177  0.61789042  1
  O  O413  1  0.38565127  0.85950348  0.10998836  1
  O  O414  1  0.38209745  0.86282931  0.61146685  1
  O  O415  1  0.88289680  0.35856044  0.12967152  1
  O  O416  1  0.88163633  0.36813418  0.61108635  1
  O  O417  1  0.87065797  0.87260438  0.12033986  1
  O  O418  1  0.86746806  0.87189780  0.61761882  1
  O  O419  1  0.13014614  0.12984087  0.37882372  1
  O  O420  1  0.13102361  0.12499114  0.88208272  1
  O  O421  1  0.12155319  0.62130718  0.38853073  1
  O  O422  1  0.12384244  0.63380984  0.88598056  1
  O  O423  1  0.63158858  0.13293080  0.38248417  1
  O  O424  1  0.62096738  0.13603765  0.88522077  1
  O  O425  1  0.63514746  0.63581532  0.36737927  1
  O  O426  1  0.63219287  0.63280957  0.87249871  1
