# generated using pymatgen
data_V85Zn86O256
_symmetry_space_group_name_H-M   'P 1'
_cell_length_a   16.96061058
_cell_length_b   16.95143665
_cell_length_c   16.95065681
_cell_angle_alpha   90.01032723
_cell_angle_beta   90.08317902
_cell_angle_gamma   89.99915426
_symmetry_Int_Tables_number   1
_chemical_formula_structural   V85Zn86O256
_chemical_formula_sum   'V85 Zn86 O256'
_cell_volume   4873.42245399
_cell_formula_units_Z   1
loop_
 _symmetry_equiv_pos_site_id
 _symmetry_equiv_pos_as_xyz
  1  'x, y, z'
loop_
 _atom_site_type_symbol
 _atom_site_label
 _atom_site_symmetry_multiplicity
 _atom_site_fract_x
 _atom_site_fract_y
 _atom_site_fract_z
 _atom_site_occupancy
  V  V0  1  0.74860468  0.12818074  0.38921711  1
  V  V1  1  0.62573353  0.37411240  0.23893642  1
  V  V2  1  0.86981913  0.26511469  0.12200474  1
  V  V3  1  0.74999336  0.62818191  0.87543496  1
  V  V4  1  0.26378135  0.76204251  0.00102370  1
  V  V5  1  0.00117872  0.87597316  0.37569892  1
  V  V6  1  0.62778848  0.74864958  0.88015806  1
  V  V7  1  0.75038436  0.12783977  0.87710769  1
  V  V8  1  0.87393829  0.12738340  0.24756575  1
  V  V9  1  0.62183531  0.62798368  0.49612020  1
  V  V10  1  0.62372220  0.00083107  0.61444986  1
  V  V11  1  0.37111307  0.24798674  0.13515723  1
  V  V12  1  0.50319913  0.11688413  0.61029970  1
  V  V13  1  0.38306264  0.12643424  0.75807342  1
  V  V14  1  0.62301263  0.12437545  0.00381604  1
  V  V15  1  0.49721189  0.12414900  0.13579606  1
  V  V16  1  0.36844917  0.49291563  0.37448940  1
  V  V17  1  0.74855804  0.87377286  0.62496889  1
  V  V18  1  -0.00042640  0.24919737  0.74063743  1
  V  V19  1  0.26395759  0.88163731  0.12633776  1
  V  V20  1  0.00023643  0.49827763  0.50166789  1
  V  V21  1  0.38008441  0.89354422  0.50279983  1
  V  V22  1  0.24955575  0.11520753  0.35808369  1
  V  V23  1  0.12753276  0.11818295  0.51179164  1
  V  V24  1  0.87518106  0.87481281  0.49977059  1
  V  V25  1  0.87873008  0.00348986  0.88163629  1
  V  V26  1  0.00115606  0.87865385  0.87718567  1
  V  V27  1  0.87569973  0.00219220  0.37595882  1
  V  V28  1  -0.00311056  0.37504235  0.87939886  1
  V  V29  1  0.00105338  0.75199363  0.25056278  1
  V  V30  1  0.75078872  0.49610776  0.74251800  1
  V  V31  1  0.37315366  0.75485470  0.62247601  1
  V  V32  1  0.11652537  0.11489108  -0.00161715  1
  V  V33  1  -0.00104531  0.36921294  0.37672439  1
  V  V34  1  0.12539573  0.62539889  0.50041640  1
  V  V35  1  0.85673519  0.37073483  0.50371034  1
  V  V36  1  0.13183879  0.37725775  0.24694790  1
  V  V37  1  0.87710006  0.62482402  0.74972069  1
  V  V38  1  0.11586134  -0.00468301  0.13220513  1
  V  V39  1  0.75060987  0.00020157  0.75116248  1
  V  V40  1  0.87590822  0.87543545  -0.00013317  1
  V  V41  1  0.50078315  0.75127231  0.75115657  1
  V  V42  1  0.13126111  0.24446870  0.37894459  1
  V  V43  1  0.87514663  0.49561594  0.87976292  1
  V  V44  1  0.49779108  0.37253633  0.38407173  1
  V  V45  1  0.25181384  0.75162208  0.49947743  1
  V  V46  1  0.62557556  0.86765143  0.25511435  1
  V  V47  1  0.12651601  0.24957772  0.87877910  1
  V  V48  1  0.74589432  0.49529267  0.23717343  1
  V  V49  1  0.49310040  0.49798892  0.01023710  1
  V  V50  1  0.00141171  0.75108232  0.74993896  1
  V  V51  1  0.62836409  0.61633176  0.00622148  1
  V  V52  1  0.62590326  0.87484294  0.75097577  1
  V  V53  1  0.75109045  0.26646806  0.00361153  1
  V  V54  1  0.25658990  0.37016349  0.61069773  1
  V  V55  1  0.25030174  0.62749946  0.87770173  1
  V  V56  1  0.50250075  0.87200836  0.37816498  1
  V  V57  1  0.25155779  0.62296225  0.36538545  1
  V  V58  1  0.87417820  0.62422156  0.24951314  1
  V  V59  1  0.85659236  0.25426304  0.62335213  1
  V  V60  1  0.74335666  0.62756969  0.37306357  1
  V  V61  1  0.25102462  0.00409212  0.74325611  1
  V  V62  1  0.49766346  0.88219272  0.88779680  1
  V  V63  1  0.62163515  0.00050467  0.12214561  1
  V  V64  1  0.12679690  0.88220750  0.74163971  1
  V  V65  1  0.12724554  0.37445257  0.74984088  1
  V  V66  1  0.87266103  0.49723511  0.37547466  1
  V  V67  1  0.63064188  0.24549163  0.38704128  1
  V  V68  1  0.50106646  0.62340814  0.62232935  1
  V  V69  1  0.37511299  0.62295597  0.75404486  1
  V  V70  1  0.87927947  0.12651534  0.74393627  1
  V  V71  1  0.00189340  0.00315256  0.51467496  1
  V  V72  1  0.49320181  0.38413377  0.87058040  1
  V  V73  1  0.37681057  0.00233682  0.35008474  1
  V  V74  1  0.25412628  0.49867405  0.75666067  1
  V  V75  1  0.61893110  0.25189572  0.87658592  1
  V  V76  1  0.75053021  0.00158657  0.25067599  1
  V  V77  1  0.63030379  0.37473161  0.74431358  1
  V  V78  1  0.87503053  0.75016661  0.12102728  1
  V  V79  1  0.12687206  0.50067608  0.62471339  1
  V  V80  1  0.87478736  0.74863121  0.62540216  1
  V  V81  1  0.00665854  0.50233627  0.00130235  1
  V  V82  1  0.74781224  0.74872488  0.49678622  1
  V  V83  1  0.75079401  0.87266453  0.12204540  1
  V  V84  1  0.12503775  0.75136667  0.37518142  1
  Zn  Zn85  1  -0.01004328  0.12040655  0.11691936  1
  Zn  Zn86  1  0.50075206  0.25030965  0.74425313  1
  Zn  Zn87  1  0.12690202  0.63246551  0.00424362  1
  Zn  Zn88  1  0.12665344  0.75371427  0.87623753  1
  Zn  Zn89  1  0.37536845  0.62469195  0.24199105  1
  Zn  Zn90  1  0.36472253  -0.01443753  0.89385610  1
  Zn  Zn91  1  0.38127518  0.25672242  0.61097823  1
  Zn  Zn92  1  0.62845147  0.49344322  0.61938892  1
  Zn  Zn93  1  0.13427232  0.88027936  0.25539131  1
  Zn  Zn94  1  0.24994383  0.24900083  0.00370401  1
  Zn  Zn95  1  0.13529301  0.51641157  0.14084056  1
  Zn  Zn96  1  0.49468430  0.49347266  0.50304674  1
  Zn  Zn97  1  0.00143959  0.62444013  0.62589572  1
  Zn  Zn98  1  -0.00061321  0.24881338  0.24642712  1
  Zn  Zn99  1  0.24987921  0.12056162  0.87929281  1
  Zn  Zn100  1  0.48937355  0.63594614  0.12411543  1
  Zn  Zn101  1  0.37116320  0.36973016  -0.00475345  1
  Zn  Zn102  1  0.49937099  0.24706428  0.25540578  1
  Zn  Zn103  1  0.49283014  0.74795613  0.24630072  1
  Zn  Zn104  1  0.24628924  0.88997814  0.61885568  1
  Zn  Zn105  1  0.00277171  0.62676287  0.12368473  1
  Zn  Zn106  1  0.25661888  0.38108898  0.12309176  1
  Zn  Zn107  1  0.18162624  0.18752193  0.18674195  1
  Zn  Zn108  1  0.19138996  0.18840739  0.69015516  1
  Zn  Zn109  1  0.19070372  0.69735055  0.18331226  1
  Zn  Zn110  1  0.18668240  0.69101573  0.68915778  1
  Zn  Zn111  1  0.68911398  0.19236172  0.19187118  1
  Zn  Zn112  1  0.68439400  0.18398704  0.68889179  1
  Zn  Zn113  1  0.68737635  0.68716709  0.18724118  1
  Zn  Zn114  1  0.68714283  0.68592796  0.68748071  1
  Zn  Zn115  1  0.31061796  0.30748422  0.31683057  1
  Zn  Zn116  1  0.31365760  0.30493458  0.80472548  1
  Zn  Zn117  1  0.31498849  0.81288494  0.31109036  1
  Zn  Zn118  1  0.31303947  0.81484654  0.81120110  1
  Zn  Zn119  1  0.80911398  0.31254574  0.31202896  1
  Zn  Zn120  1  0.81103596  0.31127082  0.81337608  1
  Zn  Zn121  1  0.81345911  0.81205167  0.31104196  1
  Zn  Zn122  1  0.81335475  0.81211895  0.81280347  1
  Zn  Zn123  1  0.18530146  0.43839595  0.43424646  1
  Zn  Zn124  1  0.19058858  0.43672093  0.94222388  1
  Zn  Zn125  1  0.19101054  0.94146386  0.43944597  1
  Zn  Zn126  1  0.18698585  0.93909203  0.93489211  1
  Zn  Zn127  1  0.67977604  0.44211593  0.42986459  1
  Zn  Zn128  1  0.68321330  0.44105773  0.93178133  1
  Zn  Zn129  1  0.69001998  0.93819162  0.43588702  1
  Zn  Zn130  1  0.68899478  0.93753274  0.93816271  1
  Zn  Zn131  1  0.30472180  0.06204334  0.06778660  1
  Zn  Zn132  1  0.32361480  0.09739864  0.54881822  1
  Zn  Zn133  1  0.31133944  0.55980302  0.06300245  1
  Zn  Zn134  1  0.31234762  0.55955583  0.55877121  1
  Zn  Zn135  1  0.80665035  0.06534557  0.06185166  1
  Zn  Zn136  1  0.81502007  0.06056936  0.56635504  1
  Zn  Zn137  1  0.81571389  0.56156729  0.05982218  1
  Zn  Zn138  1  0.81422821  0.56172015  0.56006889  1
  Zn  Zn139  1  0.43605759  0.43572704  0.19374800  1
  Zn  Zn140  1  0.43653351  0.43755286  0.68654930  1
  Zn  Zn141  1  0.44622812  0.92988631  0.18246957  1
  Zn  Zn142  1  0.43767224  0.94286354  0.69592847  1
  Zn  Zn143  1  0.94211324  0.44089404  0.18928580  1
  Zn  Zn144  1  0.93682470  0.43460127  0.68647535  1
  Zn  Zn145  1  0.93927825  0.93825864  0.18899088  1
  Zn  Zn146  1  0.93472309  0.93562451  0.69112311  1
  Zn  Zn147  1  0.05757385  0.06261531  0.31438382  1
  Zn  Zn148  1  0.06303265  0.06193841  0.80801282  1
  Zn  Zn149  1  0.06000283  0.56284251  0.31523596  1
  Zn  Zn150  1  0.06617808  0.56291276  0.81350707  1
  Zn  Zn151  1  0.56537176  0.05758413  0.31648836  1
  Zn  Zn152  1  0.56609313  0.06043699  0.81364894  1
  Zn  Zn153  1  0.55720410  0.55634231  0.30851056  1
  Zn  Zn154  1  0.56390172  0.56124514  0.81067836  1
  Zn  Zn155  1  0.43606610  0.18597737  0.43560212  1
  Zn  Zn156  1  0.41319620  0.15053253  0.96860219  1
  Zn  Zn157  1  0.43385751  0.68896944  0.43163549  1
  Zn  Zn158  1  0.44146174  0.68871308  0.94003660  1
  Zn  Zn159  1  0.93885333  0.18735641  0.44374298  1
  Zn  Zn160  1  0.93637817  0.19213958  0.93831900  1
  Zn  Zn161  1  0.93607789  0.68560154  0.43657348  1
  Zn  Zn162  1  0.93800786  0.68879870  0.93731782  1
  Zn  Zn163  1  0.05493669  0.30955951  0.06290821  1
  Zn  Zn164  1  0.06718071  0.31049943  0.56018515  1
  Zn  Zn165  1  0.06585663  0.81152799  0.05859931  1
  Zn  Zn166  1  0.06148275  0.81278066  0.56199868  1
  Zn  Zn167  1  0.55486697  0.30787755  0.05973282  1
  Zn  Zn168  1  0.56524785  0.30440698  0.56324401  1
  Zn  Zn169  1  0.56534852  0.80883930  0.06364733  1
  Zn  Zn170  1  0.56077108  0.81325279  0.55983661  1
  O  O171  1  0.12071942  0.11552774  0.11514292  1
  O  O172  1  0.13224070  0.12965815  0.61010706  1
  O  O173  1  0.12035221  0.62940382  0.12304055  1
  O  O174  1  0.12594846  0.61954833  0.61917019  1
  O  O175  1  0.62445134  0.11872206  0.12289379  1
  O  O176  1  0.61292118  0.11439510  0.63436824  1
  O  O177  1  0.63190729  0.62695208  0.10606361  1
  O  O178  1  0.61488166  0.62432671  0.61847636  1
  O  O179  1  0.38061786  0.38302551  0.37116553  1
  O  O180  1  0.39198309  0.36387087  0.87111557  1
  O  O181  1  0.37891604  0.88988183  0.38121417  1
  O  O182  1  0.39280567  0.87317747  0.87235791  1
  O  O183  1  0.88087468  0.37496293  0.38338206  1
  O  O184  1  0.88508682  0.38412155  0.86735261  1
  O  O185  1  0.87875018  0.88085693  0.38108200  1
  O  O186  1  0.87844078  0.88295350  0.88055699  1
  O  O187  1  0.26079329  0.00493883  0.36952516  1
  O  O188  1  0.25075539  0.00282954  0.86376223  1
  O  O189  1  0.25983317  0.50631633  0.37859336  1
  O  O190  1  0.24767983  0.50927685  0.86398022  1
  O  O191  1  0.75587380  0.00848368  0.37009223  1
  O  O192  1  0.75902593  0.00583111  0.87091537  1
  O  O193  1  0.75473918  0.50942781  0.36668592  1
  O  O194  1  0.75757578  0.50728817  0.86597393  1
  O  O195  1  0.23890153  0.49093367  0.11043197  1
  O  O196  1  0.24651115  0.49175674  0.63318710  1
  O  O197  1  0.23381810  0.98769844  0.11731577  1
  O  O198  1  0.26259419  1.00536039  0.64074096  1
  O  O199  1  0.75579155  0.50356822  0.13791866  1
  O  O200  1  0.74962469  0.50640602  0.63893946  1
  O  O201  1  0.74443241  0.99131242  0.13085242  1
  O  O202  1  0.74510143  0.99389483  0.63204004  1
  O  O203  1  0.00351845  0.37216863  0.26497898  1
  O  O204  1  0.00635562  0.36894961  0.75862603  1
  O  O205  1  -0.00001286  0.86927812  0.25939061  1
  O  O206  1  0.00570214  0.87198236  0.75669728  1
  O  O207  1  0.51263318  0.37438808  0.26378286  1
  O  O208  1  0.50605771  0.37367237  0.75862124  1
  O  O209  1  0.51116097  0.87438633  0.25800797  1
  O  O210  1  0.50818101  0.86855215  0.75784678  1
  O  O211  1  0.50907139  0.12570003  0.23901269  1
  O  O212  1  0.49103294  0.12738352  0.75742479  1
  O  O213  1  0.50350768  0.62808941  0.24366276  1
  O  O214  1  0.49416910  0.62925531  0.74331603  1
  O  O215  1  0.98350049  0.12729680  0.25074469  1
  O  O216  1  0.98794722  0.13557457  0.75778781  1
  O  O217  1  0.99119112  0.63203424  0.25053176  1
  O  O218  1  0.99517091  0.63189400  0.75106109  1
  O  O219  1  0.37321862  0.24779277  0.01665069  1
  O  O220  1  0.36031971  0.20532830  0.51407963  1
  O  O221  1  0.36267724  0.74983021  -0.00393251  1
  O  O222  1  0.37151900  0.75788446  0.50795192  1
  O  O223  1  0.86601798  0.24698626  0.01276486  1
  O  O224  1  0.87928687  0.25825702  0.51223316  1
  O  O225  1  0.87730836  0.76087526  0.00943101  1
  O  O226  1  0.86907870  0.75456757  0.50507806  1
  O  O227  1  0.11697445  0.23291338  0.48810244  1
  O  O228  1  0.11994490  0.24379210  0.99023173  1
  O  O229  1  0.13065477  0.74607939  0.49535899  1
  O  O230  1  0.13749935  0.75079997  0.99328587  1
  O  O231  1  0.62762124  0.24833691  0.48592526  1
  O  O232  1  0.63252376  0.24532750  0.99532640  1
  O  O233  1  0.63229638  0.73766915  0.50502668  1
  O  O234  1  0.62121286  0.73291178  0.98673181  1
  O  O235  1  0.49109486  0.24135484  0.13003218  1
  O  O236  1  0.50333753  0.23048495  0.62622677  1
  O  O237  1  0.50620576  0.74858755  0.13107460  1
  O  O238  1  0.49286391  0.74247332  0.62969846  1
  O  O239  1  0.98176985  0.24387508  0.12576165  1
  O  O240  1  0.99763362  0.25603344  0.63876302  1
  O  O241  1  0.98875210  0.75414040  0.13025502  1
  O  O242  1  0.99255522  0.74895664  0.63159356  1
  O  O243  1  0.00649111  0.25674898  0.37475957  1
  O  O244  1  0.00388028  0.25878470  0.86701616  1
  O  O245  1  0.00446117  0.75581770  0.37208180  1
  O  O246  1  -0.00303171  0.76316465  0.86802366  1
  O  O247  1  0.50950003  0.25081925  0.37502216  1
  O  O248  1  0.51548418  0.26200625  0.87723155  1
  O  O249  1  0.49620225  0.76887994  0.37472425  1
  O  O250  1  0.50999258  0.75653584  0.87036498  1
  O  O251  1  0.22890422  0.11068273  0.48360880  1
  O  O252  1  0.22888760  0.13207621  0.99914366  1
  O  O253  1  0.24411167  0.63125402  0.49205092  1
  O  O254  1  0.25281972  0.63567748  0.98804754  1
  O  O255  1  0.75638637  0.12092262  0.48815628  1
  O  O256  1  0.74059734  0.13618767  0.99589971  1
  O  O257  1  0.74297836  0.62753560  0.49247813  1
  O  O258  1  0.73862324  0.61355399  0.98657913  1
  O  O259  1  0.25424951  0.36514699  0.00102241  1
  O  O260  1  0.24444862  0.37719312  0.51193349  1
  O  O261  1  0.25082100  0.86871054  0.00238256  1
  O  O262  1  0.26082138  0.87089980  0.50259853  1
  O  O263  1  0.74361473  0.36564719  -0.00658410  1
  O  O264  1  0.75865994  0.38146758  0.49351029  1
  O  O265  1  0.76091801  0.87898281  0.01098731  1
  O  O266  1  0.75550056  0.86886833  0.50381980  1
  O  O267  1  0.11611377  0.48217348  0.25391920  1
  O  O268  1  0.13500866  0.49561514  0.74543574  1
  O  O269  1  0.12026677  1.00060390  0.23609946  1
  O  O270  1  0.13416611  0.99335162  0.75146386  1
  O  O271  1  0.63266340  0.48389534  0.25645201  1
  O  O272  1  0.63435617  0.49257830  0.74882393  1
  O  O273  1  0.63256404  0.99220675  0.24091675  1
  O  O274  1  0.63454626  0.99378218  0.74604231  1
  O  O275  1  0.37544009  -0.00378838  0.25245319  1
  O  O276  1  0.37075340  0.01190715  0.76359757  1
  O  O277  1  0.38029214  0.50347238  0.26937268  1
  O  O278  1  0.36576981  0.51247358  0.74296302  1
  O  O279  1  0.87011496  0.00755382  0.25528676  1
  O  O280  1  0.87038613  0.00842788  0.75805655  1
  O  O281  1  0.86781708  0.50361369  0.25579268  1
  O  O282  1  0.87020698  0.50397231  0.75824542  1
  O  O283  1  0.11952760  0.36503871  0.36983166  1
  O  O284  1  0.11695144  0.36796834  0.86944437  1
  O  O285  1  0.12093492  0.87039661  0.37567066  1
  O  O286  1  0.11287745  0.87875930  0.86580958  1
  O  O287  1  0.61789751  0.36157117  0.37221443  1
  O  O288  1  0.61671614  0.37095731  0.86420780  1
  O  O289  1  0.61498815  0.88852731  0.36635971  1
  O  O290  1  0.62317891  0.86595378  0.87207786  1
  O  O291  1  0.38478278  0.13500832  0.12598761  1
  O  O292  1  0.39672322  0.11113085  0.64118114  1
  O  O293  1  0.37705983  0.61857288  0.12790650  1
  O  O294  1  0.38202233  0.63412102  0.63058115  1
  O  O295  1  0.87125688  0.12721275  0.13480340  1
  O  O296  1  0.86988403  0.13419471  0.63792533  1
  O  O297  1  0.87458162  0.63612692  0.12863608  1
  O  O298  1  0.87671996  0.63062416  0.63143383  1
  O  O299  1  0.26222362  0.24971623  0.13063431  1
  O  O300  1  0.24664909  0.26994309  0.63112413  1
  O  O301  1  0.24764582  0.76727895  0.10939065  1
  O  O302  1  0.26216358  0.75011174  0.62016463  1
  O  O303  1  0.76069695  0.24866746  0.11816709  1
  O  O304  1  0.75738392  0.25037149  0.63029978  1
  O  O305  1  0.76200730  0.76295000  0.13210037  1
  O  O306  1  0.75477744  0.75415825  0.61961628  1
  O  O307  1  0.24161329  0.23188668  0.37175225  1
  O  O308  1  0.23317206  0.24793481  0.86973847  1
  O  O309  1  0.24471488  0.74414275  0.38170396  1
  O  O310  1  0.25099958  0.74676243  0.88262756  1
  O  O311  1  0.73858928  0.24270543  0.37214282  1
  O  O312  1  0.74222143  0.24709091  0.88284632  1
  O  O313  1  0.75698902  0.73579881  0.37949858  1
  O  O314  1  0.74274387  0.73841042  0.86906307  1
  O  O315  1  0.01129863  0.12924345  -0.00104838  1
  O  O316  1  0.01271463  0.11353315  0.49305305  1
  O  O317  1  0.00171221  0.61678933  -0.00072470  1
  O  O318  1  0.00584848  0.61701049  0.50036639  1
  O  O319  1  0.51950841  0.13250827  0.01526884  1
  O  O320  1  0.50086691  0.11454635  0.51238800  1
  O  O321  1  0.50972533  0.61225377  -0.00259232  1
  O  O322  1  0.50651613  0.63015737  0.50673640  1
  O  O323  1  0.50425435  0.37162900  0.48961090  1
  O  O324  1  0.50486555  0.38478763  0.98623066  1
  O  O325  1  0.49096504  0.87504945  0.49253444  1
  O  O326  1  0.51020381  0.87184708  0.98612620  1
  O  O327  1  1.00010864  0.37918813  0.48979734  1
  O  O328  1  1.00455368  0.38367824  0.98640901  1
  O  O329  1  0.99433371  0.88186862  0.49524531  1
  O  O330  1  0.98855023  0.87325738  0.98830021  1
  O  O331  1  0.49151167  0.48891215  0.37969035  1
  O  O332  1  0.50179034  0.48752113  0.87556093  1
  O  O333  1  0.48351473  0.99491918  0.36925142  1
  O  O334  1  0.50752621  0.98289350  0.87366458  1
  O  O335  1  0.99264959  0.49029926  0.38131771  1
  O  O336  1  0.99364331  0.49385881  0.87742955  1
  O  O337  1  0.99265500  0.99371685  0.38200622  1
  O  O338  1  0.98767327  0.99116959  0.86653238  1
  O  O339  1  0.01035723  0.00075964  0.12260410  1
  O  O340  1  -0.00819940  -0.00236897  0.61433611  1
  O  O341  1  0.00354246  0.50106332  0.11285235  1
  O  O342  1  0.00820195  0.49989640  0.62045185  1
  O  O343  1  0.51534804  0.00610851  0.12842924  1
  O  O344  1  0.51225297  0.00689187  0.63444325  1
  O  O345  1  0.50076143  0.49246429  0.11016530  1
  O  O346  1  0.49986489  0.51290443  0.62338520  1
  O  O347  1  0.23392199  0.37007933  0.25260112  1
  O  O348  1  0.24677117  0.38476346  0.74861622  1
  O  O349  1  0.24931827  0.86880138  0.23067157  1
  O  O350  1  0.24329949  0.88385709  0.74783098  1
  O  O351  1  0.73642952  0.38180637  0.25531014  1
  O  O352  1  0.74159522  0.38488078  0.75799503  1
  O  O353  1  0.74680213  0.88223052  0.24373320  1
  O  O354  1  0.74634929  0.87908540  0.74499803  1
  O  O355  1  0.24334073  0.12011401  0.25927281  1
  O  O356  1  0.26206314  0.12040649  0.75041514  1
  O  O357  1  0.24397788  0.62967759  0.26401765  1
  O  O358  1  0.25720261  0.62006136  0.75497241  1
  O  O359  1  0.75810228  0.12035058  0.25756124  1
  O  O360  1  0.75948136  0.12147805  0.75787133  1
  O  O361  1  0.75222668  0.61796621  0.25592862  1
  O  O362  1  0.75469438  0.61709799  0.75834137  1
  O  O363  1  0.36314892  0.11022108  0.37230797  1
  O  O364  1  0.36987111  0.14253511  0.85971744  1
  O  O365  1  0.36525510  0.61457016  0.37508117  1
  O  O366  1  0.36865965  0.63375607  0.86063183  1
  O  O367  1  0.86776981  0.12379331  0.36820939  1
  O  O368  1  0.87088724  0.12071470  0.86943760  1
  O  O369  1  0.86570527  0.61761515  0.37009383  1
  O  O370  1  0.86729757  0.61889873  0.87013785  1
  O  O371  1  0.11834863  0.36439634  0.14442962  1
  O  O372  1  0.13394872  0.38082039  0.63027353  1
  O  O373  1  0.12515824  0.88826650  0.12371909  1
  O  O374  1  0.12767020  0.87206456  0.63659642  1
  O  O375  1  0.61626314  0.36714756  0.14075193  1
  O  O376  1  0.61583106  0.37465383  0.63989051  1
  O  O377  1  0.63442539  0.88203100  0.12981745  1
  O  O378  1  0.62958926  0.87962551  0.63077704  1
  O  O379  1  0.11915087  0.25628986  0.26148295  1
  O  O380  1  0.11596451  0.25181140  0.75805799  1
  O  O381  1  0.11789056  0.75524856  0.25787882  1
  O  O382  1  0.12046062  0.76210352  0.75392894  1
  O  O383  1  0.62504164  0.26198422  0.25936802  1
  O  O384  1  0.62638134  0.25707033  0.76031561  1
  O  O385  1  0.63282923  0.76656950  0.25008657  1
  O  O386  1  0.62155363  0.75348368  0.75879952  1
  O  O387  1  0.37909370  0.25269135  0.24067844  1
  O  O388  1  0.37719444  0.23674127  0.73461860  1
  O  O389  1  0.37878578  0.74016313  0.25999407  1
  O  O390  1  0.37924062  0.74379351  0.73999491  1
  O  O391  1  0.86958346  0.24385405  0.23819721  1
  O  O392  1  0.87990152  0.24603498  0.74354287  1
  O  O393  1  0.88038509  0.74553561  0.24173163  1
  O  O394  1  0.88009425  0.74542915  0.74511366  1
  O  O395  1  0.37885530  0.50416453  0.48412432  1
  O  O396  1  0.39148609  0.49526590  0.99568484  1
  O  O397  1  0.36988434  0.99294345  0.50440185  1
  O  O398  1  0.37967837  1.04198379  0.98779554  1
  O  O399  1  0.87983948  0.48982389  0.49626303  1
  O  O400  1  0.88434670  0.50458698  0.98548138  1
  O  O401  1  0.88128479  0.99474820  0.49560901  1
  O  O402  1  0.86956682  0.99426689  0.98933003  1
  O  O403  1  0.12255743  0.01118158  0.00330844  1
  O  O404  1  0.11488964  0.00731693  0.49821389  1
  O  O405  1  0.11214648  0.50618841  -0.00829774  1
  O  O406  1  0.11990906  0.50574113  0.50405939  1
  O  O407  1  0.63763380  0.01162675  0.01174463  1
  O  O408  1  0.63142352  -0.00394344  0.51527928  1
  O  O409  1  0.61447390  0.51103275  -0.00860014  1
  O  O410  1  0.62085499  0.51284212  0.50280741  1
  O  O411  1  0.37919233  0.35996317  0.12405289  1
  O  O412  1  0.36263146  0.37512406  0.62492772  1
  O  O413  1  0.36205675  0.89003462  0.11848519  1
  O  O414  1  0.37920380  0.86737071  0.62120971  1
  O  O415  1  0.87718021  0.36333240  0.13031155  1
  O  O416  1  0.87646011  0.36703562  0.61605624  1
  O  O417  1  0.87004038  0.87205289  0.11900357  1
  O  O418  1  0.86745888  0.86907489  0.62044644  1
  O  O419  1  0.13342940  0.12706049  0.37335859  1
  O  O420  1  0.12073342  0.13094070  0.88400826  1
  O  O421  1  0.13085727  0.63001546  0.38107483  1
  O  O422  1  0.14024784  0.63011111  0.87222868  1
  O  O423  1  0.63317722  0.13670333  0.36827077  1
  O  O424  1  0.62952972  0.13256835  0.88318810  1
  O  O425  1  0.63431047  0.61738686  0.38305774  1
  O  O426  1  0.63204415  0.63017633  0.87690390  1
