# generated using pymatgen
data_V85Zn86O256
_symmetry_space_group_name_H-M   'P 1'
_cell_length_a   16.99340832
_cell_length_b   16.98630046
_cell_length_c   16.97659958
_cell_angle_alpha   90.00997494
_cell_angle_beta   89.93231504
_cell_angle_gamma   89.84213368
_symmetry_Int_Tables_number   1
_chemical_formula_structural   V85Zn86O256
_chemical_formula_sum   'V85 Zn86 O256'
_cell_volume   4900.36062605
_cell_formula_units_Z   1
loop_
 _symmetry_equiv_pos_site_id
 _symmetry_equiv_pos_as_xyz
  1  'x, y, z'
loop_
 _atom_site_type_symbol
 _atom_site_label
 _atom_site_symmetry_multiplicity
 _atom_site_fract_x
 _atom_site_fract_y
 _atom_site_fract_z
 _atom_site_occupancy
  V  V0  1  0.75332093  0.37702021  0.12850574  1
  V  V1  1  0.49330369  0.62644608  0.13271199  1
  V  V2  1  0.87135737  0.12703032  0.75412107  1
  V  V3  1  0.62709872  0.13162984  0.49963268  1
  V  V4  1  0.75040370  0.62443365  0.87555981  1
  V  V5  1  0.75103751  0.50407062  0.25459181  1
  V  V6  1  0.37960986  0.88050338  0.50380942  1
  V  V7  1  0.63029694  0.24469788  0.87787590  1
  V  V8  1  0.62919268  0.49944938  0.62908805  1
  V  V9  1  0.12405815  0.00022525  0.62342425  1
  V  V10  1  0.88193942  0.37714251  -0.00200810  1
  V  V11  1  -0.00093583  0.00281496  -0.00203643  1
  V  V12  1  0.12540995  0.87626014  0.24914032  1
  V  V13  1  0.12857639  0.62572094  0.49618268  1
  V  V14  1  0.62356679  0.87472657  0.75004695  1
  V  V15  1  0.37438411  0.24868705  0.12341703  1
  V  V16  1  -0.00216506  0.62418039  0.11857157  1
  V  V17  1  0.75544061  0.24173822  -0.00386442  1
  V  V18  1  0.13095795  0.49412647  0.62041260  1
  V  V19  1  0.24973625  -0.00096071  0.74808385  1
  V  V20  1  -0.00322074  0.62933989  0.62348883  1
  V  V21  1  0.11932107  0.50118638  0.12100367  1
  V  V22  1  0.62439092  0.12046170  -0.00022112  1
  V  V23  1  0.37459601  0.37457262  0.51070541  1
  V  V24  1  0.50337374  0.62653260  0.62261287  1
  V  V25  1  0.12954488  0.87447841  0.74402814  1
  V  V26  1  0.62589210  0.74309116  0.37074329  1
  V  V27  1  0.50069330  0.24845013  0.75324217  1
  V  V28  1  0.88119232  0.50207832  0.87921397  1
  V  V29  1  0.24679738  0.25051400  -0.00206279  1
  V  V30  1  0.00118676  0.50050396  0.49255997  1
  V  V31  1  -0.00530809  0.25340205  0.74294807  1
  V  V32  1  0.37567988  0.12782712  0.25154720  1
  V  V33  1  0.50075298  0.00170640  0.00488073  1
  V  V34  1  0.25448616  0.61653086  0.87356697  1
  V  V35  1  0.50589490  0.49472671  0.49748811  1
  V  V36  1  0.12740141  0.13041585  0.48726935  1
  V  V37  1  -0.00127366  0.74986050  0.24844273  1
  V  V38  1  0.11635251  0.36192019  0.24875298  1
  V  V39  1  0.86359662  0.00177197  0.36425784  1
  V  V40  1  0.24917787  0.37470497  0.12426695  1
  V  V41  1  0.25010138  0.51047106  0.25609817  1
  V  V42  1  0.24829825  0.75974709  0.50229345  1
  V  V43  1  0.74987089  0.00378810  0.75495776  1
  V  V44  1  0.51189158  0.36373123  0.36289335  1
  V  V45  1  0.25116412  0.49552364  0.73908616  1
  V  V46  1  0.12616351  0.74853074  0.87233149  1
  V  V47  1  -0.00776559  0.12775648  0.62336128  1
  V  V48  1  0.12273380  0.62260984  -0.00238684  1
  V  V49  1  0.75746490  0.87297552  0.62440298  1
  V  V50  1  0.49837401  0.12437400  0.62101297  1
  V  V51  1  0.37398068  -0.00011087  0.87704347  1
  V  V52  1  0.49391123  0.37600960  0.88455146  1
  V  V53  1  0.37521740  0.62024800  0.74969766  1
  V  V54  1  -0.00366045  0.87831241  0.37577749  1
  V  V55  1  0.74676582  0.87643806  0.14022402  1
  V  V56  1  0.62366057  0.74880991  0.87383431  1
  V  V57  1  0.87655308  0.36714502  0.50301187  1
  V  V58  1  -0.00059808  0.75050385  0.74672040  1
  V  V59  1  0.24854266  0.00483515  0.25412769  1
  V  V60  1  0.24980552  0.87577332  0.12513300  1
  V  V61  1  0.87596895  0.62888483  0.74802840  1
  V  V62  1  0.75320746  0.74478974  0.50247816  1
  V  V63  1  0.62116917  -0.00077808  0.61882235  1
  V  V64  1  0.50562855  0.88317009  0.37302421  1
  V  V65  1  0.37129033  0.75455028  0.62481037  1
  V  V66  1  0.49989934  0.87322911  0.87665500  1
  V  V67  1  -0.00371659  0.12699002  0.13657775  1
  V  V68  1  0.88101841  0.24805520  0.13541796  1
  V  V69  1  0.62789929  0.49976824  0.12748095  1
  V  V70  1  0.74819346  0.12986366  0.36273456  1
  V  V71  1  0.62786841  0.37336794  0.75380132  1
  V  V72  1  0.75562480  0.36646351  0.62566446  1
  V  V73  1  0.37502017  0.12435557  0.75170413  1
  V  V74  1  0.87261686  0.62514138  0.25558853  1
  V  V75  1  0.12931442  0.74844839  0.37487898  1
  V  V76  1  0.62455603  -0.00397854  0.14208622  1
  V  V77  1  0.48983441  0.49368676  -0.00118008  1
  V  V78  1  0.37479323  0.87295906  0.00360113  1
  V  V79  1  0.37008764  0.00596246  0.38144180  1
  V  V80  1  0.25178428  0.74927365  -0.00035545  1
  V  V81  1  -0.00148342  0.36032121  0.37018850  1
  V  V82  1  -0.00427193  0.87705734  0.87484211  1
  V  V83  1  0.62502051  0.62537428  -0.00099858  1
  V  V84  1  0.00534613  0.37656076  0.87136203  1
  Zn  Zn85  1  0.75099342  0.24888899  0.49733274  1
  Zn  Zn86  1  0.86746308  0.00568662  0.87935629  1
  Zn  Zn87  1  0.53684338  0.17379136  0.17488209  1
  Zn  Zn88  1  0.12260459  0.12498355  -0.00325825  1
  Zn  Zn89  1  0.25054539  0.24352831  0.49671159  1
  Zn  Zn90  1  0.87106069  0.75218574  0.12395280  1
  Zn  Zn91  1  0.87005122  0.87538958  0.00264831  1
  Zn  Zn92  1  0.63303186  0.62133409  0.49768277  1
  Zn  Zn93  1  0.49874883  0.75006009  0.74969130  1
  Zn  Zn94  1  0.75341728  0.49845348  0.75191433  1
  Zn  Zn95  1  0.12481204  0.00237282  0.12372772  1
  Zn  Zn96  1  0.12520312  0.24674278  0.86984229  1
  Zn  Zn97  1  0.86718771  0.50170101  0.37809974  1
  Zn  Zn98  1  0.35840700  0.25659707  0.63365525  1
  Zn  Zn99  1  0.49406783  0.75072698  0.25473090  1
  Zn  Zn100  1  -0.00582430  0.00140685  0.49999480  1
  Zn  Zn101  1  0.24674814  0.12567888  0.87637753  1
  Zn  Zn102  1  0.87463065  0.87509954  0.50242256  1
  Zn  Zn103  1  0.13494109  0.36866262  0.74014612  1
  Zn  Zn104  1  0.38102602  0.50890803  0.36450045  1
  Zn  Zn105  1  0.75146486  0.75478778  0.00077499  1
  Zn  Zn106  1  0.36733916  0.74461122  0.14083205  1
  Zn  Zn107  1  0.18661282  0.18322438  0.18516050  1
  Zn  Zn108  1  0.18449186  0.18726784  0.68184990  1
  Zn  Zn109  1  0.18531059  0.68871348  0.18683356  1
  Zn  Zn110  1  0.18797653  0.68381741  0.68339890  1
  Zn  Zn111  1  0.69779584  0.19164142  0.18287257  1
  Zn  Zn112  1  0.68616531  0.18613698  0.68672524  1
  Zn  Zn113  1  0.68571528  0.68917269  0.18839047  1
  Zn  Zn114  1  0.69048701  0.68915966  0.68856107  1
  Zn  Zn115  1  0.34122061  0.30369133  0.32983185  1
  Zn  Zn116  1  0.31522188  0.31367622  0.81528175  1
  Zn  Zn117  1  0.31547625  0.81447937  0.31362572  1
  Zn  Zn118  1  0.31313423  0.81071942  0.81367519  1
  Zn  Zn119  1  0.81321971  0.31523189  0.31614307  1
  Zn  Zn120  1  0.81531944  0.31218481  0.81168936  1
  Zn  Zn121  1  0.81086760  0.80969064  0.31455518  1
  Zn  Zn122  1  0.80946498  0.81156094  0.81186763  1
  Zn  Zn123  1  0.21411534  0.39048180  0.40779533  1
  Zn  Zn124  1  0.18908894  0.43675813  0.93732280  1
  Zn  Zn125  1  0.18660129  0.93923633  0.43923743  1
  Zn  Zn126  1  0.18505411  0.93716375  0.93601809  1
  Zn  Zn127  1  0.68530484  0.43038819  0.43764528  1
  Zn  Zn128  1  0.68894845  0.43609933  0.94051212  1
  Zn  Zn129  1  0.68871477  0.93732974  0.43882832  1
  Zn  Zn130  1  0.68746807  0.93333098  0.94125591  1
  Zn  Zn131  1  0.31130704  0.06530888  0.06437340  1
  Zn  Zn132  1  0.30759514  0.06647160  0.56572221  1
  Zn  Zn133  1  0.30974635  0.55966468  0.06431779  1
  Zn  Zn134  1  0.32863413  0.57842309  0.52908284  1
  Zn  Zn135  1  0.81324802  0.05774059  0.06927359  1
  Zn  Zn136  1  0.81104073  0.05818710  0.55767171  1
  Zn  Zn137  1  0.81433118  0.56455741  0.06243506  1
  Zn  Zn138  1  0.81492940  0.55876073  0.56323888  1
  Zn  Zn139  1  0.43417713  0.43789878  0.18554439  1
  Zn  Zn140  1  0.44328301  0.43691328  0.69118185  1
  Zn  Zn141  1  0.43654484  0.93784215  0.19065431  1
  Zn  Zn142  1  0.43912732  0.93870585  0.68884807  1
  Zn  Zn143  1  0.93650348  0.43990420  0.18684062  1
  Zn  Zn144  1  0.93918731  0.44284158  0.68561638  1
  Zn  Zn145  1  0.93444114  0.93962344  0.18683838  1
  Zn  Zn146  1  0.93746571  0.94134692  0.69021267  1
  Zn  Zn147  1  0.05820217  0.06012962  0.31089423  1
  Zn  Zn148  1  0.06151543  0.06577604  0.81229649  1
  Zn  Zn149  1  0.06377415  0.56108800  0.30861328  1
  Zn  Zn150  1  0.06588293  0.55987701  0.80886061  1
  Zn  Zn151  1  0.55975664  0.06310556  0.32270353  1
  Zn  Zn152  1  0.56265402  0.06078759  0.81342492  1
  Zn  Zn153  1  0.56796769  0.55914782  0.31290231  1
  Zn  Zn154  1  0.56018676  0.55908072  0.81370516  1
  Zn  Zn155  1  0.44140337  0.19018803  0.43954634  1
  Zn  Zn156  1  0.43784502  0.18805590  0.94121133  1
  Zn  Zn157  1  0.43609509  0.68880321  0.42919176  1
  Zn  Zn158  1  0.43760937  0.68551595  0.94062644  1
  Zn  Zn159  1  0.93461570  0.18130754  0.43602194  1
  Zn  Zn160  1  0.94007983  0.18907495  0.93495422  1
  Zn  Zn161  1  0.93758598  0.68991424  0.43578200  1
  Zn  Zn162  1  0.93612501  0.69296249  0.93812172  1
  Zn  Zn163  1  0.06255592  0.31014995  0.06105219  1
  Zn  Zn164  1  0.06191313  0.31049651  0.55876567  1
  Zn  Zn165  1  0.06353733  0.81192587  0.06076864  1
  Zn  Zn166  1  0.05973978  0.81372225  0.56184086  1
  Zn  Zn167  1  0.57230057  0.30945123  0.07579555  1
  Zn  Zn168  1  0.56179762  0.31092155  0.56484008  1
  Zn  Zn169  1  0.56407755  0.81292428  0.06569915  1
  Zn  Zn170  1  0.56418983  0.81203299  0.55835773  1
  O  O171  1  0.10870641  0.12307549  0.12068252  1
  O  O172  1  0.11203768  0.11437168  0.61998503  1
  O  O173  1  0.11706196  0.61971466  0.11860966  1
  O  O174  1  0.11470346  0.61917986  0.61629877  1
  O  O175  1  0.62660247  0.10608752  0.11647174  1
  O  O176  1  0.61891971  0.11749166  0.62027883  1
  O  O177  1  0.61811840  0.61863517  0.11642384  1
  O  O178  1  0.61949033  0.61621443  0.62979606  1
  O  O179  1  0.39281393  0.38946165  0.39218001  1
  O  O180  1  0.39498166  0.36816801  0.87701760  1
  O  O181  1  0.38242687  0.88411263  0.38548340  1
  O  O182  1  0.37939447  0.87953465  0.88207482  1
  O  O183  1  0.88151411  0.38138353  0.38360896  1
  O  O184  1  0.88250922  0.38306501  0.87915331  1
  O  O185  1  0.88079523  0.88334290  0.37311878  1
  O  O186  1  0.88872628  0.87586456  0.87012215  1
  O  O187  1  0.25908663  -0.00898775  0.36478600  1
  O  O188  1  0.25510289  -0.00048242  0.86521620  1
  O  O189  1  0.24199285  0.49083227  0.35631950  1
  O  O190  1  0.24409402  0.51213063  0.86482373  1
  O  O191  1  0.75822529  0.00486005  0.37568978  1
  O  O192  1  0.74802678  -0.00750114  0.85890823  1
  O  O193  1  0.74613750  0.49279265  0.35869860  1
  O  O194  1  0.76163121  0.50492927  0.87434287  1
  O  O195  1  0.24102183  0.49355476  0.13079164  1
  O  O196  1  0.23970660  0.51197971  0.63088520  1
  O  O197  1  0.24883033  0.99402291  0.13550811  1
  O  O198  1  0.23776560  1.00381284  0.63818656  1
  O  O199  1  0.74800552  0.49558406  0.13006262  1
  O  O200  1  0.74116391  0.49234000  0.62636107  1
  O  O201  1  0.73630908  0.98956659  0.12499319  1
  O  O202  1  0.74066153  0.99126360  0.63337564  1
  O  O203  1  0.00776097  0.38032402  0.25432683  1
  O  O204  1  -0.00266623  0.36852111  0.75432320  1
  O  O205  1  0.00449842  0.87091190  0.25652189  1
  O  O206  1  0.00821404  0.87115375  0.75540123  1
  O  O207  1  0.49653889  0.38716334  0.26541607  1
  O  O208  1  0.50943883  0.36937197  0.76152885  1
  O  O209  1  0.49463228  0.87384047  0.26975682  1
  O  O210  1  0.50560068  0.87395279  0.75845128  1
  O  O211  1  0.48340399  0.11636561  0.25347975  1
  O  O212  1  0.49525055  0.12866110  0.74549995  1
  O  O213  1  0.50414715  0.61837419  0.23412924  1
  O  O214  1  0.49172519  0.62317140  0.74113615  1
  O  O215  1  0.99868480  0.12118169  0.23524251  1
  O  O216  1  0.99210789  0.13248200  0.74217982  1
  O  O217  1  0.99391070  0.63000638  0.24007544  1
  O  O218  1  0.99599647  0.62930375  0.74261387  1
  O  O219  1  0.35957084  0.24138919  0.01269577  1
  O  O220  1  0.37814441  0.26565780  0.50266763  1
  O  O221  1  0.36804476  0.75566220  0.00291785  1
  O  O222  1  0.36634410  0.75962615  0.50590496  1
  O  O223  1  0.86989879  0.25759072  0.00102309  1
  O  O224  1  0.87713419  0.26465984  0.49905826  1
  O  O225  1  0.87084449  0.75531543  0.00578196  1
  O  O226  1  0.85719584  0.75485867  0.48816444  1
  O  O227  1  0.12083012  0.23307800  0.50012628  1
  O  O228  1  0.13487948  0.24948477  0.99640348  1
  O  O229  1  0.12898691  0.74742626  0.49465796  1
  O  O230  1  0.13203932  0.74358036  0.99200064  1
  O  O231  1  0.62805746  0.23587775  0.50527187  1
  O  O232  1  0.63523049  0.24042545  0.99601077  1
  O  O233  1  0.63468695  0.74673673  0.49288902  1
  O  O234  1  0.62207001  0.73733295  0.99382044  1
  O  O235  1  0.47404404  0.25251058  0.10912900  1
  O  O236  1  0.50523269  0.23676329  0.63671728  1
  O  O237  1  0.50397395  0.73409541  0.12793624  1
  O  O238  1  0.49367572  0.74129282  0.62500252  1
  O  O239  1  0.99346835  0.23537345  0.11662796  1
  O  O240  1  1.00282521  0.24112227  0.63300588  1
  O  O241  1  1.00158911  0.74116340  0.13152456  1
  O  O242  1  1.00424159  0.73747761  0.62900740  1
  O  O243  1  -0.00974241  0.26161041  0.37422515  1
  O  O244  1  -0.00007438  0.26131075  0.86318823  1
  O  O245  1  0.00656508  0.76011627  0.36943076  1
  O  O246  1  0.00710847  0.75731312  0.86762405  1
  O  O247  1  0.49124151  0.26373349  0.36859273  1
  O  O248  1  0.51157001  0.25521417  0.87515578  1
  O  O249  1  0.51057376  0.75983330  0.38002532  1
  O  O250  1  0.50518314  0.75464331  0.87363999  1
  O  O251  1  0.23113629  0.12033144  0.49913137  1
  O  O252  1  0.24452328  0.13417372  0.99986172  1
  O  O253  1  0.23232489  0.63966808  0.50578960  1
  O  O254  1  0.24595712  0.62725494  0.99109718  1
  O  O255  1  0.74272189  0.12808140  0.49643206  1
  O  O256  1  0.74287517  0.13433328  1.00795916  1
  O  O257  1  0.75162423  0.63954138  0.50815877  1
  O  O258  1  0.73975779  0.62594087  0.99541711  1
  O  O259  1  0.24201373  0.36802252  0.01415750  1
  O  O260  1  0.27643642  0.39505871  0.50736557  1
  O  O261  1  0.25405188  0.86996623  0.00404785  1
  O  O262  1  0.25701994  0.86578820  0.49998566  1
  O  O263  1  0.76270241  0.36740584  0.00689656  1
  O  O264  1  0.75932770  0.37373593  0.50673239  1
  O  O265  1  0.75129742  0.87324034  0.01073872  1
  O  O266  1  0.74852912  0.86659966  0.51004965  1
  O  O267  1  0.12923028  0.49673263  0.23613213  1
  O  O268  1  0.13348425  0.49896396  0.73730413  1
  O  O269  1  0.13322831  0.99452307  0.25022498  1
  O  O270  1  0.12999689  0.99344887  0.74404263  1
  O  O271  1  0.63720940  0.50908031  0.23529637  1
  O  O272  1  0.62790561  0.49313028  0.74359705  1
  O  O273  1  0.61807599  1.00352028  0.23987665  1
  O  O274  1  0.63178774  0.99612540  0.74225901  1
  O  O275  1  0.36663656  0.00645010  0.25885962  1
  O  O276  1  0.36665405  0.00204681  0.75487126  1
  O  O277  1  0.35517348  0.49634230  0.24813916  1
  O  O278  1  0.36796643  0.51346795  0.73795275  1
  O  O279  1  0.87556655  -0.00041880  0.26515936  1
  O  O280  1  0.86619147  0.00814355  0.75239668  1
  O  O281  1  0.86747581  0.50807395  0.25027713  1
  O  O282  1  0.87580393  0.51174081  0.75969474  1
  O  O283  1  0.11194285  0.37783172  0.35542133  1
  O  O284  1  0.11283535  0.37843676  0.87028279  1
  O  O285  1  0.11533570  0.86953923  0.37080820  1
  O  O286  1  0.11606176  0.86952307  0.86449596  1
  O  O287  1  0.61227078  0.37092178  0.37710440  1
  O  O288  1  0.62314952  0.36341567  0.87335749  1
  O  O289  1  0.60909103  0.87245393  0.38469809  1
  O  O290  1  0.61895950  0.86869279  0.87013803  1
  O  O291  1  0.36896593  0.13695658  0.13631187  1
  O  O292  1  0.38527160  0.12303165  0.63163422  1
  O  O293  1  0.39093182  0.62506924  0.11830657  1
  O  O294  1  0.38425554  0.63532911  0.62761041  1
  O  O295  1  0.88611398  0.13303279  0.11982324  1
  O  O296  1  0.88653299  0.11616533  0.63174541  1
  O  O297  1  0.88431895  0.62585810  0.13191108  1
  O  O298  1  0.88644428  0.61608697  0.63587851  1
  O  O299  1  0.25176913  0.25601032  0.11793705  1
  O  O300  1  0.24889709  0.24595829  0.61283447  1
  O  O301  1  0.24872130  0.75584628  0.11754445  1
  O  O302  1  0.26100343  0.74596233  0.61667609  1
  O  O303  1  0.76468828  0.25850721  0.11311940  1
  O  O304  1  0.74574572  0.26403952  0.62396016  1
  O  O305  1  0.74485368  0.76401816  0.12423008  1
  O  O306  1  0.74309487  0.75992011  0.61279667  1
  O  O307  1  0.24968102  0.28246975  0.38976358  1
  O  O308  1  0.24903157  0.25237279  0.88576758  1
  O  O309  1  0.23531500  0.75901797  0.38430570  1
  O  O310  1  0.24474499  0.73947005  0.87823760  1
  O  O311  1  0.75743991  0.23394851  0.37670868  1
  O  O312  1  0.74320068  0.25642838  0.88615558  1
  O  O313  1  0.73329666  0.76088814  0.38705022  1
  O  O314  1  0.74129729  0.74234817  0.87596546  1
  O  O315  1  -0.00058845  0.11406761  0.00103316  1
  O  O316  1  0.00578587  0.12283465  0.50801309  1
  O  O317  1  0.00668640  0.63192256  0.00953530  1
  O  O318  1  0.00390212  0.62139126  0.50536680  1
  O  O319  1  0.51276449  0.11795977  0.00009005  1
  O  O320  1  0.50870168  0.12862105  0.51195324  1
  O  O321  1  0.50825006  0.61529357  0.00601560  1
  O  O322  1  0.50616067  0.61605371  0.51468619  1
  O  O323  1  0.50286772  0.38065954  0.49389043  1
  O  O324  1  0.51458980  0.38339516  0.99633568  1
  O  O325  1  0.48687985  0.87116092  0.49155456  1
  O  O326  1  0.49522565  0.88016386  0.99613009  1
  O  O327  1  0.99568150  0.38183567  0.49154286  1
  O  O328  1  0.98923904  0.36772011  0.98790524  1
  O  O329  1  0.99669607  0.87439452  0.48769282  1
  O  O330  1  1.00000164  0.88201879  0.99016645  1
  O  O331  1  0.50707006  0.49743996  0.38777059  1
  O  O332  1  0.50865879  0.48890826  0.88702819  1
  O  O333  1  0.48898665  0.98910765  0.37810927  1
  O  O334  1  0.49433464  0.99338955  0.88294404  1
  O  O335  1  1.00143230  0.49573177  0.38531880  1
  O  O336  1  0.99054411  0.49198331  0.86777737  1
  O  O337  1  0.98920357  0.99040601  0.37453041  1
  O  O338  1  0.99947923  0.99114572  0.87989166  1
  O  O339  1  -0.00334174  0.01081177  0.11695358  1
  O  O340  1  0.00830467  0.00752907  0.62591655  1
  O  O341  1  0.00757158  0.51250996  0.12807979  1
  O  O342  1  0.00798139  0.50969557  0.61488053  1
  O  O343  1  0.51434543  -0.01070159  0.11836754  1
  O  O344  1  0.51061411  0.01142724  0.63327326  1
  O  O345  1  0.50886556  0.50598685  0.11915058  1
  O  O346  1  0.51481253  0.50491261  0.62257732  1
  O  O347  1  0.22860861  0.38371267  0.23589679  1
  O  O348  1  0.25277691  0.39108746  0.75579931  1
  O  O349  1  0.24485756  0.88312888  0.24520930  1
  O  O350  1  0.23837149  0.88286045  0.75585510  1
  O  O351  1  0.76022768  0.38452336  0.23421294  1
  O  O352  1  0.74736264  0.37669154  0.74291678  1
  O  O353  1  0.74836995  0.87212500  0.23955131  1
  O  O354  1  0.74378511  0.88017865  0.74208806  1
  O  O355  1  0.25632146  0.11297752  0.24782647  1
  O  O356  1  0.25601257  0.11468712  0.75143341  1
  O  O357  1  0.23956558  0.61020057  0.24774083  1
  O  O358  1  0.25625158  0.61819684  0.75446637  1
  O  O359  1  0.74163973  0.12681866  0.26339002  1
  O  O360  1  0.75936535  0.11540212  0.73953769  1
  O  O361  1  0.76128837  0.61675080  0.24083172  1
  O  O362  1  0.76058816  0.62377989  0.75516738  1
  O  O363  1  0.37929417  0.11357060  0.37201269  1
  O  O364  1  0.37473177  0.11698157  0.86973742  1
  O  O365  1  0.36538232  0.60620521  0.41937409  1
  O  O366  1  0.36602959  0.63129543  0.86213702  1
  O  O367  1  0.86147519  0.11212113  0.37892833  1
  O  O368  1  0.87916512  0.12404115  0.85924474  1
  O  O369  1  0.88274940  0.62131114  0.36000769  1
  O  O370  1  0.87317528  0.61857506  0.87018370  1
  O  O371  1  0.12164564  0.38337193  0.13049112  1
  O  O372  1  0.11788224  0.39017606  0.62115331  1
  O  O373  1  0.13044042  0.87663614  0.13219737  1
  O  O374  1  0.11625106  0.88445332  0.63522357  1
  O  O375  1  0.64386854  0.39408327  0.11015835  1
  O  O376  1  0.63293628  0.38191704  0.63208633  1
  O  O377  1  0.63339314  0.88543623  0.12383497  1
  O  O378  1  0.62848556  0.88258443  0.62938067  1
  O  O379  1  0.12264736  0.26398049  0.23888297  1
  O  O380  1  0.11233803  0.25335628  0.74905001  1
  O  O381  1  0.12019981  0.75526486  0.25861768  1
  O  O382  1  0.12191715  0.75647584  0.75101292  1
  O  O383  1  0.60938942  0.25782005  0.17882134  1
  O  O384  1  0.62258373  0.25183718  0.76092467  1
  O  O385  1  0.62085153  0.74648652  0.26720249  1
  O  O386  1  0.62260962  0.75615705  0.75557609  1
  O  O387  1  0.36674243  0.23920697  0.23922719  1
  O  O388  1  0.38252995  0.24247815  0.75148140  1
  O  O389  1  0.37960046  0.74636959  0.25377696  1
  O  O390  1  0.37414869  0.74082456  0.74065187  1
  O  O391  1  0.87207235  0.25745304  0.23366299  1
  O  O392  1  0.88411599  0.24216223  0.75088638  1
  O  O393  1  0.87977594  0.74151231  0.24822392  1
  O  O394  1  0.88194871  0.73589864  0.75680747  1
  O  O395  1  0.39922740  0.48714732  0.51888510  1
  O  O396  1  0.39037518  0.49929807  1.00726557  1
  O  O397  1  0.36174101  0.99040271  0.49481027  1
  O  O398  1  0.38075726  0.99499398  0.99806903  1
  O  O399  1  0.88586253  0.49385044  0.49795771  1
  O  O400  1  0.87184130  0.49047618  0.99030532  1
  O  O401  1  0.87655345  0.99373623  0.48722328  1
  O  O402  1  0.88420335  0.99699725  0.99644802  1
  O  O403  1  0.11212688  -0.00145641  0.00252531  1
  O  O404  1  0.12127958  0.00482081  0.50974681  1
  O  O405  1  0.13098891  0.50641375  0.01253959  1
  O  O406  1  0.11534283  0.51222551  0.50459857  1
  O  O407  1  0.61920075  0.00800440  -0.00170338  1
  O  O408  1  0.63100077  0.00879145  0.51388635  1
  O  O409  1  0.62295416  0.51118841  0.00711353  1
  O  O410  1  0.62280396  0.50103259  0.51117045  1
  O  O411  1  0.36008110  0.36001475  0.13542788  1
  O  O412  1  0.39391301  0.36783835  0.61627863  1
  O  O413  1  0.36832526  0.87305023  0.11994761  1
  O  O414  1  0.38449037  0.86406545  0.61903459  1
  O  O415  1  0.87440810  0.37053263  0.11456119  1
  O  O416  1  0.86622017  0.38562308  0.61592315  1
  O  O417  1  0.85940234  0.87677658  0.12672043  1
  O  O418  1  0.86187214  0.87989648  0.62624489  1
  O  O419  1  0.11463010  0.11725792  0.38926286  1
  O  O420  1  0.12810540  0.12903357  0.87715726  1
  O  O421  1  0.11266042  0.63886045  0.38426643  1
  O  O422  1  0.13229768  0.62881246  0.87681103  1
  O  O423  1  0.63872602  0.11432152  0.38650464  1
  O  O424  1  0.62310850  0.13578136  0.88313884  1
  O  O425  1  0.62003944  0.63911347  0.37992944  1
  O  O426  1  0.62901804  0.62723832  0.88078499  1
