# generated using pymatgen
data_V85Zn86O256
_symmetry_space_group_name_H-M   'P 1'
_cell_length_a   16.94630957
_cell_length_b   16.94922567
_cell_length_c   16.93461162
_cell_angle_alpha   90.07834137
_cell_angle_beta   89.97139879
_cell_angle_gamma   90.04419209
_symmetry_Int_Tables_number   1
_chemical_formula_structural   V85Zn86O256
_chemical_formula_sum   'V85 Zn86 O256'
_cell_volume   4864.06813592
_cell_formula_units_Z   1
loop_
 _symmetry_equiv_pos_site_id
 _symmetry_equiv_pos_as_xyz
  1  'x, y, z'
loop_
 _atom_site_type_symbol
 _atom_site_label
 _atom_site_symmetry_multiplicity
 _atom_site_fract_x
 _atom_site_fract_y
 _atom_site_fract_z
 _atom_site_occupancy
  V  V0  1  0.74742763  0.00287678  0.75339254  1
  V  V1  1  0.63528643  -0.00462549  0.12452976  1
  V  V2  1  0.75231084  0.50084710  0.25475052  1
  V  V3  1  -0.00176364  0.49981993  -0.00135169  1
  V  V4  1  0.88012787  0.74866855  0.13070094  1
  V  V5  1  0.37384857  0.49698869  0.37212513  1
  V  V6  1  0.12297325  0.26198025  0.37222071  1
  V  V7  1  0.62263467  -0.00162000  0.62571101  1
  V  V8  1  0.12356303  0.75191309  0.87309358  1
  V  V9  1  0.75378750  0.86867482  0.62675711  1
  V  V10  1  0.37194524  0.35675845  0.00211434  1
  V  V11  1  0.24768505  0.37380869  0.62643919  1
  V  V12  1  0.25260471  0.75728186  -0.00012086  1
  V  V13  1  0.62735000  0.62147002  -0.00176796  1
  V  V14  1  0.24842546  0.62619911  0.37119113  1
  V  V15  1  0.62237464  0.63012367  0.49481688  1
  V  V16  1  0.88130932  0.00201932  0.38151866  1
  V  V17  1  0.13036532  -0.00076146  0.62361623  1
  V  V18  1  0.49414749  0.74884342  0.75408003  1
  V  V19  1  0.87795458  0.12639863  0.25260872  1
  V  V20  1  0.86989347  0.12647410  0.75223223  1
  V  V21  1  -0.00120293  0.24996823  0.75324918  1
  V  V22  1  0.13872672  0.12855351  -0.00286780  1
  V  V23  1  0.13103486  0.87878149  0.24964788  1
  V  V24  1  0.86825371  0.25040786  0.61898944  1
  V  V25  1  0.24910919  0.11916520  0.36916019  1
  V  V26  1  -0.00266013  0.87671553  0.87582433  1
  V  V27  1  0.63260590  0.86779048  0.25328959  1
  V  V28  1  0.00241053  0.12576889  0.12538480  1
  V  V29  1  0.25033277  0.00497305  0.76249333  1
  V  V30  1  0.87135120  0.00299363  0.87686230  1
  V  V31  1  0.13353541  0.00145050  0.12827644  1
  V  V32  1  0.88927367  0.49820193  0.38166342  1
  V  V33  1  0.50590144  0.12009930  0.12184446  1
  V  V34  1  0.37346020  -0.00304883  0.37022106  1
  V  V35  1  0.74546285  0.75104321  0.49494784  1
  V  V36  1  0.75144151  0.12916458  0.37666542  1
  V  V37  1  0.62894391  0.74420193  0.87310583  1
  V  V38  1  0.37917432  0.75701569  0.12393046  1
  V  V39  1  0.37531542  0.12252815  0.24451461  1
  V  V40  1  0.87477974  0.25243982  0.12048870  1
  V  V41  1  0.25471196  0.62607892  0.86865031  1
  V  V42  1  0.50402041  0.86521463  0.37714843  1
  V  V43  1  0.37000570  0.12234283  0.76812322  1
  V  V44  1  0.37608788  0.50191942  0.87946481  1
  V  V45  1  0.86872723  0.87630655  0.00569237  1
  V  V46  1  -0.00891601  0.75092986  0.73858356  1
  V  V47  1  0.12870169  0.49695629  0.12878922  1
  V  V48  1  0.25120788  0.50051161  0.75018374  1
  V  V49  1  0.75097321  0.74785005  0.00081131  1
  V  V50  1  0.13927757  0.24490167  0.87741544  1
  V  V51  1  0.48851117  0.62210909  0.62721445  1
  V  V52  1  0.36810300  0.74276996  0.62660762  1
  V  V53  1  0.62852480  0.12788306  0.50087357  1
  V  V54  1  0.24865546  0.35846246  0.12239615  1
  V  V55  1  -0.00004634  0.87476601  0.37337441  1
  V  V56  1  0.87138590  0.51008709  0.87272196  1
  V  V57  1  0.50176505  0.25058457  0.75213171  1
  V  V58  1  -0.00175349  0.60557018  0.61945882  1
  V  V59  1  0.00589247  0.26683685  0.25332630  1
  V  V60  1  0.74923348  0.50752208  0.75168218  1
  V  V61  1  0.49820689  0.24633060  0.24425363  1
  V  V62  1  0.87861420  0.87317255  0.50384387  1
  V  V63  1  0.11804850  0.74870361  0.36741594  1
  V  V64  1  0.49817153  -0.01134196  -0.00510885  1
  V  V65  1  0.75277684  0.37267731  0.12076240  1
  V  V66  1  0.63381362  0.24825935  0.88646492  1
  V  V67  1  0.49789757  0.37273061  0.37303855  1
  V  V68  1  0.37658606  0.62646033  0.24592727  1
  V  V69  1  0.62201798  0.49912068  0.62375815  1
  V  V70  1  0.62633455  0.37347476  0.24985696  1
  V  V71  1  0.62767982  0.24818088  0.37626210  1
  V  V72  1  0.12424295  0.62564649  -0.00010911  1
  V  V73  1  0.25015785  0.24713636  0.49922518  1
  V  V74  1  0.12512704  0.37690756  0.75095583  1
  V  V75  1  0.12004492  0.11902971  0.49727554  1
  V  V76  1  -0.00164815  0.11968522  0.62177780  1
  V  V77  1  0.12849096  0.87768817  0.74365009  1
  V  V78  1  0.74842161  0.37484371  0.61585043  1
  V  V79  1  0.50010265  -0.00054450  0.50276499  1
  V  V80  1  0.61969912  0.87413032  0.75540568  1
  V  V81  1  0.37260575  0.87598012  0.51021752  1
  V  V82  1  0.89143886  0.37838363  0.49944837  1
  V  V83  1  0.24651319  0.75481685  0.49972684  1
  V  V84  1  0.37479435  0.24383254  0.62521812  1
  Zn  Zn85  1  0.74717349  0.13052604  0.90540392  1
  Zn  Zn86  1  0.50797209  0.74629773  0.25309895  1
  Zn  Zn87  1  0.24619270  0.48858316  0.24809897  1
  Zn  Zn88  1  0.38352655  0.87819385  -0.04277847  1
  Zn  Zn89  1  0.74651868  0.62645787  0.37397102  1
  Zn  Zn90  1  0.37436631  0.37245987  0.49808920  1
  Zn  Zn91  1  0.25715056  0.88219386  0.12807686  1
  Zn  Zn92  1  0.86444412  0.63574691  0.74552859  1
  Zn  Zn93  1  0.00026017  0.00151307  0.00142306  1
  Zn  Zn94  1  0.11191090  0.61293227  0.49958897  1
  Zn  Zn95  1  0.50368459  0.62373555  0.12450767  1
  Zn  Zn96  1  0.50280398  0.37626800  0.87916393  1
  Zn  Zn97  1  0.62525349  0.37488669  0.75073002  1
  Zn  Zn98  1  0.88031123  0.63157875  0.25961639  1
  Zn  Zn99  1  -0.00119939  0.37682468  0.87507242  1
  Zn  Zn100  1  0.49863419  0.49989062  0.00389901  1
  Zn  Zn101  1  0.62467930  0.50076253  0.12538224  1
  Zn  Zn102  1  0.86986502  0.37375622  -0.00667590  1
  Zn  Zn103  1  0.75504454  -0.00324732  0.24924132  1
  Zn  Zn104  1  0.49905831  0.12094252  0.62782876  1
  Zn  Zn105  1  0.00561490  0.63013382  0.13685425  1
  Zn  Zn106  1  0.49585391  0.49822462  0.49957571  1
  Zn  Zn107  1  0.18602964  0.18677223  0.19016806  1
  Zn  Zn108  1  0.18770222  0.18524233  0.69061899  1
  Zn  Zn109  1  0.18913962  0.69104063  0.18625809  1
  Zn  Zn110  1  0.18014516  0.68599460  0.68467085  1
  Zn  Zn111  1  0.69075069  0.18423435  0.18360535  1
  Zn  Zn112  1  0.68613673  0.18786772  0.68878996  1
  Zn  Zn113  1  0.69589125  0.68765119  0.18298044  1
  Zn  Zn114  1  0.68076305  0.68710373  0.68084171  1
  Zn  Zn115  1  0.30977499  0.30701722  0.30724873  1
  Zn  Zn116  1  0.31735822  0.31314850  0.81388388  1
  Zn  Zn117  1  0.31351167  0.81271506  0.31226680  1
  Zn  Zn118  1  0.30923953  0.81399423  0.80775779  1
  Zn  Zn119  1  0.81750146  0.31498185  0.31249298  1
  Zn  Zn120  1  0.81069990  0.32150025  0.80921686  1
  Zn  Zn121  1  0.81254123  0.81281381  0.31680144  1
  Zn  Zn122  1  0.80880102  0.81524902  0.81643972  1
  Zn  Zn123  1  0.18494223  0.44109752  0.44137903  1
  Zn  Zn124  1  0.18844470  0.43288773  0.93868716  1
  Zn  Zn125  1  0.18715764  0.93702994  0.43719432  1
  Zn  Zn126  1  0.18227815  0.94081739  0.93946145  1
  Zn  Zn127  1  0.68790372  0.43810826  0.43763762  1
  Zn  Zn128  1  0.68702185  0.43568261  0.93357320  1
  Zn  Zn129  1  0.69023268  0.94025254  0.43620055  1
  Zn  Zn130  1  0.68498484  0.93709035  0.93760209  1
  Zn  Zn131  1  0.31905950  0.06103742  0.05527527  1
  Zn  Zn132  1  0.30952465  0.06112034  0.56372936  1
  Zn  Zn133  1  0.30993866  0.56301055  0.06172905  1
  Zn  Zn134  1  0.28476618  0.55176515  0.54842920  1
  Zn  Zn135  1  0.81372264  0.06384798  0.06276371  1
  Zn  Zn136  1  0.80941952  0.05870255  0.56417013  1
  Zn  Zn137  1  0.81025458  0.56470783  0.06330359  1
  Zn  Zn138  1  0.81449606  0.56619147  0.56384116  1
  Zn  Zn139  1  0.43594293  0.43640895  0.18205531  1
  Zn  Zn140  1  0.43270304  0.43554260  0.69077998  1
  Zn  Zn141  1  0.44689856  0.93567952  0.18890091  1
  Zn  Zn142  1  0.43187470  0.93481603  0.70189597  1
  Zn  Zn143  1  0.93784028  0.44441199  0.18668772  1
  Zn  Zn144  1  0.93353951  0.43697643  0.68943218  1
  Zn  Zn145  1  0.94206728  0.93789547  0.19053574  1
  Zn  Zn146  1  0.93694671  0.93976502  0.68910497  1
  Zn  Zn147  1  0.06114968  0.06258500  0.31037363  1
  Zn  Zn148  1  0.06175648  0.06417565  0.81255319  1
  Zn  Zn149  1  0.06004268  0.56353098  0.30933064  1
  Zn  Zn150  1  0.06165933  0.56498665  0.81030818  1
  Zn  Zn151  1  0.56319581  0.05618165  0.31259562  1
  Zn  Zn152  1  0.56339591  0.06907305  0.81440830  1
  Zn  Zn153  1  0.56097949  0.55983940  0.31019874  1
  Zn  Zn154  1  0.55955867  0.56464048  0.81157624  1
  Zn  Zn155  1  0.43963615  0.18540277  0.43598251  1
  Zn  Zn156  1  0.44868913  0.18350016  0.93926350  1
  Zn  Zn157  1  0.43336299  0.68396230  0.44119476  1
  Zn  Zn158  1  0.43936840  0.68827660  0.93895636  1
  Zn  Zn159  1  0.94008892  0.19324800  0.43723927  1
  Zn  Zn160  1  0.93942002  0.18546129  0.93898442  1
  Zn  Zn161  1  0.93286425  0.68768112  0.44257131  1
  Zn  Zn162  1  0.93689788  0.68898464  0.93610856  1
  Zn  Zn163  1  0.06293474  0.31217379  0.06065854  1
  Zn  Zn164  1  0.06502545  0.30731828  0.56420260  1
  Zn  Zn165  1  0.06164698  0.81473007  0.06396134  1
  Zn  Zn166  1  0.06265312  0.81157863  0.55737534  1
  Zn  Zn167  1  0.56124669  0.31550284  0.06407050  1
  Zn  Zn168  1  0.55856234  0.31183117  0.56090216  1
  Zn  Zn169  1  0.56462126  0.81227804  0.06487355  1
  Zn  Zn170  1  0.55958629  0.81192769  0.56720693  1
  O  O171  1  0.12035469  0.12035410  0.11998160  1
  O  O172  1  0.11777268  0.12071410  0.61766063  1
  O  O173  1  0.12838507  0.61997949  0.11356956  1
  O  O174  1  0.10194510  0.63603743  0.62161298  1
  O  O175  1  0.61698245  0.10665516  0.13730885  1
  O  O176  1  0.62466179  0.11840392  0.61639138  1
  O  O177  1  0.62673831  0.62517361  0.11303956  1
  O  O178  1  0.61156715  0.61648321  0.61654698  1
  O  O179  1  0.37700897  0.38147308  0.36962303  1
  O  O180  1  0.37357598  0.38161637  0.88891903  1
  O  O181  1  0.38103970  0.88097500  0.38349056  1
  O  O182  1  0.38878435  0.87675238  0.84728817  1
  O  O183  1  0.87211967  0.38584804  0.38644100  1
  O  O184  1  0.87833642  0.38895275  0.87579592  1
  O  O185  1  0.88134653  0.88227994  0.38119019  1
  O  O186  1  0.88072587  0.88136555  0.88265963  1
  O  O187  1  0.26047272  0.00877550  0.38029892  1
  O  O188  1  0.24437669  -0.00271128  0.86194308  1
  O  O189  1  0.25693103  0.50849275  0.36570031  1
  O  O190  1  0.25454460  0.50746499  0.87116256  1
  O  O191  1  0.76120047  0.01129890  0.37330722  1
  O  O192  1  0.75335621  0.00369645  0.87071722  1
  O  O193  1  0.75424678  0.50055009  0.36603490  1
  O  O194  1  0.75701668  0.49562181  0.86233794  1
  O  O195  1  0.24166114  0.49571423  0.12470281  1
  O  O196  1  0.26497772  0.48458858  0.64109982  1
  O  O197  1  0.23797938  0.99874597  0.11763677  1
  O  O198  1  0.23496466  1.00422461  0.63282894  1
  O  O199  1  0.75391882  0.49195766  0.13828610  1
  O  O200  1  0.74019937  0.49503679  0.62842211  1
  O  O201  1  0.73864553  0.99915863  0.12916012  1
  O  O202  1  0.74195576  0.99006230  0.63215082  1
  O  O203  1  0.00061767  0.36566004  0.24446208  1
  O  O204  1  0.00945976  0.36577673  0.74591625  1
  O  O205  1  0.01006592  0.87711365  0.26510220  1
  O  O206  1  0.00373400  0.86921193  0.75802253  1
  O  O207  1  0.50382023  0.36431304  0.25146851  1
  O  O208  1  0.49699011  0.36147358  0.75337740  1
  O  O209  1  0.51053773  0.87044673  0.26151269  1
  O  O210  1  0.51243586  0.86072621  0.73601190  1
  O  O211  1  0.49471553  0.12752725  0.24595644  1
  O  O212  1  0.48963233  0.13228757  0.74792784  1
  O  O213  1  0.49006999  0.62875651  0.24971675  1
  O  O214  1  0.50241533  0.63490130  0.73667182  1
  O  O215  1  0.99745964  0.13187607  0.24062553  1
  O  O216  1  0.99215540  0.13271914  0.74266142  1
  O  O217  1  0.99209688  0.62618272  0.24839981  1
  O  O218  1  1.00237460  0.64106916  0.74200743  1
  O  O219  1  0.37821168  0.25822093  -0.00469727  1
  O  O220  1  0.36965597  0.24692902  0.50742524  1
  O  O221  1  0.36868585  0.75487690  0.00508666  1
  O  O222  1  0.36881940  0.75901820  0.50679727  1
  O  O223  1  0.88859718  0.25604278  0.01657941  1
  O  O224  1  0.88033379  0.25864290  0.51253241  1
  O  O225  1  0.86889287  0.75703539  0.00238550  1
  O  O226  1  0.86359835  0.76514956  0.49837754  1
  O  O227  1  0.12930675  0.23798945  0.49266959  1
  O  O228  1  0.11740561  0.24133766  0.98813535  1
  O  O229  1  0.13365405  0.74948369  0.48938105  1
  O  O230  1  0.13188530  0.74520765  0.99520715  1
  O  O231  1  0.61774825  0.23647532  0.49330550  1
  O  O232  1  0.61895500  0.25521121  0.98516177  1
  O  O233  1  0.63124088  0.74134415  0.50906346  1
  O  O234  1  0.63146100  0.74663887  0.99259476  1
  O  O235  1  0.51050184  0.23707353  0.13696798  1
  O  O236  1  0.49044244  0.24774195  0.63270015  1
  O  O237  1  0.48991031  0.74650723  0.12699996  1
  O  O238  1  0.48958672  0.74045128  0.63001091  1
  O  O239  1  0.99801839  0.24441881  0.13408173  1
  O  O240  1  0.99341792  0.24020064  0.63455618  1
  O  O241  1  0.98536722  0.74809944  0.11643176  1
  O  O242  1  0.99603415  0.76045370  0.63854291  1
  O  O243  1  0.01095348  0.24578586  0.36583597  1
  O  O244  1  -0.00028431  0.25204516  0.86143751  1
  O  O245  1  0.00999249  0.75783600  0.38275600  1
  O  O246  1  0.00437793  0.75921060  0.86725003  1
  O  O247  1  0.50638176  0.25191930  0.36495815  1
  O  O248  1  0.51084773  0.24969614  0.86621091  1
  O  O249  1  0.49307546  0.76166345  0.37754623  1
  O  O250  1  0.50770919  0.74310818  0.86083254  1
  O  O251  1  0.24136063  0.12805445  0.49090314  1
  O  O252  1  0.23798523  0.12349965  1.00412548  1
  O  O253  1  0.26441993  0.64491919  0.47962565  1
  O  O254  1  0.24190899  0.63543094  0.99047456  1
  O  O255  1  0.73886160  0.11894635  0.49150946  1
  O  O256  1  0.75071435  0.13797478  1.01511790  1
  O  O257  1  0.74008441  0.63546233  0.50582175  1
  O  O258  1  0.74060723  0.63549897  1.00051721  1
  O  O259  1  0.26247755  0.37543072  0.00682927  1
  O  O260  1  0.25207667  0.36504688  0.51157467  1
  O  O261  1  0.25171373  0.86383184  -0.00480711  1
  O  O262  1  0.25947752  0.86517914  0.49341116  1
  O  O263  1  0.75165988  0.38359721  0.01638887  1
  O  O264  1  0.75716227  0.37894697  0.51218985  1
  O  O265  1  0.76152209  0.86612669  -0.00682438  1
  O  O266  1  0.75318006  0.86974107  0.50724643  1
  O  O267  1  0.12533258  0.50408241  0.23335171  1
  O  O268  1  0.13568733  0.48623768  0.75986259  1
  O  O269  1  0.12188544  0.99311310  0.24034636  1
  O  O270  1  0.12923911  0.99691926  0.74386711  1
  O  O271  1  0.63529396  0.49294873  0.25072175  1
  O  O272  1  0.62852331  0.50032137  0.73887496  1
  O  O273  1  0.62591046  0.98843086  0.24264719  1
  O  O274  1  0.62588800  0.99201689  0.74735937  1
  O  O275  1  0.38327545  0.00573730  0.26301496  1
  O  O276  1  0.36164700  0.01271704  0.74002938  1
  O  O277  1  0.37331736  0.50960794  0.25495706  1
  O  O278  1  0.36191129  0.49102364  0.76618215  1
  O  O279  1  0.87629585  0.00628032  0.26081765  1
  O  O280  1  0.86789799  0.00560915  0.75687455  1
  O  O281  1  0.86847444  0.49584143  0.26583539  1
  O  O282  1  0.86585511  0.50238049  0.75642644  1
  O  O283  1  0.13399387  0.36107335  0.38208080  1
  O  O284  1  0.12244066  0.36430682  0.86713397  1
  O  O285  1  0.11879455  0.87076664  0.37045406  1
  O  O286  1  0.11459645  0.87338937  0.86651568  1
  O  O287  1  0.61947285  0.36841701  0.37044461  1
  O  O288  1  0.62149293  0.36533656  0.86939211  1
  O  O289  1  0.61548635  0.88263143  0.36611145  1
  O  O290  1  0.62755054  0.86417033  0.86212331  1
  O  O291  1  0.38539308  0.11298570  0.13831501  1
  O  O292  1  0.37431340  0.13538351  0.62824437  1
  O  O293  1  0.37163930  0.63508927  0.13218860  1
  O  O294  1  0.38085384  0.63074063  0.61256412  1
  O  O295  1  0.88546625  0.13250164  0.13269073  1
  O  O296  1  0.87937214  0.13105690  0.62714283  1
  O  O297  1  0.87573678  0.64120164  0.12282100  1
  O  O298  1  0.89093342  0.62114315  0.63082725  1
  O  O299  1  0.24259257  0.25947052  0.12112163  1
  O  O300  1  0.25638221  0.25324848  0.62198328  1
  O  O301  1  0.25748016  0.75365835  0.11369485  1
  O  O302  1  0.25580923  0.73882650  0.61253725  1
  O  O303  1  0.76399392  0.26092414  0.13772769  1
  O  O304  1  0.76009028  0.25973541  0.63227023  1
  O  O305  1  0.76336845  0.75247154  0.10997044  1
  O  O306  1  0.74688571  0.76286980  0.61958715  1
  O  O307  1  0.24372118  0.23842913  0.37840646  1
  O  O308  1  0.23783657  0.25013921  0.86856935  1
  O  O309  1  0.24019368  0.74655163  0.37809518  1
  O  O310  1  0.24446119  0.74356459  0.87753135  1
  O  O311  1  0.74619584  0.23709551  0.36920823  1
  O  O312  1  0.73766756  0.25551581  0.86868322  1
  O  O313  1  0.75080545  0.74727134  0.38980881  1
  O  O314  1  0.73901739  0.75175296  0.88282982  1
  O  O315  1  0.00573632  0.12505008  0.01446185  1
  O  O316  1  0.00927298  0.13108236  0.50964608  1
  O  O317  1  0.01244103  0.61951095  -0.00276808  1
  O  O318  1  -0.00418642  0.62351523  0.51363760  1
  O  O319  1  0.49639725  0.11322515  0.01623436  1
  O  O320  1  0.51015065  0.11682055  0.49970484  1
  O  O321  1  0.51345315  0.62526806  0.00078518  1
  O  O322  1  0.50457916  0.62186051  0.50858719  1
  O  O323  1  0.49380792  0.37677635  0.49019728  1
  O  O324  1  0.48414007  0.37789458  1.00155237  1
  O  O325  1  0.49236464  0.87889703  0.49615215  1
  O  O326  1  0.50033282  0.88370842  1.00134409  1
  O  O327  1  0.99125080  0.37580797  0.51008050  1
  O  O328  1  0.99944160  0.39026227  0.99830169  1
  O  O329  1  0.98995739  0.87193075  0.48901031  1
  O  O330  1  0.99295459  0.87475799  0.98776930  1
  O  O331  1  0.48912080  0.49176363  0.37279518  1
  O  O332  1  0.48828022  0.49930666  0.87444456  1
  O  O333  1  0.49095446  0.99098453  0.38313035  1
  O  O334  1  0.51715236  1.00721507  0.89827210  1
  O  O335  1  0.98817240  0.50099026  0.37673540  1
  O  O336  1  0.99323270  0.50113770  0.88075488  1
  O  O337  1  0.98979558  0.99385503  0.37505732  1
  O  O338  1  0.99206842  0.99091529  0.87342736  1
  O  O339  1  0.00926443  0.01092161  0.12603232  1
  O  O340  1  0.00802379  0.01449135  0.63324456  1
  O  O341  1  0.00822811  0.50425381  0.11379145  1
  O  O342  1  0.00512597  0.50700131  0.63338006  1
  O  O343  1  0.51056100  0.00306509  0.11916765  1
  O  O344  1  0.50485666  -0.00197538  0.62052204  1
  O  O345  1  0.50542024  0.50439522  0.12262430  1
  O  O346  1  0.50244900  0.50432665  0.62611415  1
  O  O347  1  0.25850867  0.37283574  0.22866508  1
  O  O348  1  0.24325648  0.37838739  0.74662886  1
  O  O349  1  0.23609454  0.87407207  0.25033899  1
  O  O350  1  0.23261404  0.88211254  0.74800143  1
  O  O351  1  0.74598730  0.38165374  0.24535435  1
  O  O352  1  0.74811646  0.38871364  0.73413900  1
  O  O353  1  0.73589602  0.87861593  0.26190876  1
  O  O354  1  0.74185582  0.88026015  0.74470494  1
  O  O355  1  0.26041289  0.12981980  0.26009383  1
  O  O356  1  0.25687860  0.11785502  0.74969309  1
  O  O357  1  0.25857855  0.62872766  0.25918029  1
  O  O358  1  0.23823224  0.61488494  0.75905407  1
  O  O359  1  0.75940857  0.12241259  0.25955678  1
  O  O360  1  0.75684018  0.11694570  0.74473535  1
  O  O361  1  0.75667556  0.61567657  0.25223009  1
  O  O362  1  0.74788910  0.61297080  0.73815930  1
  O  O363  1  0.36918094  0.11607727  0.36913222  1
  O  O364  1  0.37825817  0.12688612  0.86691703  1
  O  O365  1  0.36999497  0.61872689  0.36496536  1
  O  O366  1  0.36182874  0.61981888  0.87950720  1
  O  O367  1  0.87139623  0.12078138  0.37539704  1
  O  O368  1  0.87144759  0.12125565  0.86998942  1
  O  O369  1  0.86938867  0.61100774  0.38028454  1
  O  O370  1  0.87866337  0.61493668  0.86832396  1
  O  O371  1  0.14042255  0.38399015  0.11128220  1
  O  O372  1  0.13817261  0.36264405  0.63753269  1
  O  O373  1  0.12385376  0.88359070  0.13222973  1
  O  O374  1  0.11140304  0.88816588  0.63248015  1
  O  O375  1  0.63558603  0.37451278  0.13247361  1
  O  O376  1  0.62952008  0.38309971  0.62254058  1
  O  O377  1  0.62021003  0.88420950  0.14168162  1
  O  O378  1  0.63351550  0.87847252  0.63359349  1
  O  O379  1  0.11783695  0.24511420  0.26098556  1
  O  O380  1  0.11706425  0.25337145  0.75708892  1
  O  O381  1  0.12726190  0.75887399  0.25976606  1
  O  O382  1  0.11477134  0.76085336  0.75248345  1
  O  O383  1  0.61797348  0.25208915  0.25635617  1
  O  O384  1  0.61372488  0.25219126  0.75048720  1
  O  O385  1  0.62793932  0.76296127  0.24417316  1
  O  O386  1  0.61795453  0.75403843  0.75443351  1
  O  O387  1  0.38811012  0.23559845  0.25567302  1
  O  O388  1  0.37998544  0.24141858  0.74522397  1
  O  O389  1  0.37536782  0.74160632  0.24304985  1
  O  O390  1  0.37875958  0.75054311  0.73386516  1
  O  O391  1  0.88715080  0.24602866  0.24508398  1
  O  O392  1  0.88140082  0.24843751  0.74019363  1
  O  O393  1  0.86662158  0.75540794  0.23345791  1
  O  O394  1  0.88747100  0.75328247  0.75764214  1
  O  O395  1  0.37065203  0.49767113  0.48250688  1
  O  O396  1  0.37411675  0.49925802  0.98910471  1
  O  O397  1  0.37769569  0.99305837  0.49466598  1
  O  O398  1  0.39164385  0.99090359  1.00352765  1
  O  O399  1  0.86995862  0.49310620  0.48920672  1
  O  O400  1  0.88316454  0.50475501  0.99255737  1
  O  O401  1  0.86787312  0.98841889  0.49087263  1
  O  O402  1  0.87806588  0.99137981  0.99686110  1
  O  O403  1  0.11952621  0.00891456  0.00834992  1
  O  O404  1  0.12920924  0.01034839  0.50721488  1
  O  O405  1  0.11990152  0.50846634  0.00309710  1
  O  O406  1  0.17440911  0.52176761  0.51342626  1
  O  O407  1  0.61924337  -0.01276503  0.01890622  1
  O  O408  1  0.62014555  0.00641553  0.50495146  1
  O  O409  1  0.62593910  0.51101654  -0.00201072  1
  O  O410  1  0.62264266  0.50711596  0.51104206  1
  O  O411  1  0.36393186  0.37543526  0.11100661  1
  O  O412  1  0.36535441  0.35995486  0.62714726  1
  O  O413  1  0.37364087  0.86336449  0.13503528  1
  O  O414  1  0.37814442  0.86572361  0.61481618  1
  O  O415  1  0.86934555  0.36895201  0.12606401  1
  O  O416  1  0.86859181  0.36977334  0.61860530  1
  O  O417  1  0.88456105  0.86745974  0.11369735  1
  O  O418  1  0.86435993  0.88629400  0.61688160  1
  O  O419  1  0.13203386  0.12521288  0.38081852  1
  O  O420  1  0.11625972  0.13277810  0.88504724  1
  O  O421  1  0.13257193  0.63202107  0.37452562  1
  O  O422  1  0.13298045  0.63041929  0.88198769  1
  O  O423  1  0.63265925  0.12584262  0.38035578  1
  O  O424  1  0.63181444  0.14315432  0.86910939  1
  O  O425  1  0.62366132  0.61707295  0.39091539  1
  O  O426  1  0.62265934  0.63552013  0.88127071  1
