# generated using pymatgen
data_V85Zn86O256
_symmetry_space_group_name_H-M   'P 1'
_cell_length_a   16.95676500
_cell_length_b   16.95111433
_cell_length_c   16.96115830
_cell_angle_alpha   89.88977765
_cell_angle_beta   90.01768446
_cell_angle_gamma   90.06725661
_symmetry_Int_Tables_number   1
_chemical_formula_structural   V85Zn86O256
_chemical_formula_sum   'V85 Zn86 O256'
_cell_volume   4875.23594474
_cell_formula_units_Z   1
loop_
 _symmetry_equiv_pos_site_id
 _symmetry_equiv_pos_as_xyz
  1  'x, y, z'
loop_
 _atom_site_type_symbol
 _atom_site_label
 _atom_site_symmetry_multiplicity
 _atom_site_fract_x
 _atom_site_fract_y
 _atom_site_fract_z
 _atom_site_occupancy
  V  V0  1  0.00418553  0.50480942  0.49986208  1
  V  V1  1  -0.00162773  0.75460007  0.24226775  1
  V  V2  1  0.62375264  0.62917966  -0.00302256  1
  V  V3  1  0.61813793  0.12050194  -0.00286872  1
  V  V4  1  0.61814125  0.37130905  0.24937338  1
  V  V5  1  -0.00018023  0.12541645  0.62445239  1
  V  V6  1  0.13240319  0.00133627  0.13482572  1
  V  V7  1  0.37716889  0.61734715  0.25609074  1
  V  V8  1  0.76421928  0.74830084  -0.00139886  1
  V  V9  1  0.49855626  0.13970990  0.13120720  1
  V  V10  1  0.74827419  0.12438018  0.87376018  1
  V  V11  1  0.62516615  0.87611068  0.74892307  1
  V  V12  1  -0.00229292  0.87626452  0.88280821  1
  V  V13  1  0.37434549  0.75488845  0.61300818  1
  V  V14  1  -0.00060748  0.87548785  0.37506222  1
  V  V15  1  0.49149609  -0.00480695  0.49956857  1
  V  V16  1  0.12385388  0.50602553  0.62329549  1
  V  V17  1  0.01226709  0.61596374  0.12356202  1
  V  V18  1  0.87228411  -0.00217374  0.37945262  1
  V  V19  1  0.25403250  0.87660032  0.61753310  1
  V  V20  1  0.50034691  0.74278932  0.24788753  1
  V  V21  1  -0.00632199  0.63410591  0.62347562  1
  V  V22  1  0.76244972  0.75499985  0.50367812  1
  V  V23  1  0.25451160  0.25289241  0.49856847  1
  V  V24  1  0.87435399  0.50149177  0.37514890  1
  V  V25  1  0.62228484  0.26457009  0.87236930  1
  V  V26  1  0.61547132  -0.00307966  0.12042729  1
  V  V27  1  0.12542805  0.37998496  0.24200991  1
  V  V28  1  0.38212846  0.37223569  -0.00389214  1
  V  V29  1  0.24985151  0.50051098  0.75152553  1
  V  V30  1  0.87846082  0.38127912  0.00189938  1
  V  V31  1  0.38132322  0.24537038  0.62256232  1
  V  V32  1  -0.00492536  0.25088237  0.24217876  1
  V  V33  1  0.24345587  0.61966457  0.38296790  1
  V  V34  1  0.12538017  0.00072587  0.62473999  1
  V  V35  1  0.50420848  0.26229360  0.75139757  1
  V  V36  1  0.75120515  0.62737672  0.37699501  1
  V  V37  1  0.25115745  0.12174173  0.36427408  1
  V  V38  1  0.37650042  0.12546769  0.75155627  1
  V  V39  1  0.37477529  0.62600815  0.75237573  1
  V  V40  1  0.50084500  0.88183794  0.87872314  1
  V  V41  1  -0.00029620  0.37572584  0.37363995  1
  V  V42  1  0.49980690  0.50125160  -0.00530309  1
  V  V43  1  0.37717904  0.73926387  0.12521435  1
  V  V44  1  0.36769168  0.00283758  0.87637932  1
  V  V45  1  0.12923890  0.87547237  0.75161760  1
  V  V46  1  0.74739465  0.49374200  0.75558317  1
  V  V47  1  0.76333734  0.87142417  0.12053334  1
  V  V48  1  0.75047083  0.50075302  0.25020986  1
  V  V49  1  0.62443529  0.75040532  0.37617811  1
  V  V50  1  0.87352194  0.12661495  0.75041110  1
  V  V51  1  0.25685173  0.36704109  0.12474649  1
  V  V52  1  0.74938372  -0.00066586  0.24864531  1
  V  V53  1  0.12423754  0.74882563  0.87896959  1
  V  V54  1  0.49195480  0.87028773  0.37883657  1
  V  V55  1  0.87159689  0.37520709  0.50155551  1
  V  V56  1  -0.00496087  -0.00335058  0.50168622  1
  V  V57  1  0.50116857  0.61998876  0.62198752  1
  V  V58  1  0.25056901  0.62320797  0.87650220  1
  V  V59  1  0.75407141  0.25001655  0.00178009  1
  V  V60  1  0.24920065  0.74637731  0.00299086  1
  V  V61  1  0.86829705  0.63253812  0.75560093  1
  V  V62  1  0.87306107  0.13074890  0.24296659  1
  V  V63  1  0.25104711  0.49973394  0.24540522  1
  V  V64  1  0.61899751  0.50582694  0.12439556  1
  V  V65  1  0.87426234  0.25097086  0.62396612  1
  V  V66  1  0.49239059  0.38734094  0.38016279  1
  V  V67  1  0.87449511  0.63125451  0.24146102  1
  V  V68  1  0.61857633  0.00284768  0.62447667  1
  V  V69  1  0.25992982  0.24140172  -0.00503551  1
  V  V70  1  0.61725359  0.12409487  0.50097109  1
  V  V71  1  0.62328405  0.62071652  0.50290707  1
  V  V72  1  0.74602050  0.12550835  0.37433911  1
  V  V73  1  0.12338984  0.37376176  0.74984709  1
  V  V74  1  0.37109245  -0.00136735  0.36288822  1
  V  V75  1  0.00134915  0.38174843  0.87947609  1
  V  V76  1  0.12546186  0.24967546  0.37436534  1
  V  V77  1  0.37886777  0.87745209  0.00133052  1
  V  V78  1  0.87520404  -0.00143394  0.88148214  1
  V  V79  1  0.49865499  0.75033797  0.75229088  1
  V  V80  1  0.61414316  0.24867184  0.37118745  1
  V  V81  1  0.62402271  0.87361774  0.24885057  1
  V  V82  1  0.75403908  0.37074640  0.12624893  1
  V  V83  1  0.12431487  0.12364392  -0.00828585  1
  V  V84  1  0.76064237  0.87271914  0.62210080  1
  Zn  Zn85  1  0.00056124  0.25147881  0.75125658  1
  Zn  Zn86  1  0.24766596  0.01207183  0.75194013  1
  Zn  Zn87  1  -0.00289831  0.12597483  0.12204297  1
  Zn  Zn88  1  -0.00607564  0.75445651  0.74691524  1
  Zn  Zn89  1  0.74458997  0.25006261  0.50056337  1
  Zn  Zn90  1  0.87569824  0.50647791  0.88001248  1
  Zn  Zn91  1  0.25170065  0.37593054  0.62362427  1
  Zn  Zn92  1  -0.00325747  -0.00285299  0.00535675  1
  Zn  Zn93  1  0.12069486  0.74292320  0.37933355  1
  Zn  Zn94  1  0.74145708  0.37265783  0.63163681  1
  Zn  Zn95  1  0.37802142  0.14168301  0.24375230  1
  Zn  Zn96  1  0.25694770  0.87986920  0.13773155  1
  Zn  Zn97  1  0.38152507  0.49461724  0.87091877  1
  Zn  Zn98  1  0.12589539  0.12559805  0.50031312  1
  Zn  Zn99  1  0.62275920  0.49095368  0.62890789  1
  Zn  Zn100  1  0.12735755  0.24549451  0.87021857  1
  Zn  Zn101  1  0.10186353  0.58240368  -0.01423966  1
  Zn  Zn102  1  0.37681499  0.38976601  0.50098919  1
  Zn  Zn103  1  0.13406252  0.87609061  0.25476007  1
  Zn  Zn104  1  0.63057036  0.74778548  0.87574437  1
  Zn  Zn105  1  0.24179940  0.74635623  0.50070437  1
  Zn  Zn106  1  0.74987110  -0.00039342  0.74835020  1
  Zn  Zn107  1  0.18597749  0.18928602  0.18194199  1
  Zn  Zn108  1  0.19187239  0.18755448  0.68566582  1
  Zn  Zn109  1  0.18747124  0.69225969  0.19406308  1
  Zn  Zn110  1  0.18645239  0.68960114  0.68822895  1
  Zn  Zn111  1  0.68258277  0.18672726  0.18671746  1
  Zn  Zn112  1  0.68567509  0.18840039  0.68683617  1
  Zn  Zn113  1  0.68939326  0.68942309  0.18386245  1
  Zn  Zn114  1  0.68890832  0.68914836  0.68572053  1
  Zn  Zn115  1  0.31632522  0.30992956  0.30977125  1
  Zn  Zn116  1  0.31236866  0.31120839  0.81291791  1
  Zn  Zn117  1  0.31216822  0.80570955  0.31539071  1
  Zn  Zn118  1  0.31263938  0.81346987  0.81246059  1
  Zn  Zn119  1  0.80789681  0.31145933  0.31548008  1
  Zn  Zn120  1  0.81450483  0.31306845  0.81654090  1
  Zn  Zn121  1  0.81282129  0.81289759  0.31246322  1
  Zn  Zn122  1  0.81180024  0.81386467  0.81381080  1
  Zn  Zn123  1  0.18980698  0.43871999  0.43273925  1
  Zn  Zn124  1  0.19274850  0.43150655  0.93618749  1
  Zn  Zn125  1  0.18543222  0.93970137  0.43753851  1
  Zn  Zn126  1  0.18987490  0.93613655  0.94275685  1
  Zn  Zn127  1  0.68367273  0.43638675  0.43830833  1
  Zn  Zn128  1  0.69171648  0.44390676  0.93835478  1
  Zn  Zn129  1  0.68468509  0.93559702  0.43918451  1
  Zn  Zn130  1  0.69037455  0.93559588  0.93843423  1
  Zn  Zn131  1  0.31541472  0.06222145  0.06362591  1
  Zn  Zn132  1  0.31131728  0.06594922  0.56056024  1
  Zn  Zn133  1  0.30760268  0.55646266  0.06213240  1
  Zn  Zn134  1  0.31199957  0.56481120  0.56919018  1
  Zn  Zn135  1  0.80616179  0.06094652  0.06227864  1
  Zn  Zn136  1  0.80613055  0.06192788  0.56375822  1
  Zn  Zn137  1  0.80945093  0.56359382  0.06379475  1
  Zn  Zn138  1  0.81011412  0.56376514  0.56792143  1
  Zn  Zn139  1  0.43665336  0.43183238  0.18461268  1
  Zn  Zn140  1  0.43414597  0.43555456  0.68362707  1
  Zn  Zn141  1  0.43673596  0.93447146  0.18825712  1
  Zn  Zn142  1  0.43576487  0.93955799  0.68939564  1
  Zn  Zn143  1  0.93642843  0.43955411  0.18646331  1
  Zn  Zn144  1  0.93435107  0.44248077  0.69019424  1
  Zn  Zn145  1  0.94235849  0.94447701  0.18915254  1
  Zn  Zn146  1  0.94006694  0.94042016  0.69540882  1
  Zn  Zn147  1  0.05949214  0.06572903  0.31344664  1
  Zn  Zn148  1  0.05932471  0.06077304  0.81091400  1
  Zn  Zn149  1  0.06190538  0.56231185  0.30665012  1
  Zn  Zn150  1  0.05958860  0.56332778  0.80787796  1
  Zn  Zn151  1  0.55981682  0.05858232  0.31079730  1
  Zn  Zn152  1  0.55661787  0.06739659  0.81020622  1
  Zn  Zn153  1  0.56846614  0.56322648  0.31021693  1
  Zn  Zn154  1  0.56663786  0.56216805  0.81471604  1
  Zn  Zn155  1  0.43550822  0.18545506  0.43335569  1
  Zn  Zn156  1  0.44157702  0.18585296  0.93403975  1
  Zn  Zn157  1  0.43635892  0.56779576  0.43978446  1
  Zn  Zn158  1  0.44069195  0.68497046  0.93945172  1
  Zn  Zn159  1  0.93652272  0.18565995  0.43576951  1
  Zn  Zn160  1  0.93986898  0.19226287  0.93490547  1
  Zn  Zn161  1  0.93877601  0.68797704  0.43505823  1
  Zn  Zn162  1  0.94093127  0.68813243  0.93899865  1
  Zn  Zn163  1  0.06793095  0.31445097  0.05852524  1
  Zn  Zn164  1  0.06194990  0.31545452  0.56214856  1
  Zn  Zn165  1  0.06266408  0.81314718  0.06641914  1
  Zn  Zn166  1  0.06639442  0.81429462  0.55699030  1
  Zn  Zn167  1  0.56679060  0.31460665  0.05867077  1
  Zn  Zn168  1  0.55932431  0.31195756  0.56151187  1
  Zn  Zn169  1  0.56353739  0.81092088  0.06452312  1
  Zn  Zn170  1  0.56589942  0.80962275  0.56190602  1
  O  O171  1  0.12400501  0.11537458  0.11612250  1
  O  O172  1  0.11892653  0.11925900  0.62443645  1
  O  O173  1  0.11265824  0.62895446  0.13047649  1
  O  O174  1  0.11207835  0.61338678  0.63384675  1
  O  O175  1  0.61819639  0.11708823  0.11773093  1
  O  O176  1  0.62951188  0.11372766  0.61459911  1
  O  O177  1  0.63196919  0.61286919  0.11811983  1
  O  O178  1  0.61597753  0.62893590  0.61815496  1
  O  O179  1  0.39064472  0.37506112  0.37221866  1
  O  O180  1  0.36940191  0.37734778  0.89038403  1
  O  O181  1  0.38505074  0.88106378  0.37093091  1
  O  O182  1  0.38233105  0.87926930  0.88084197  1
  O  O183  1  0.87986751  0.38065997  0.38092854  1
  O  O184  1  0.88399194  0.37662051  0.88489144  1
  O  O185  1  0.88282449  0.88969915  0.36787382  1
  O  O186  1  0.88652279  0.88611560  0.86528015  1
  O  O187  1  0.25996698  0.01007583  0.38425765  1
  O  O188  1  0.26310093  -0.00962315  0.87054087  1
  O  O189  1  0.24869027  0.50752343  0.36043724  1
  O  O190  1  0.25258271  0.50679649  0.86694776  1
  O  O191  1  0.75415017  0.00289957  0.36980175  1
  O  O192  1  0.75789602  0.00457016  0.87278750  1
  O  O193  1  0.75415564  0.50654887  0.36982737  1
  O  O194  1  0.75502329  0.50042498  0.86178955  1
  O  O195  1  0.25221618  0.48672286  0.13762482  1
  O  O196  1  0.23827729  0.50044803  0.63193904  1
  O  O197  1  0.23712308  1.00047619  0.12190296  1
  O  O198  1  0.24470496  0.99426663  0.62665960  1
  O  O199  1  0.74091281  0.49000378  0.12995923  1
  O  O200  1  0.75027104  0.49775749  0.63889287  1
  O  O201  1  0.74020586  0.98926619  0.12861960  1
  O  O202  1  0.73587592  0.99138068  0.62535363  1
  O  O203  1  0.00506251  0.37048521  0.25349355  1
  O  O204  1  0.00804578  0.37673316  0.75650657  1
  O  O205  1  -0.00059149  0.86945715  0.25727045  1
  O  O206  1  0.01285217  0.87351143  0.75803966  1
  O  O207  1  0.51265452  0.38283980  0.25949966  1
  O  O208  1  0.49552761  0.36156476  0.75032778  1
  O  O209  1  0.50443318  0.86626163  0.25794958  1
  O  O210  1  0.50660716  0.86838136  0.75631550  1
  O  O211  1  0.50540648  0.12396887  0.23446161  1
  O  O212  1  0.48527337  0.13611109  0.75095801  1
  O  O213  1  0.49298229  0.63358420  0.25787841  1
  O  O214  1  0.49786790  0.63564918  0.74661472  1
  O  O215  1  0.98965028  0.13489323  0.25083340  1
  O  O216  1  0.99249320  0.12763845  0.74244517  1
  O  O217  1  0.99312943  0.63348244  0.24343596  1
  O  O218  1  0.99138757  0.62654693  0.73778660  1
  O  O219  1  0.36626953  0.25187529  -0.00534925  1
  O  O220  1  0.36970214  0.24882933  0.50560076  1
  O  O221  1  0.37065753  0.75403996  0.00726716  1
  O  O222  1  0.36848045  0.74980851  0.51492747  1
  O  O223  1  0.85947607  0.25730792  -0.00471170  1
  O  O224  1  0.87503764  0.25767138  0.50574210  1
  O  O225  1  0.86305914  0.74708481  -0.00036529  1
  O  O226  1  0.86163394  0.74830065  0.49463671  1
  O  O227  1  0.13143355  0.25310233  0.48894477  1
  O  O228  1  0.13523338  0.23708993  0.99985184  1
  O  O229  1  0.12831201  0.75039845  0.49175194  1
  O  O230  1  0.13528310  0.75713707  0.98954208  1
  O  O231  1  0.62248229  0.23850457  0.49137873  1
  O  O232  1  0.63305635  0.24270960  0.99072822  1
  O  O233  1  0.63226247  0.74084345  0.49380247  1
  O  O234  1  0.62848958  0.74142264  1.00230168  1
  O  O235  1  0.50915566  0.23850828  0.12307288  1
  O  O236  1  0.49224499  0.25215605  0.63686366  1
  O  O237  1  0.49122292  0.75501324  0.13870630  1
  O  O238  1  0.49402604  0.74697480  0.63458039  1
  O  O239  1  1.00623246  0.24982208  0.13992493  1
  O  O240  1  0.98970381  0.24490244  0.62345362  1
  O  O241  1  1.00143363  0.74508448  0.13687757  1
  O  O242  1  1.00697955  0.73653408  0.62455002  1
  O  O243  1  0.00774908  0.25478032  0.36834734  1
  O  O244  1  0.00525902  0.26342732  0.87051160  1
  O  O245  1  -0.00354339  0.76189722  0.36844439  1
  O  O246  1  0.00957132  0.75811241  0.87436564  1
  O  O247  1  0.51004316  0.25795578  0.37497358  1
  O  O248  1  0.50809250  0.24811644  0.86227310  1
  O  O249  1  0.50658712  0.75905116  0.36269016  1
  O  O250  1  0.50097867  0.75952126  0.86524941  1
  O  O251  1  0.24780476  0.13740636  0.48900570  1
  O  O252  1  0.24332648  0.13532140  1.00476006  1
  O  O253  1  0.25048994  0.61764029  0.48504756  1
  O  O254  1  0.25311704  0.63667153  0.99505404  1
  O  O255  1  0.73536503  0.12291120  0.49185280  1
  O  O256  1  0.74051198  0.13322755  0.99628971  1
  O  O257  1  0.74587497  0.63442108  0.49682538  1
  O  O258  1  0.74341262  0.64161449  1.00924557  1
  O  O259  1  0.25963320  0.36117707  0.00764569  1
  O  O260  1  0.25379812  0.36392703  0.49582369  1
  O  O261  1  0.26207868  0.86120894  0.00019271  1
  O  O262  1  0.24501724  0.87584245  0.51507513  1
  O  O263  1  0.75532833  0.36865499  0.00738172  1
  O  O264  1  0.76530242  0.37507474  0.49637789  1
  O  O265  1  0.74672764  0.86658794  0.01381677  1
  O  O266  1  0.74254891  0.86725467  0.50980456  1
  O  O267  1  0.13246074  0.48670160  0.25311526  1
  O  O268  1  0.12883035  0.49295658  0.74243507  1
  O  O269  1  0.12005114  1.00364207  0.23742057  1
  O  O270  1  0.12675070  0.99217010  0.74491231  1
  O  O271  1  0.63155520  0.49359601  0.24283488  1
  O  O272  1  0.64330351  0.51064022  0.74930393  1
  O  O273  1  0.63076772  0.99381927  0.24191139  1
  O  O274  1  0.62085959  0.99318648  0.74156606  1
  O  O275  1  0.38015872  0.00538240  0.26071847  1
  O  O276  1  0.37384555  0.00821005  0.75693074  1
  O  O277  1  0.36862313  0.50909984  0.24052172  1
  O  O278  1  0.36805339  0.50686881  0.74939669  1
  O  O279  1  0.86978542  0.01059088  0.25985961  1
  O  O280  1  0.87331860  0.01002442  0.76141471  1
  O  O281  1  0.86927764  0.50801081  0.25629406  1
  O  O282  1  0.86659535  0.51247047  0.75211563  1
  O  O283  1  0.12038389  0.36693661  0.36554105  1
  O  O284  1  0.11939508  0.37349116  0.86392705  1
  O  O285  1  0.10753124  0.88333723  0.37262845  1
  O  O286  1  0.12035783  0.87024959  0.86936170  1
  O  O287  1  0.61733911  0.36927161  0.36885696  1
  O  O288  1  0.63025286  0.36296071  0.88133448  1
  O  O289  1  0.61719750  0.87067508  0.36760784  1
  O  O290  1  0.61767599  0.87776142  0.86578605  1
  O  O291  1  0.39634616  0.11651618  0.12196320  1
  O  O292  1  0.37149599  0.13758856  0.63168610  1
  O  O293  1  0.37018974  0.63468473  0.13219308  1
  O  O294  1  0.38269862  0.63636779  0.63357825  1
  O  O295  1  0.87266448  0.11927622  0.13916605  1
  O  O296  1  0.87767827  0.13165926  0.62849048  1
  O  O297  1  0.88075576  0.62059802  0.13784938  1
  O  O298  1  0.88802060  0.62320712  0.63500176  1
  O  O299  1  0.24783546  0.25724064  0.11143968  1
  O  O300  1  0.25692984  0.25228272  0.61236154  1
  O  O301  1  0.25848629  0.75054903  0.11740889  1
  O  O302  1  0.25671443  0.75742812  0.62679597  1
  O  O303  1  0.73914583  0.26046126  0.11493800  1
  O  O304  1  0.76171217  0.25082556  0.62104572  1
  O  O305  1  0.74978416  0.76423902  0.11863332  1
  O  O306  1  0.74431449  0.76090894  0.61538657  1
  O  O307  1  0.24318246  0.24467997  0.37991079  1
  O  O308  1  0.24569401  0.25381685  0.89123449  1
  O  O309  1  0.25078809  0.72981798  0.37630581  1
  O  O310  1  0.24348581  0.74460594  0.88147908  1
  O  O311  1  0.73604538  0.24438519  0.37850402  1
  O  O312  1  0.74179186  0.24428914  0.88098220  1
  O  O313  1  0.74381874  0.74798313  0.38153260  1
  O  O314  1  0.74637953  0.76320045  0.89468828  1
  O  O315  1  0.01365814  0.12949043  0.00224286  1
  O  O316  1  0.00118332  0.11528930  0.50477964  1
  O  O317  1  0.00125301  0.63108297  0.01768396  1
  O  O318  1  -0.00826623  0.61561769  0.51142322  1
  O  O319  1  0.51332786  0.12935490  0.00825111  1
  O  O320  1  0.51061907  0.11329499  0.49134333  1
  O  O321  1  0.50910355  0.61553373  0.00278981  1
  O  O322  1  0.50958388  0.62840551  0.51079026  1
  O  O323  1  0.49901091  0.37266194  0.48237373  1
  O  O324  1  0.49194652  0.38329713  1.00581192  1
  O  O325  1  0.50766803  0.88168581  0.48828504  1
  O  O326  1  0.49048391  0.86523630  0.98982157  1
  O  O327  1  0.99094514  0.38344387  0.49422719  1
  O  O328  1  0.98814095  0.36575971  0.99512510  1
  O  O329  1  0.99891409  0.88910570  0.49300118  1
  O  O330  1  1.00557700  0.87592397  0.98642166  1
  O  O331  1  0.50414370  0.49232019  0.37535934  1
  O  O332  1  0.50140101  0.50128804  0.88888229  1
  O  O333  1  0.49247425  0.99032755  0.37951837  1
  O  O334  1  0.49063478  0.98695529  0.86967006  1
  O  O335  1  0.99597032  0.49727234  0.38137814  1
  O  O336  1  1.00038899  0.48730764  0.87399850  1
  O  O337  1  0.99111828  0.99744552  0.38157015  1
  O  O338  1  0.99296395  0.99314951  0.87809128  1
  O  O339  1  0.01146162  0.00503085  0.12037858  1
  O  O340  1  0.00291337  0.00404267  0.61867397  1
  O  O341  1  0.00120534  0.51646312  0.13381086  1
  O  O342  1  0.00498297  0.50768143  0.61755648  1
  O  O343  1  0.51328628  0.00026929  0.12658808  1
  O  O344  1  0.50940078  -0.01005206  0.61440067  1
  O  O345  1  0.51354131  0.49292993  0.11688550  1
  O  O346  1  0.50375114  0.51735161  0.63894659  1
  O  O347  1  0.24423580  0.37996526  0.24523004  1
  O  O348  1  0.24035593  0.38109459  0.74892176  1
  O  O349  1  0.24676037  0.86749667  0.24998495  1
  O  O350  1  0.23880537  0.87536099  0.74402765  1
  O  O351  1  0.74250620  0.37980456  0.24478347  1
  O  O352  1  0.75821010  0.38888929  0.74982670  1
  O  O353  1  0.74473565  0.87762409  0.23963350  1
  O  O354  1  0.73765526  0.87459607  0.74393320  1
  O  O355  1  0.24837356  0.13112150  0.26199587  1
  O  O356  1  0.26713815  0.12991944  0.75056971  1
  O  O357  1  0.25732734  0.61682931  0.25323346  1
  O  O358  1  0.25405076  0.62105444  0.75599077  1
  O  O359  1  0.75355899  0.12094054  0.25395705  1
  O  O360  1  0.75478753  0.12367970  0.75598158  1
  O  O361  1  0.75619534  0.62277454  0.25503919  1
  O  O362  1  0.76416704  0.62223898  0.74513629  1
  O  O363  1  0.36805931  0.11746366  0.36892131  1
  O  O364  1  0.38161663  0.11064351  0.87121919  1
  O  O365  1  0.36382690  0.61950432  0.36235918  1
  O  O366  1  0.36941799  0.62412094  0.86860201  1
  O  O367  1  0.86698502  0.11813829  0.36691070  1
  O  O368  1  0.86936201  0.12150595  0.86988402  1
  O  O369  1  0.87060705  0.61956197  0.36612073  1
  O  O370  1  0.88715945  0.62308785  0.85999907  1
  O  O371  1  0.13639874  0.36547115  0.13730257  1
  O  O372  1  0.12355224  0.38608610  0.63307702  1
  O  O373  1  0.12646196  0.89191389  0.12394903  1
  O  O374  1  0.13104471  0.87975789  0.63432240  1
  O  O375  1  0.63319376  0.38214518  0.13187934  1
  O  O376  1  0.63120917  0.37983251  0.60926418  1
  O  O377  1  0.62963780  0.88118962  0.13009234  1
  O  O378  1  0.62855287  0.88186939  0.63409016  1
  O  O379  1  0.11759005  0.25663936  0.25875948  1
  O  O380  1  0.12521825  0.26139757  0.74709665  1
  O  O381  1  0.11072118  0.75276749  0.25884322  1
  O  O382  1  0.12459701  0.75760077  0.76330241  1
  O  O383  1  0.63028374  0.26164567  0.25806482  1
  O  O384  1  0.61191825  0.24545989  0.75524708  1
  O  O385  1  0.61877891  0.75184519  0.25367301  1
  O  O386  1  0.61659534  0.75880126  0.75148507  1
  O  O387  1  0.37431207  0.25259090  0.23862445  1
  O  O388  1  0.38349817  0.24693651  0.74542025  1
  O  O389  1  0.38212924  0.73883262  0.24365629  1
  O  O390  1  0.38446208  0.74630310  0.74721815  1
  O  O391  1  0.88240716  0.24268822  0.25869081  1
  O  O392  1  0.87531715  0.24553780  0.73982642  1
  O  O393  1  0.88324307  0.74044407  0.25634298  1
  O  O394  1  0.87562623  0.73836244  0.75343772  1
  O  O395  1  0.38029057  0.50162222  0.51029768  1
  O  O396  1  0.38413850  0.49303961  1.00009181  1
  O  O397  1  0.38747486  1.00700742  0.49207143  1
  O  O398  1  0.36882186  0.98511724  0.99303740  1
  O  O399  1  0.88355915  0.49408763  0.49646802  1
  O  O400  1  0.86575957  0.48637462  0.99857892  1
  O  O401  1  0.88090736  1.00911229  0.48924601  1
  O  O402  1  0.87619403  1.00899836  0.98609972  1
  O  O403  1  0.12681560  0.01308747  0.00542525  1
  O  O404  1  0.11289879  0.00311365  0.50657830  1
  O  O405  1  0.13958600  0.48623152  0.01450057  1
  O  O406  1  0.11298083  0.49105566  0.50788282  1
  O  O407  1  0.63274253  0.00997435  0.00769196  1
  O  O408  1  0.61495288  0.00504274  0.50443061  1
  O  O409  1  0.62114794  0.50673481  0.00627443  1
  O  O410  1  0.63462225  0.51831948  0.50208870  1
  O  O411  1  0.36583856  0.37615959  0.11271659  1
  O  O412  1  0.37147226  0.36112035  0.62137684  1
  O  O413  1  0.37633757  0.86522456  0.11666041  1
  O  O414  1  0.36370704  0.86763740  0.63579518  1
  O  O415  1  0.86202420  0.37909699  0.12042264  1
  O  O416  1  0.87763046  0.36716406  0.61639913  1
  O  O417  1  0.86127185  0.88500027  0.12883170  1
  O  O418  1  0.85905328  0.88468553  0.63587237  1
  O  O419  1  0.13073068  0.13474809  0.37550819  1
  O  O420  1  0.12330451  0.12290620  0.88740210  1
  O  O421  1  0.13941164  0.62105431  0.36734803  1
  O  O422  1  0.12695754  0.63275134  0.87785629  1
  O  O423  1  0.62597353  0.12973619  0.37824476  1
  O  O424  1  0.62854003  0.12819562  0.88149674  1
  O  O425  1  0.63181888  0.63078442  0.38188687  1
  O  O426  1  0.62525176  0.62819266  0.89125293  1
