# generated using pymatgen
data_V85Zn86O256
_symmetry_space_group_name_H-M   'P 1'
_cell_length_a   16.98752773
_cell_length_b   16.98276182
_cell_length_c   16.96357754
_cell_angle_alpha   89.99093026
_cell_angle_beta   90.03831563
_cell_angle_gamma   90.15811425
_symmetry_Int_Tables_number   1
_chemical_formula_structural   V85Zn86O256
_chemical_formula_sum   'V85 Zn86 O256'
_cell_volume   4893.88984532
_cell_formula_units_Z   1
loop_
 _symmetry_equiv_pos_site_id
 _symmetry_equiv_pos_as_xyz
  1  'x, y, z'
loop_
 _atom_site_type_symbol
 _atom_site_label
 _atom_site_symmetry_multiplicity
 _atom_site_fract_x
 _atom_site_fract_y
 _atom_site_fract_z
 _atom_site_occupancy
  V  V0  1  0.25566432  0.37037093  0.12755499  1
  V  V1  1  0.50217328  0.37361933  0.87313595  1
  V  V2  1  0.87692820  -0.01115666  0.87939860  1
  V  V3  1  0.61347642  0.00801603  0.12670916  1
  V  V4  1  0.37579297  0.50079832  0.87485871  1
  V  V5  1  -0.00540474  0.37544445  0.88225027  1
  V  V6  1  0.61620249  0.25288758  0.37281545  1
  V  V7  1  0.25262379  0.11554606  0.86960930  1
  V  V8  1  0.38742168  0.49860880  0.38203105  1
  V  V9  1  0.00455493  0.87440227  0.36828288  1
  V  V10  1  -0.00727044  0.49855044  0.50213984  1
  V  V11  1  0.13057875  0.50733388  0.12206468  1
  V  V12  1  0.75243093  0.49536424  0.75037776  1
  V  V13  1  0.74879908  -0.00079602  0.24316843  1
  V  V14  1  0.25374586  0.50104806  0.25504124  1
  V  V15  1  -0.00060577  0.62521132  0.62763274  1
  V  V16  1  0.61551873  0.12792079  0.00479310  1
  V  V17  1  0.23600413  0.86552827  0.13133321  1
  V  V18  1  0.75004934  0.13375078  0.37659614  1
  V  V19  1  0.87559757  0.87325563  0.49681702  1
  V  V20  1  0.35882309  0.87041651  0.50011486  1
  V  V21  1  0.87604485  0.12436112  0.75098146  1
  V  V22  1  0.24925018  0.25210136  0.49934115  1
  V  V23  1  -0.00003138  0.12729104  0.12240747  1
  V  V24  1  0.62545066  0.87097884  0.75083312  1
  V  V25  1  0.37095424  0.00097754  0.36789967  1
  V  V26  1  0.50179838  0.12525700  0.62787154  1
  V  V27  1  -0.00334603  -0.01306738  -0.00279222  1
  V  V28  1  0.25006291  0.37583856  0.62636782  1
  V  V29  1  0.37130840  0.75055626  0.11785808  1
  V  V30  1  -0.01000233  0.74261594  0.25330020  1
  V  V31  1  0.74851200  0.74563823  0.49837789  1
  V  V32  1  0.12740955  0.63087977  0.50133600  1
  V  V33  1  0.87253809  0.25337648  0.61277259  1
  V  V34  1  0.12654792  0.74973152  0.88708909  1
  V  V35  1  0.12475721  0.37647571  0.75102029  1
  V  V36  1  0.12638430  -0.00657835  0.13970637  1
  V  V37  1  -0.00888804  0.62208498  0.13348429  1
  V  V38  1  0.49887781  0.87642407  0.37849169  1
  V  V39  1  0.87448911  -0.00022818  0.37472546  1
  V  V40  1  0.49722210  0.62696287  0.12324679  1
  V  V41  1  0.63160963  0.13247961  0.50051047  1
  V  V42  1  0.50165960  0.62061117  0.61905223  1
  V  V43  1  -0.00048331  0.25168965  0.25034383  1
  V  V44  1  0.62324927  0.49710659  0.61834213  1
  V  V45  1  0.75144091  0.00001740  0.74935471  1
  V  V46  1  0.62643953  0.75091029  0.37580398  1
  V  V47  1  -0.00202714  0.25059618  0.75066660  1
  V  V48  1  0.25045341  0.24814179  0.00154821  1
  V  V49  1  0.62721716  0.87793378  0.24741191  1
  V  V50  1  0.75070392  0.12790983  0.87632946  1
  V  V51  1  0.62377440  0.25183754  0.87452665  1
  V  V52  1  0.12566912  0.25168660  0.37682352  1
  V  V53  1  0.74629180  0.63411103  0.87785869  1
  V  V54  1  0.87595335  0.74911531  0.62421851  1
  V  V55  1  0.24693991  0.62766536  0.88915180  1
  V  V56  1  0.62564004  -0.00069393  0.62261827  1
  V  V57  1  0.00630094  0.50582416  0.00004455  1
  V  V58  1  0.62290406  0.38356643  0.25275215  1
  V  V59  1  0.75556199  0.37164323  0.61210193  1
  V  V60  1  0.00116301  0.76057759  0.75185863  1
  V  V61  1  0.25147854  0.62996512  0.38010818  1
  V  V62  1  0.12581252  0.37548634  0.25199951  1
  V  V63  1  0.62445866  0.62804419  -0.00478236  1
  V  V64  1  0.12400268  0.24848033  0.87674693  1
  V  V65  1  -0.00015189  0.12398684  0.62516630  1
  V  V66  1  0.25332332  0.12361394  0.36747485  1
  V  V67  1  0.75730308  0.25513469  0.00442228  1
  V  V68  1  0.87238916  0.50781612  0.36250547  1
  V  V69  1  0.00135042  -0.00137491  0.50297037  1
  V  V70  1  -0.00797964  0.37647590  0.37964140  1
  V  V71  1  0.75814640  0.39098188  0.12715418  1
  V  V72  1  0.87449945  0.12768586  0.24902145  1
  V  V73  1  0.87392940  0.49688082  0.88526385  1
  V  V74  1  0.24881301  0.50218052  0.75112897  1
  V  V75  1  0.50559720  0.74811611  0.75175019  1
  V  V76  1  0.50177033  0.87445430  0.88138015  1
  V  V77  1  0.37707985  0.36919290  0.00202154  1
  V  V78  1  0.37709959  0.24962313  0.62670769  1
  V  V79  1  0.13873639  -0.00282830  0.62929631  1
  V  V80  1  0.12743739  0.75265422  0.37121736  1
  V  V81  1  0.36548774  0.75248852  0.62120617  1
  V  V82  1  0.75229758  0.62462909  0.36115130  1
  V  V83  1  0.39038338  0.37999298  0.49863526  1
  V  V84  1  0.14440763  0.87638066  0.74919737  1
  Zn  Zn85  1  0.62900748  0.50492597  0.12791222  1
  Zn  Zn86  1  0.48840581  0.00962224  0.00240814  1
  Zn  Zn87  1  0.35755515  0.87240570  -0.00396026  1
  Zn  Zn88  1  0.62457015  0.37184914  0.74719481  1
  Zn  Zn89  1  0.87529899  0.62565050  0.75258115  1
  Zn  Zn90  1  0.50302270  0.49917016  0.00292322  1
  Zn  Zn91  1  0.49822202  0.00001042  0.50061139  1
  Zn  Zn92  1  0.49700505  0.75092240  0.24831740  1
  Zn  Zn93  1  0.37531215  0.62814024  0.75024056  1
  Zn  Zn94  1  0.37949964  0.13102884  0.23029785  1
  Zn  Zn95  1  0.87800835  0.25815132  0.12109224  1
  Zn  Zn96  1  0.12422147  0.12024701  0.00050068  1
  Zn  Zn97  1  0.80272684  0.82677063  0.03923435  1
  Zn  Zn98  1  0.74898540  0.87279472  0.62293023  1
  Zn  Zn99  1  0.49646869  0.24812088  0.23358971  1
  Zn  Zn100  1  0.37175967  -0.00580526  0.86835550  1
  Zn  Zn101  1  0.37773111  0.62770209  0.25240610  1
  Zn  Zn102  1  0.49589831  0.24500411  0.75537044  1
  Zn  Zn103  1  0.62140441  0.61616996  0.49458281  1
  Zn  Zn104  1  0.12647929  0.12226511  0.50159922  1
  Zn  Zn105  1  0.35464180  0.10690444  0.73524513  1
  Zn  Zn106  1  0.12469802  0.50028108  0.62351118  1
  Zn  Zn107  1  0.18724540  0.18495928  0.18800737  1
  Zn  Zn108  1  0.18283917  0.18825382  0.68635285  1
  Zn  Zn109  1  0.18431192  0.68912830  0.19111460  1
  Zn  Zn110  1  0.18550584  0.68628622  0.69366278  1
  Zn  Zn111  1  0.68505040  0.19276896  0.18857545  1
  Zn  Zn112  1  0.69133117  0.18937679  0.68871939  1
  Zn  Zn113  1  0.67876442  0.68905061  0.18398588  1
  Zn  Zn114  1  0.68812002  0.68229552  0.68705852  1
  Zn  Zn115  1  0.32216928  0.31244736  0.31517352  1
  Zn  Zn116  1  0.31278220  0.30897676  0.81337206  1
  Zn  Zn117  1  0.31198400  0.81541067  0.30471282  1
  Zn  Zn118  1  0.31597386  0.80674878  0.81283517  1
  Zn  Zn119  1  0.81074120  0.31653572  0.30837677  1
  Zn  Zn120  1  0.81251274  0.31223092  0.80906021  1
  Zn  Zn121  1  0.81138652  0.80910789  0.20645479  1
  Zn  Zn122  1  0.81278427  0.81254269  0.80924920  1
  Zn  Zn123  1  0.18684618  0.43994323  0.44026161  1
  Zn  Zn124  1  0.18799204  0.43645533  0.93824851  1
  Zn  Zn125  1  0.18581562  0.94065737  0.43679250  1
  Zn  Zn126  1  0.17646391  0.92948935  0.94525113  1
  Zn  Zn127  1  0.69151745  0.43630805  0.43418442  1
  Zn  Zn128  1  0.68922006  0.44126740  0.94392123  1
  Zn  Zn129  1  0.69048475  0.93987905  0.43522800  1
  Zn  Zn130  1  0.68410090  0.94896773  0.93224827  1
  Zn  Zn131  1  0.30691150  0.04999444  0.05324142  1
  Zn  Zn132  1  0.31597608  0.06173427  0.55125888  1
  Zn  Zn133  1  0.31674068  0.55884940  0.06380391  1
  Zn  Zn134  1  0.31509487  0.56382775  0.56294931  1
  Zn  Zn135  1  0.81082960  0.06465902  0.06099395  1
  Zn  Zn136  1  0.81359590  0.06371597  0.56274330  1
  Zn  Zn137  1  0.81534539  0.66322786  0.06511455  1
  Zn  Zn138  1  0.81140749  0.56073564  0.55993241  1
  Zn  Zn139  1  0.44058069  0.43653200  0.19145168  1
  Zn  Zn140  1  0.43800373  0.43612039  0.68820892  1
  Zn  Zn141  1  0.43273816  0.93313333  0.18671593  1
  Zn  Zn142  1  0.43424354  0.93409089  0.68880157  1
  Zn  Zn143  1  0.93810679  0.44031289  0.18701003  1
  Zn  Zn144  1  0.93525580  0.43647411  0.69102707  1
  Zn  Zn145  1  0.93760381  0.94023119  0.18701848  1
  Zn  Zn146  1  0.93868979  0.93810753  0.68645705  1
  Zn  Zn147  1  0.06269882  0.06665263  0.31606197  1
  Zn  Zn148  1  0.06297429  0.05814916  0.81161444  1
  Zn  Zn149  1  0.06628246  0.56044526  0.31477705  1
  Zn  Zn150  1  0.06490109  0.56654094  0.81451818  1
  Zn  Zn151  1  0.55620187  0.06631930  0.31204625  1
  Zn  Zn152  1  0.56133686  0.06069821  0.81350799  1
  Zn  Zn153  1  0.56435891  0.56625682  0.30898709  1
  Zn  Zn154  1  0.56506322  0.56032750  0.80653870  1
  Zn  Zn155  1  0.43851133  0.18664562  0.43780455  1
  Zn  Zn156  1  0.43570580  0.18682606  1.06903381  1
  Zn  Zn157  1  0.43694229  0.68773951  0.43929990  1
  Zn  Zn158  1  0.43883463  0.68925219  0.93866752  1
  Zn  Zn159  1  0.93932165  0.18515723  0.43692071  1
  Zn  Zn160  1  0.93639354  0.18353747  0.93742068  1
  Zn  Zn161  1  0.93796565  0.68677224  0.43686340  1
  Zn  Zn162  1  0.94104413  0.68381683  0.93274395  1
  Zn  Zn163  1  0.06615482  0.31690026  0.06373226  1
  Zn  Zn164  1  0.06133801  0.31318894  0.56380561  1
  Zn  Zn165  1  -0.04006960  0.80426570  0.06787945  1
  Zn  Zn166  1  0.06781838  0.81473757  0.56422666  1
  Zn  Zn167  1  0.57258674  0.31993294  0.06212387  1
  Zn  Zn168  1  0.56831323  0.31069453  0.56299052  1
  Zn  Zn169  1  0.61354708  0.83012634  0.04090508  1
  Zn  Zn170  1  0.55768327  0.80939491  0.56375328  1
  O  O171  1  0.11414935  0.11661180  0.12586058  1
  O  O172  1  0.11627449  0.11702954  0.62524892  1
  O  O173  1  0.12435597  0.60973207  0.13048957  1
  O  O174  1  0.11709072  0.62531168  0.61832130  1
  O  O175  1  0.62890474  0.11848696  0.11733878  1
  O  O176  1  0.62297258  0.12036603  0.61930797  1
  O  O177  1  0.61459289  0.62204166  0.11758718  1
  O  O178  1  0.61947167  0.61455138  0.62249252  1
  O  O179  1  0.36893660  0.38712955  0.38815904  1
  O  O180  1  0.38088071  0.37910492  0.88117427  1
  O  O181  1  0.37980238  0.87808636  0.38039052  1
  O  O182  1  0.39070992  0.86915059  0.87663887  1
  O  O183  1  0.88515010  0.38692831  0.37025660  1
  O  O184  1  0.88728966  0.38191751  0.86812262  1
  O  O185  1  0.88725396  0.88149656  0.38769214  1
  O  O186  1  0.86615003  0.88940693  0.87583821  1
  O  O187  1  0.25714797  0.01242102  0.38362994  1
  O  O188  1  0.23474144  0.01588957  0.88403455  1
  O  O189  1  0.25274181  0.50871251  0.36948437  1
  O  O190  1  0.25588022  0.50335193  0.86896242  1
  O  O191  1  0.75426746  0.01007516  0.36528985  1
  O  O192  1  0.75759901  0.00873812  0.86909233  1
  O  O193  1  0.76620513  0.50814367  0.38170833  1
  O  O194  1  0.75863796  0.49880134  0.86818231  1
  O  O195  1  0.24753100  0.49251907  0.13398813  1
  O  O196  1  0.25006301  0.49599009  0.63602480  1
  O  O197  1  0.22782979  0.99978379  0.12349613  1
  O  O198  1  0.23704793  1.01191793  0.62095257  1
  O  O199  1  0.75249193  0.48886063  0.12310475  1
  O  O200  1  0.74723215  0.49358601  0.63166599  1
  O  O201  1  0.74097936  1.00736298  0.13827485  1
  O  O202  1  0.74116207  0.99919573  0.62989296  1
  O  O203  1  0.00589419  0.37251738  0.25927021  1
  O  O204  1  0.00581026  0.37126405  0.76077791  1
  O  O205  1  -0.00524501  0.86605010  0.26394811  1
  O  O206  1  0.00069611  0.86275208  0.74817424  1
  O  O207  1  0.51957002  0.37318651  0.24574319  1
  O  O208  1  0.50065151  0.36968509  0.76099631  1
  O  O209  1  0.50709985  0.87452782  0.26416945  1
  O  O210  1  0.50821644  0.86639789  0.75386321  1
  O  O211  1  0.49403361  0.13148811  0.25037284  1
  O  O212  1  0.50358376  0.12626735  0.73545848  1
  O  O213  1  0.49819370  0.62894356  0.23972615  1
  O  O214  1  0.50007657  0.63245608  0.74192318  1
  O  O215  1  0.99495326  0.13149548  0.24338903  1
  O  O216  1  0.99559299  0.13011813  0.74558832  1
  O  O217  1  1.00665919  0.62536694  0.24118284  1
  O  O218  1  1.00205446  0.63130841  0.73820835  1
  O  O219  1  0.36187909  0.26190060  -0.00234550  1
  O  O220  1  0.36835653  0.25845110  0.50754423  1
  O  O221  1  0.37585552  0.75281689  0.01193357  1
  O  O222  1  0.37794366  0.75487061  0.51287567  1
  O  O223  1  0.86188982  0.24635271  -0.00101156  1
  O  O224  1  0.87929618  0.24493534  0.51351972  1
  O  O225  1  0.87993145  0.74507413  0.00536103  1
  O  O226  1  0.86844242  0.75555067  0.50218443  1
  O  O227  1  0.13422456  0.25070377  0.49637065  1
  O  O228  1  0.13320611  0.25340365  0.99150921  1
  O  O229  1  0.11826000  0.73816897  0.49035343  1
  O  O230  1  0.11797972  0.75680219  0.98156761  1
  O  O231  1  0.62791428  0.23870877  0.49410082  1
  O  O232  1  0.63558507  0.24560237  0.99126289  1
  O  O233  1  0.63354313  0.75286911  0.49238364  1
  O  O234  1  0.61869366  0.72700616  0.99811119  1
  O  O235  1  0.50117005  0.25964956  0.11892365  1
  O  O236  1  0.49300348  0.24270887  0.62565042  1
  O  O237  1  0.48828159  0.73622943  0.12542480  1
  O  O238  1  0.49526941  0.74021304  0.63324790  1
  O  O239  1  1.00118922  0.24501081  0.12983836  1
  O  O240  1  0.99353875  0.24599458  0.63128775  1
  O  O241  1  1.00798761  0.72869793  0.13712835  1
  O  O242  1  0.99640723  0.74286016  0.63039429  1
  O  O243  1  0.00398707  0.25852390  0.37226479  1
  O  O244  1  0.00487551  0.25708482  0.87314490  1
  O  O245  1  0.00698989  0.75456235  0.37197771  1
  O  O246  1  0.01510260  0.73667550  0.86124749  1
  O  O247  1  0.51575247  0.25075597  0.38186941  1
  O  O248  1  0.51287689  0.26114115  0.87526752  1
  O  O249  1  0.51082937  0.75595976  0.37645390  1
  O  O250  1  0.49699366  0.75715207  0.86034565  1
  O  O251  1  0.24938841  0.14003979  0.49377683  1
  O  O252  1  0.24253467  0.13596323  0.98853021  1
  O  O253  1  0.23915641  0.61799596  0.49117191  1
  O  O254  1  0.25155382  0.61513309  0.98793060  1
  O  O255  1  0.74192247  0.11731661  0.48899644  1
  O  O256  1  0.74148764  0.13358491  0.99470032  1
  O  O257  1  0.74888393  0.63508119  0.49303460  1
  O  O258  1  0.74362407  0.62082712  0.98420196  1
  O  O259  1  0.25646384  0.36891949  0.00653566  1
  O  O260  1  0.25292049  0.36650251  0.50647092  1
  O  O261  1  0.24485843  0.88052788  0.02132431  1
  O  O262  1  0.26000768  0.87214857  0.49405315  1
  O  O263  1  0.74228711  0.36679356  0.01634499  1
  O  O264  1  0.75224299  0.37801872  0.51313963  1
  O  O265  1  0.71253164  0.87283995  0.00462098  1
  O  O266  1  0.75901811  0.86556198  0.49750338  1
  O  O267  1  0.13634465  0.49465185  0.24572991  1
  O  O268  1  0.13475540  0.49523746  0.75154882  1
  O  O269  1  0.11374409  1.00141333  0.23847719  1
  O  O270  1  0.11963321  0.98318793  0.74549885  1
  O  O271  1  0.62755276  0.48746562  0.25376768  1
  O  O272  1  0.63643601  0.49595625  0.73912140  1
  O  O273  1  0.63022793  0.99758976  0.24662474  1
  O  O274  1  0.63070181  0.99409515  0.74044533  1
  O  O275  1  0.37809740  -0.00066724  0.26634373  1
  O  O276  1  0.37624713  -0.00042452  0.75537464  1
  O  O277  1  0.36479169  0.49798624  0.26123768  1
  O  O278  1  0.36525479  0.49736796  0.76000228  1
  O  O279  1  0.86767370  0.00614441  0.25485121  1
  O  O280  1  0.87191684  0.00407843  0.75720094  1
  O  O281  1  0.88036322  0.50349511  0.26439659  1
  O  O282  1  0.86790232  0.50297039  0.75956033  1
  O  O283  1  0.11661964  0.37234079  0.37087267  1
  O  O284  1  0.11791712  0.36651522  0.87140680  1
  O  O285  1  0.11470789  0.86506124  0.38518872  1
  O  O286  1  0.13060333  0.86148098  0.86037053  1
  O  O287  1  0.63947265  0.36597202  0.36183232  1
  O  O288  1  0.61821192  0.37013355  0.87693011  1
  O  O289  1  0.61860802  0.87140766  0.37018182  1
  O  O290  1  0.61568088  0.88091771  0.85748626  1
  O  O291  1  0.36252891  0.12022075  0.11812836  1
  O  O292  1  0.38408528  0.13201473  0.61959224  1
  O  O293  1  0.37755722  0.63148831  0.12653011  1
  O  O294  1  0.38387944  0.63364924  0.62618985  1
  O  O295  1  0.88631020  0.12570028  0.13094112  1
  O  O296  1  0.87930122  0.13141359  0.63148596  1
  O  O297  1  0.89333478  0.61057579  0.13083274  1
  O  O298  1  0.88530218  0.63006074  0.62434438  1
  O  O299  1  0.23856240  0.26206714  0.11549083  1
  O  O300  1  0.25689865  0.25361936  0.61828841  1
  O  O301  1  0.25127967  0.75857393  0.12945936  1
  O  O302  1  0.26760450  0.74160763  0.63224269  1
  O  O303  1  0.75341220  0.25281747  0.11627176  1
  O  O304  1  0.76072299  0.25930170  0.63202867  1
  O  O305  1  0.75827402  0.74410926  0.12615462  1
  O  O306  1  0.75576263  0.74856630  0.61511093  1
  O  O307  1  0.24608945  0.24688962  0.38407402  1
  O  O308  1  0.24065953  0.24717565  0.88250162  1
  O  O309  1  0.24276927  0.73842978  0.36617861  1
  O  O310  1  0.23990143  0.74018827  0.87005057  1
  O  O311  1  0.74540836  0.23740563  0.36915822  1
  O  O312  1  0.74337201  0.24919732  0.88137198  1
  O  O313  1  0.73896388  0.74163048  0.38394124  1
  O  O314  1  0.75322812  0.73197934  0.86582693  1
  O  O315  1  0.00176873  0.12339814  0.01177635  1
  O  O316  1  0.00213530  0.11633052  0.50588335  1
  O  O317  1  0.00081932  0.61255728  0.01413212  1
  O  O318  1  0.00673663  0.61984371  0.50895799  1
  O  O319  1  0.51324434  0.12873364  -0.00343651  1
  O  O320  1  0.51203503  0.12359328  0.51141748  1
  O  O321  1  0.50378001  0.61976473  0.00447157  1
  O  O322  1  0.50374793  0.62966231  0.51436698  1
  O  O323  1  0.48896696  0.37186933  0.50665552  1
  O  O324  1  0.49271024  0.37850589  0.98938193  1
  O  O325  1  0.49502152  0.87370052  0.48810036  1
  O  O326  1  0.51554267  0.86682723  0.98145842  1
  O  O327  1  1.00794361  0.38543867  0.48940277  1
  O  O328  1  1.00546415  0.38429554  0.98899787  1
  O  O329  1  0.99335423  0.87771861  0.49471600  1
  O  O330  1  0.99894645  0.88883472  1.00140893  1
  O  O331  1  0.48553848  0.51005613  0.37263504  1
  O  O332  1  0.49019920  0.49219381  0.87034322  1
  O  O333  1  0.49265257  0.99108889  0.37938040  1
  O  O334  1  0.50218147  0.98396908  0.87693254  1
  O  O335  1  0.99173036  0.49660229  0.38087932  1
  O  O336  1  0.99745524  0.49633350  0.88054657  1
  O  O337  1  0.99649775  0.99319740  0.38055338  1
  O  O338  1  0.99248770  1.00586172  0.88944409  1
  O  O339  1  0.00463810  0.00676057  0.11640273  1
  O  O340  1  0.00572378  0.00553718  0.62097842  1
  O  O341  1  0.01109180  0.50423114  0.12138661  1
  O  O342  1  0.00021727  0.50739660  0.62027134  1
  O  O343  1  0.50988642  -0.00467498  0.12272180  1
  O  O344  1  0.51114959  0.00710165  0.62406943  1
  O  O345  1  0.49594268  0.51370803  0.12436435  1
  O  O346  1  0.51073483  0.50820778  0.63543924  1
  O  O347  1  0.24718319  0.38214976  0.24517360  1
  O  O348  1  0.24585853  0.38250337  0.74777893  1
  O  O349  1  0.25223897  0.87981430  0.23139088  1
  O  O350  1  0.24255508  0.87273205  0.74916582  1
  O  O351  1  0.74002046  0.36927792  0.23539941  1
  O  O352  1  0.74941764  0.38506879  0.74371510  1
  O  O353  1  0.73954334  0.88744078  0.25639623  1
  O  O354  1  0.74180903  0.88011133  0.74560439  1
  O  O355  1  0.25458626  0.13326970  0.26538510  1
  O  O356  1  0.24216686  0.13112475  0.76426826  1
  O  O357  1  0.25006579  0.61420872  0.26037271  1
  O  O358  1  0.25219730  0.61320495  0.75767620  1
  O  O359  1  0.75418074  0.11898929  0.25789507  1
  O  O360  1  0.75567933  0.11910514  0.75603184  1
  O  O361  1  0.74228126  0.62835223  0.26294610  1
  O  O362  1  0.75065090  0.61258956  0.75856973  1
  O  O363  1  0.36699482  0.11430406  0.38529355  1
  O  O364  1  0.35294206  0.12156190  0.87052878  1
  O  O365  1  0.36544688  0.61914265  0.37785590  1
  O  O366  1  0.36850869  0.61573423  0.87297324  1
  O  O367  1  0.86892618  0.11982862  0.37039791  1
  O  O368  1  0.86974091  0.11720645  0.86895606  1
  O  O369  1  0.86985784  0.61507337  0.37744566  1
  O  O370  1  0.86375753  0.61473254  0.87362546  1
  O  O371  1  0.13556823  0.38543284  0.13155922  1
  O  O372  1  0.13134355  0.37725023  0.63276016  1
  O  O373  1  0.12936493  0.88599107  0.12894865  1
  O  O374  1  0.12457269  0.88249965  0.63759521  1
  O  O375  1  0.63662132  0.38188160  0.13609947  1
  O  O376  1  0.63507793  0.37934046  0.62742790  1
  O  O377  1  0.61816637  0.88593636  0.14327864  1
  O  O378  1  0.62362921  0.88451290  0.63016943  1
  O  O379  1  0.11940553  0.25606210  0.25675931  1
  O  O380  1  0.11799478  0.25692885  0.75832103  1
  O  O381  1  0.11387030  0.74427068  0.26608890  1
  O  O382  1  0.11935148  0.76393573  0.74669609  1
  O  O383  1  0.62220425  0.25824473  0.25885454  1
  O  O384  1  0.62604544  0.25061607  0.76344215  1
  O  O385  1  0.62443511  0.76147263  0.26089496  1
  O  O386  1  0.61816848  0.75986799  0.73857592  1
  O  O387  1  0.38166916  0.24793020  0.25144628  1
  O  O388  1  0.37307786  0.24626917  0.73483135  1
  O  O389  1  0.37690584  0.74751450  0.23720274  1
  O  O390  1  0.38648885  0.75022130  0.73693711  1
  O  O391  1  0.88294176  0.24442423  0.24926299  1
  O  O392  1  0.88147972  0.24242541  0.74600930  1
  O  O393  1  0.89078751  0.74384106  0.25876869  1
  O  O394  1  0.88375731  0.74713120  0.74370984  1
  O  O395  1  0.36982333  0.49112213  0.49444032  1
  O  O396  1  0.37343186  0.48752066  0.98748397  1
  O  O397  1  0.37885761  0.98662412  0.49264010  1
  O  O398  1  0.37678996  0.98912134  0.98650273  1
  O  O399  1  0.88925728  0.50475222  0.49295380  1
  O  O400  1  0.89004562  0.49813204  0.98627240  1
  O  O401  1  0.87914378  0.99209975  0.49625853  1
  O  O402  1  0.88619136  1.00608831  0.99441371  1
  O  O403  1  0.10685382  0.00227604  0.00742934  1
  O  O404  1  0.11819309  -0.00112613  0.51134728  1
  O  O405  1  0.11823856  0.49350437  0.00967308  1
  O  O406  1  0.11348025  0.51197327  0.50009217  1
  O  O407  1  0.62023340  0.01306823  0.00979123  1
  O  O408  1  0.62576002  0.00777255  0.50894976  1
  O  O409  1  0.62148585  0.51045366  0.00416795  1
  O  O410  1  0.63156598  0.49793360  0.51367385  1
  O  O411  1  0.36385665  0.38496641  0.11520426  1
  O  O412  1  0.37007207  0.36838124  0.61901178  1
  O  O413  1  0.36453379  0.86629466  0.12238665  1
  O  O414  1  0.38240381  0.86033862  0.61515478  1
  O  O415  1  0.86376563  0.37493784  0.13162859  1
  O  O416  1  0.86886972  0.36471053  0.63151235  1
  O  O417  1  0.87754644  0.86563096  0.12642731  1
  O  O418  1  0.87490401  0.86951617  0.61214014  1
  O  O419  1  0.13398571  0.13263027  0.37897413  1
  O  O420  1  0.12422805  0.13900486  0.87530900  1
  O  O421  1  0.13142110  0.63129146  0.38266480  1
  O  O422  1  0.13484142  0.63776868  0.86951297  1
  O  O423  1  0.63162057  0.13157716  0.38219350  1
  O  O424  1  0.63002300  0.13213841  0.88179954  1
  O  O425  1  0.63148572  0.63291448  0.37749738  1
  O  O426  1  0.63953719  0.61499872  0.87781282  1
