# generated using pymatgen
data_V85Zn86O256
_symmetry_space_group_name_H-M   'P 1'
_cell_length_a   16.98604819
_cell_length_b   16.97644863
_cell_length_c   16.96646371
_cell_angle_alpha   90.12378846
_cell_angle_beta   89.85199203
_cell_angle_gamma   89.87037947
_symmetry_Int_Tables_number   1
_chemical_formula_structural   V85Zn86O256
_chemical_formula_sum   'V85 Zn86 O256'
_cell_volume   4892.45622557
_cell_formula_units_Z   1
loop_
 _symmetry_equiv_pos_site_id
 _symmetry_equiv_pos_as_xyz
  1  'x, y, z'
loop_
 _atom_site_type_symbol
 _atom_site_label
 _atom_site_symmetry_multiplicity
 _atom_site_fract_x
 _atom_site_fract_y
 _atom_site_fract_z
 _atom_site_occupancy
  V  V0  1  0.12854516  0.87456721  0.24445649  1
  V  V1  1  0.25240558  0.24878415  0.49911006  1
  V  V2  1  0.37642968  0.61143079  0.25369303  1
  V  V3  1  0.12155379  0.61765135  0.01455802  1
  V  V4  1  0.87638875  0.12195650  0.23302608  1
  V  V5  1  0.63295267  0.24889868  0.37517947  1
  V  V6  1  0.24879472  0.75639340  0.00586919  1
  V  V7  1  0.11711657  0.50518220  0.61704830  1
  V  V8  1  0.37458754  0.75044620  0.62585122  1
  V  V9  1  0.62103446  0.37633904  0.75280812  1
  V  V10  1  0.62972797  0.50284483  0.12687946  1
  V  V11  1  -0.00015589  0.74542376  0.74991400  1
  V  V12  1  0.36893211  0.75715455  0.12772439  1
  V  V13  1  0.00043159  0.00573899  0.50481058  1
  V  V14  1  0.49983409  0.75012535  0.75085462  1
  V  V15  1  0.87008168  0.62309458  0.25057923  1
  V  V16  1  0.61546743  0.00318792  0.12524643  1
  V  V17  1  0.49660503  0.50052734  0.49235010  1
  V  V18  1  0.12488400  0.37159855  0.76103071  1
  V  V19  1  0.38505849  0.37530980  -0.00222312  1
  V  V20  1  0.38379104  0.24444174  0.12306863  1
  V  V21  1  0.12366677  0.12946317  0.00488369  1
  V  V22  1  0.63103446  0.87640805  0.74858918  1
  V  V23  1  0.74816487  0.12396922  0.87161455  1
  V  V24  1  0.49962926  -0.00003893  0.50108743  1
  V  V25  1  0.88546677  0.24540187  0.63016194  1
  V  V26  1  0.50065337  0.24492400  0.25032057  1
  V  V27  1  0.75590874  0.50097784  0.75283144  1
  V  V28  1  0.00001802  0.87586437  0.87628579  1
  V  V29  1  0.62453434  0.62832227  0.49114702  1
  V  V30  1  0.24849582  0.62627664  0.87723032  1
  V  V31  1  0.37474035  0.87515400  0.50111998  1
  V  V32  1  0.86864541  0.87619757  0.50703838  1
  V  V33  1  0.37116884  0.00327053  0.86188372  1
  V  V34  1  0.00006087  0.87544177  0.37621321  1
  V  V35  1  0.24921616  0.38085706  0.12872944  1
  V  V36  1  0.25029454  0.50046095  0.74843726  1
  V  V37  1  0.37659296  0.37813529  0.49447347  1
  V  V38  1  -0.00064368  0.37671156  0.37568134  1
  V  V39  1  0.50100966  0.62460475  0.62470182  1
  V  V40  1  0.62969209  0.12681640  0.49490954  1
  V  V41  1  -0.00009551  0.00804488  0.00821728  1
  V  V42  1  0.37672647  0.12391405  0.24700316  1
  V  V43  1  0.63153963  -0.00246293  0.62653353  1
  V  V44  1  0.00276619  0.24447021  0.24001973  1
  V  V45  1  0.86855088  0.75097865  0.62806546  1
  V  V46  1  0.00025046  0.74203144  0.24852982  1
  V  V47  1  0.37508252  0.24785471  0.62698117  1
  V  V48  1  0.87088420  0.49881129  0.37671617  1
  V  V49  1  0.49732923  0.25231311  0.75183584  1
  V  V50  1  0.12421854  0.12445478  0.50340111  1
  V  V51  1  0.63130756  0.37584422  0.24799944  1
  V  V52  1  0.12275892  0.25271725  0.37266105  1
  V  V53  1  0.62520681  0.87033475  0.25607576  1
  V  V54  1  0.25126711  0.12513881  0.86663203  1
  V  V55  1  0.50174149  0.87275540  0.37729108  1
  V  V56  1  0.75429030  0.62500451  0.87334308  1
  V  V57  1  0.12745509  0.87805978  0.75197711  1
  V  V58  1  0.12266997  0.00256948  0.62837988  1
  V  V59  1  0.49659210  0.87819171  0.88187511  1
  V  V60  1  0.49782803  0.12467723  0.63030686  1
  V  V61  1  0.87180658  0.01089668  0.37703034  1
  V  V62  1  0.22889066  0.49614461  0.25105924  1
  V  V63  1  0.62157387  0.25198003  0.87538706  1
  V  V64  1  -0.02047901  0.37657863  0.87802091  1
  V  V65  1  0.24968100  0.12422138  0.37459759  1
  V  V66  1  0.38247068  0.49540322  0.87411524  1
  V  V67  1  0.87562485  0.87619030  0.00174805  1
  V  V68  1  0.49900103  0.75031424  0.25503139  1
  V  V69  1  0.87926199  0.74694741  0.12656636  1
  V  V70  1  0.74639928  0.75067248  0.49605797  1
  V  V71  1  0.74896776  0.37250625  0.62326485  1
  V  V72  1  0.24432537  0.74446969  0.49991061  1
  V  V73  1  0.74439808  0.74704622  0.00161667  1
  V  V74  1  0.88148130  0.38209904  0.50143414  1
  V  V75  1  0.24402404  0.25158327  -0.00219822  1
  V  V76  1  0.24945569  -0.00415923  0.24230060  1
  V  V77  1  0.50363582  0.50905023  -0.00001117  1
  V  V78  1  0.12493968  0.73985356  0.37974015  1
  V  V79  1  0.87378370  0.00528123  0.87647916  1
  V  V80  1  0.24958789  0.87931246  0.62952071  1
  V  V81  1  0.74838462  0.87854755  0.12872466  1
  V  V82  1  0.62274611  0.74707591  0.88039754  1
  V  V83  1  0.61782361  0.12473849  0.00378649  1
  V  V84  1  0.37347641  0.00016010  0.37638060  1
  Zn  Zn85  1  0.12303642  0.00333875  0.12711414  1
  Zn  Zn86  1  0.12430840  0.74996075  0.87803194  1
  Zn  Zn87  1  0.75035402  0.25740873  0.00781390  1
  Zn  Zn88  1  0.49757439  0.37786682  0.37122351  1
  Zn  Zn89  1  0.75588104  0.24820718  0.49367310  1
  Zn  Zn90  1  -0.00858154  0.50683967  0.00544153  1
  Zn  Zn91  1  0.62571581  0.49938240  0.62222374  1
  Zn  Zn92  1  0.37654321  0.62452383  0.75151420  1
  Zn  Zn93  1  0.50220005  0.62961141  0.12120555  1
  Zn  Zn94  1  0.01560368  0.23504819  0.75747528  1
  Zn  Zn95  1  0.36384028  0.88268700  0.00522763  1
  Zn  Zn96  1  0.24782340  0.37470488  0.62426707  1
  Zn  Zn97  1  0.75505264  -0.00386991  0.74554121  1
  Zn  Zn98  1  0.86280496  0.38854912  0.01626384  1
  Zn  Zn99  1  0.49057392  0.00735953  0.00430417  1
  Zn  Zn100  1  0.88076988  0.61846809  0.75070410  1
  Zn  Zn101  1  -0.00073170  0.62451527  0.60819565  1
  Zn  Zn102  1  0.74284672  0.00997526  0.26001854  1
  Zn  Zn103  1  0.88693424  0.12025135  0.74421363  1
  Zn  Zn104  1  0.79815731  0.43833691  0.19519335  1
  Zn  Zn105  1  0.74593302  0.62252702  0.37199436  1
  Zn  Zn106  1  0.25119910  0.61061342  0.38374124  1
  Zn  Zn107  1  0.19158761  0.19013539  0.18453423  1
  Zn  Zn108  1  0.18867911  0.18706680  0.68546605  1
  Zn  Zn109  1  0.18829340  0.68382086  0.19157992  1
  Zn  Zn110  1  0.18636891  0.68718057  0.68819739  1
  Zn  Zn111  1  0.69100516  0.18735018  0.19119106  1
  Zn  Zn112  1  0.68916471  0.18606696  0.68706286  1
  Zn  Zn113  1  0.68680397  0.68627256  0.18697402  1
  Zn  Zn114  1  0.68629554  0.68817311  0.68663678  1
  Zn  Zn115  1  0.31288375  0.31283393  0.31150430  1
  Zn  Zn116  1  0.31063325  0.31239821  0.81357592  1
  Zn  Zn117  1  0.31189358  0.81099749  0.31497022  1
  Zn  Zn118  1  0.31373733  0.81288498  0.81515581  1
  Zn  Zn119  1  0.85488326  0.26986139  0.13378926  1
  Zn  Zn120  1  0.80675942  0.31037124  0.81322215  1
  Zn  Zn121  1  0.81269181  0.81477865  0.31613245  1
  Zn  Zn122  1  0.81349635  0.81310044  0.81552896  1
  Zn  Zn123  1  0.19085693  0.43169282  0.43751190  1
  Zn  Zn124  1  0.19391462  0.43805626  0.93996095  1
  Zn  Zn125  1  0.18762073  0.93402602  0.43699623  1
  Zn  Zn126  1  0.18608368  0.94426691  0.93609165  1
  Zn  Zn127  1  0.68675057  0.43499677  0.43441631  1
  Zn  Zn128  1  0.68777724  0.44066683  0.93916117  1
  Zn  Zn129  1  0.68867763  0.93880202  0.43914827  1
  Zn  Zn130  1  0.68546633  0.93720971  0.93966275  1
  Zn  Zn131  1  0.31183689  0.06477744  0.05771227  1
  Zn  Zn132  1  0.31105335  0.06319565  0.56555018  1
  Zn  Zn133  1  0.31391282  0.56678947  0.06537151  1
  Zn  Zn134  1  0.31329436  0.56166036  0.56516486  1
  Zn  Zn135  1  0.80403743  0.06626962  0.05841917  1
  Zn  Zn136  1  0.81186428  0.06511862  0.56047775  1
  Zn  Zn137  1  0.81194331  0.56600448  0.05909026  1
  Zn  Zn138  1  0.81265976  0.56472783  0.56535979  1
  Zn  Zn139  1  0.44551048  0.43134363  0.18092657  1
  Zn  Zn140  1  0.43702930  0.43607541  0.68202047  1
  Zn  Zn141  1  0.43612995  0.93579737  0.19001367  1
  Zn  Zn142  1  0.44204394  0.93558824  0.68902790  1
  Zn  Zn143  1  0.96259154  0.44481661  0.19256767  1
  Zn  Zn144  1  0.94020329  0.43297918  0.68987871  1
  Zn  Zn145  1  0.93794449  0.93526322  0.19032796  1
  Zn  Zn146  1  0.94029949  0.93561457  0.69031054  1
  Zn  Zn147  1  0.06192142  0.06402581  0.31408697  1
  Zn  Zn148  1  0.06483582  0.06621437  0.82050328  1
  Zn  Zn149  1  0.05851249  0.55888067  0.43563087  1
  Zn  Zn150  1  0.06312487  0.55686753  0.81867705  1
  Zn  Zn151  1  0.56092640  0.06196403  0.31256220  1
  Zn  Zn152  1  0.55998131  0.06204757  0.81341781  1
  Zn  Zn153  1  0.56136555  0.56195090  0.30990312  1
  Zn  Zn154  1  0.56636766  0.56251796  0.81209222  1
  Zn  Zn155  1  0.44139008  0.18738740  0.43673452  1
  Zn  Zn156  1  0.43429280  0.18627567  0.93427717  1
  Zn  Zn157  1  0.43238786  0.68591874  0.43560026  1
  Zn  Zn158  1  0.43260145  0.68851855  0.93853189  1
  Zn  Zn159  1  0.93625569  0.19222473  0.43949604  1
  Zn  Zn160  1  0.94186957  0.20337934  0.94710968  1
  Zn  Zn161  1  0.93142260  0.68969543  0.43599567  1
  Zn  Zn162  1  0.93783277  0.68598978  0.93835950  1
  Zn  Zn163  1  0.04819809  0.35232935  0.07693304  1
  Zn  Zn164  1  0.06585279  0.31721575  0.56528560  1
  Zn  Zn165  1  0.06387829  0.81103881  0.06053457  1
  Zn  Zn166  1  0.05906063  0.81223373  0.56435168  1
  Zn  Zn167  1  0.56882791  0.31645356  0.06376956  1
  Zn  Zn168  1  0.56166883  0.31287127  0.56212424  1
  Zn  Zn169  1  0.55879467  0.81380503  0.06774839  1
  Zn  Zn170  1  0.56441764  0.81217830  0.56378806  1
  O  O171  1  0.13252237  0.12378728  0.11073097  1
  O  O172  1  0.13472646  0.11010391  0.61961732  1
  O  O173  1  0.12622214  0.62821701  0.11367745  1
  O  O174  1  0.12346714  0.60883588  0.63272528  1
  O  O175  1  0.63248647  0.11190397  0.11750681  1
  O  O176  1  0.61598269  0.11867199  0.61870174  1
  O  O177  1  0.61894440  0.60977022  0.13534624  1
  O  O178  1  0.61339648  0.62608847  0.61569253  1
  O  O179  1  0.37798614  0.36633867  0.39042681  1
  O  O180  1  0.36846945  0.38610415  0.88471999  1
  O  O181  1  0.38036200  0.88075964  0.38186029  1
  O  O182  1  0.38176097  0.88265562  0.87734329  1
  O  O183  1  0.88366897  0.38374973  0.38739461  1
  O  O184  1  0.88139458  0.38260211  0.85880208  1
  O  O185  1  0.88562425  0.88099690  0.38387487  1
  O  O186  1  0.87823593  0.88459852  0.88226425  1
  O  O187  1  0.25454436  0.00480636  0.36928258  1
  O  O188  1  0.25799716  0.01352837  0.87899694  1
  O  O189  1  0.24102874  0.49657952  0.35840693  1
  O  O190  1  0.26038927  0.50711714  0.86723676  1
  O  O191  1  0.76600939  -0.00874785  0.37324079  1
  O  O192  1  0.75796278  0.00527484  0.87698940  1
  O  O193  1  0.76551130  0.50039368  0.37723100  1
  O  O194  1  0.73638294  0.51579715  0.86480670  1
  O  O195  1  0.25940831  0.48753629  0.13275163  1
  O  O196  1  0.24357939  0.50066735  0.63534724  1
  O  O197  1  0.25105225  1.00273162  0.13990289  1
  O  O198  1  0.24033434  0.98709432  0.61915943  1
  O  O199  1  0.73374125  0.50605813  0.12443830  1
  O  O200  1  0.74730188  0.49030886  0.63282698  1
  O  O201  1  0.74185549  0.98740250  0.12600153  1
  O  O202  1  0.73558321  1.00497743  0.62585699  1
  O  O203  1  -0.00514692  0.35498532  0.26712888  1
  O  O204  1  0.01598808  0.37891201  0.75943038  1
  O  O205  1  0.00604388  0.86888000  0.26030446  1
  O  O206  1  0.00837204  0.86608952  0.75546832  1
  O  O207  1  0.50462869  0.36178989  0.25201899  1
  O  O208  1  0.51083849  0.36521662  0.73952904  1
  O  O209  1  0.50640228  0.86881802  0.25660438  1
  O  O210  1  0.50849767  0.86951436  0.76153015  1
  O  O211  1  0.49241838  0.13493402  0.25269731  1
  O  O212  1  0.50651678  0.13590040  0.73839072  1
  O  O213  1  0.48876525  0.63461586  0.25310730  1
  O  O214  1  0.50135277  0.63035747  0.74039905  1
  O  O215  1  0.99341444  0.13329594  0.25373270  1
  O  O216  1  1.00019245  0.12438912  0.75232815  1
  O  O217  1  0.98725873  0.64170794  0.25107704  1
  O  O218  1  1.00079609  0.63793274  0.75764807  1
  O  O219  1  0.37313103  0.25687723  0.00536115  1
  O  O220  1  0.37358140  0.25498318  0.50811880  1
  O  O221  1  0.36565904  0.75089341  0.01025145  1
  O  O222  1  0.36691554  0.75676014  0.50556273  1
  O  O223  1  0.87007143  0.25382659  0.01666742  1
  O  O224  1  0.87298659  0.25948607  0.51115067  1
  O  O225  1  0.86813812  0.75575357  0.00869510  1
  O  O226  1  0.86849070  0.75855152  0.50881786  1
  O  O227  1  0.13137229  0.24401773  0.49648883  1
  O  O228  1  0.14136453  0.24730559  1.00454825  1
  O  O229  1  0.13389838  0.76060271  0.49233263  1
  O  O230  1  0.13208308  0.73999222  0.99848435  1
  O  O231  1  0.62109298  0.24245459  0.49276055  1
  O  O232  1  0.62017824  0.24447672  0.98843350  1
  O  O233  1  0.63478426  0.74245947  0.50658373  1
  O  O234  1  0.63316555  0.76012296  0.99285225  1
  O  O235  1  0.49160255  0.25560763  0.13360881  1
  O  O236  1  0.49445064  0.24272982  0.63095894  1
  O  O237  1  0.49116687  0.74891443  0.13644522  1
  O  O238  1  0.49483461  0.74349225  0.62911210  1
  O  O239  1  1.01526262  0.25883625  0.14262401  1
  O  O240  1  0.98765683  0.25750340  0.62934356  1
  O  O241  1  0.98705889  0.76083000  0.13411635  1
  O  O242  1  0.99183347  0.74951341  0.63489148  1
  O  O243  1  0.00808678  0.25356013  0.37270098  1
  O  O244  1  -0.00590657  0.26788128  0.86631430  1
  O  O245  1  0.00526531  0.75904869  0.36841541  1
  O  O246  1  -0.00038986  0.75878667  0.86773134  1
  O  O247  1  0.50516362  0.25129426  0.36429409  1
  O  O248  1  0.50805970  0.24286003  0.86174520  1
  O  O249  1  0.49259492  0.75711087  0.36400804  1
  O  O250  1  0.50464748  0.75626575  0.87281907  1
  O  O251  1  0.24572702  0.12943316  0.49406310  1
  O  O252  1  0.24437437  0.13530927  0.99546369  1
  O  O253  1  0.25719318  0.63955442  0.50015638  1
  O  O254  1  0.24405578  0.63366105  0.99564964  1
  O  O255  1  0.73367231  0.12938250  0.50544633  1
  O  O256  1  0.73554271  0.12674523  0.98748385  1
  O  O257  1  0.74026169  0.63120703  0.50044513  1
  O  O258  1  0.75101842  0.64135387  0.99194351  1
  O  O259  1  0.26314671  0.37124379  0.00887347  1
  O  O260  1  0.25979686  0.36681413  0.50287536  1
  O  O261  1  0.24455843  0.86041706  -0.00669269  1
  O  O262  1  0.25488222  0.86720925  0.50920774  1
  O  O263  1  0.75703081  0.36798552  -0.01895208  1
  O  O264  1  0.75787358  0.37428201  0.50952891  1
  O  O265  1  0.75445242  0.86760356  0.00883586  1
  O  O266  1  0.76092339  0.86819202  0.49721854  1
  O  O267  1  0.13481581  0.49779996  0.24117042  1
  O  O268  1  0.13506178  0.49123690  0.74478177  1
  O  O269  1  0.13127769  0.99329317  0.25070751  1
  O  O270  1  0.11708083  0.98660978  0.74195648  1
  O  O271  1  0.61361626  0.49021480  0.23826317  1
  O  O272  1  0.63080857  0.49088787  0.74651353  1
  O  O273  1  0.62566722  0.99215334  0.24340703  1
  O  O274  1  0.62423595  0.99325455  0.74313855  1
  O  O275  1  0.36833759  0.00271513  0.25618204  1
  O  O276  1  0.37821524  -0.00317491  0.76146415  1
  O  O277  1  0.38631199  0.51227042  0.24631699  1
  O  O278  1  0.36855152  0.49792693  0.75574531  1
  O  O279  1  0.88178268  0.00985100  0.25946648  1
  O  O280  1  0.87410840  -0.00168014  0.76169091  1
  O  O281  1  0.87992490  0.50846719  0.25511174  1
  O  O282  1  0.85999195  0.49994169  0.74359177  1
  O  O283  1  0.11575436  0.36054080  0.38440838  1
  O  O284  1  0.13523785  0.37548260  0.86176785  1
  O  O285  1  0.11470959  0.86925414  0.36890940  1
  O  O286  1  0.12025323  0.87606532  0.86614537  1
  O  O287  1  0.61784423  0.36766017  0.36881128  1
  O  O288  1  0.62767458  0.36453008  0.86183260  1
  O  O289  1  0.61945480  0.88206848  0.36372241  1
  O  O290  1  0.61674008  0.86843753  0.86965746  1
  O  O291  1  0.37013239  0.13648946  0.13011608  1
  O  O292  1  0.38577712  0.13497875  0.61895184  1
  O  O293  1  0.37698601  0.63534077  0.13887299  1
  O  O294  1  0.38635100  0.63139533  0.62632318  1
  O  O295  1  0.87808592  0.11204501  0.13364191  1
  O  O296  1  0.86998951  0.14172626  0.62279572  1
  O  O297  1  0.86730100  0.64080893  0.13349524  1
  O  O298  1  0.87976158  0.63631159  0.62977824  1
  O  O299  1  0.26531357  0.25910667  0.11994658  1
  O  O300  1  0.26119845  0.24819867  0.61848556  1
  O  O301  1  0.25766087  0.74443404  0.11857942  1
  O  O302  1  0.25260796  0.75801244  0.61889360  1
  O  O303  1  0.74269935  0.25454038  0.12223868  1
  O  O304  1  0.75639980  0.26194667  0.62543442  1
  O  O305  1  0.75370093  0.75941537  0.11937675  1
  O  O306  1  0.76078628  0.74678532  0.61679678  1
  O  O307  1  0.24229315  0.24519124  0.37792035  1
  O  O308  1  0.26168191  0.23787726  0.88667381  1
  O  O309  1  0.24014552  0.75201714  0.38443147  1
  O  O310  1  0.25229915  0.74038758  0.88368266  1
  O  O311  1  0.73180453  0.24967525  0.37657837  1
  O  O312  1  0.73548974  0.23844889  0.86974253  1
  O  O313  1  0.75946571  0.74560331  0.39164339  1
  O  O314  1  0.74146726  0.74834363  0.88285679  1
  O  O315  1  0.01101479  0.11812206  -0.00993139  1
  O  O316  1  0.00578207  0.11151896  0.49611807  1
  O  O317  1  0.01805756  0.62501968  -0.00837924  1
  O  O318  1  0.00396827  0.63366651  0.49687841  1
  O  O319  1  0.51350941  0.12549433  -0.00499633  1
  O  O320  1  0.50746493  0.11945868  0.51006535  1
  O  O321  1  0.49456105  0.61440799  0.00128635  1
  O  O322  1  0.50372374  0.62201232  0.50485870  1
  O  O323  1  0.49381750  0.38501362  0.50234150  1
  O  O324  1  0.48950751  0.38464210  1.00288756  1
  O  O325  1  0.49521995  0.87943843  0.49738923  1
  O  O326  1  0.49889555  0.87501472  0.98792578  1
  O  O327  1  0.99030739  0.36825570  0.49254959  1
  O  O328  1  0.98445487  0.36529424  0.98233015  1
  O  O329  1  0.99209147  0.88215150  0.49313352  1
  O  O330  1  0.99521527  0.88255276  0.99539769  1
  O  O331  1  0.50015812  0.50087658  0.38899228  1
  O  O332  1  0.48997011  0.50664099  0.88039222  1
  O  O333  1  0.49299454  0.99366612  0.38147760  1
  O  O334  1  0.49187734  0.99307284  0.87680107  1
  O  O335  1  0.99281865  0.48564324  0.37487852  1
  O  O336  1  1.01039890  0.48034923  0.88219606  1
  O  O337  1  0.99499816  0.99182298  0.38490844  1
  O  O338  1  0.99106682  0.99505869  0.88616150  1
  O  O339  1  -0.00125021  -0.00582297  0.11136121  1
  O  O340  1  0.01047607  -0.00945806  0.61460366  1
  O  O341  1  0.02715971  0.46302454  0.10529608  1
  O  O342  1  0.01391246  0.50150800  0.63095727  1
  O  O343  1  0.51136691  -0.00831331  0.12326402  1
  O  O344  1  0.50660491  0.00755553  0.62150896  1
  O  O345  1  0.50574321  0.50472872  0.11503167  1
  O  O346  1  0.50078017  0.51091914  0.61666838  1
  O  O347  1  0.26124148  0.38630436  0.23947395  1
  O  O348  1  0.24377938  0.38384334  0.74796054  1
  O  O349  1  0.23964237  0.88451811  0.26062472  1
  O  O350  1  0.24013012  0.86606651  0.74018741  1
  O  O351  1  0.73014148  0.37479627  0.25767527  1
  O  O352  1  0.74063922  0.38208179  0.74343146  1
  O  O353  1  0.74187113  0.87271624  0.24326992  1
  O  O354  1  0.73501563  0.87608525  0.75723056  1
  O  O355  1  0.25560589  0.11685484  0.25594577  1
  O  O356  1  0.24406108  0.13232931  0.76798854  1
  O  O357  1  0.25936982  0.60756813  0.24644476  1
  O  O358  1  0.25246014  0.61730441  0.75776316  1
  O  O359  1  0.77092076  0.12307577  0.24885498  1
  O  O360  1  0.75229230  0.11958018  0.76110769  1
  O  O361  1  0.76462437  0.63503516  0.25495467  1
  O  O362  1  0.74891051  0.61794427  0.75481073  1
  O  O363  1  0.37001574  0.11941026  0.36978920  1
  O  O364  1  0.36294456  0.11653778  0.87898399  1
  O  O365  1  0.36682184  0.63048472  0.35804013  1
  O  O366  1  0.36550494  0.61518888  0.87430705  1
  O  O367  1  0.88089257  0.11353852  0.37579410  1
  O  O368  1  0.86493551  0.11589507  0.87931772  1
  O  O369  1  0.87571789  0.61489291  0.36730786  1
  O  O370  1  0.85846070  0.63706654  0.86865971  1
  O  O371  1  0.15326079  0.36355509  0.12355948  1
  O  O372  1  0.12802579  0.38933940  0.63348602  1
  O  O373  1  0.11930547  0.87504054  0.14170512  1
  O  O374  1  0.13120718  0.88149072  0.63125433  1
  O  O375  1  0.61887468  0.38954932  0.13474760  1
  O  O376  1  0.63357698  0.37325110  0.63266279  1
  O  O377  1  0.63081083  0.88142666  0.13434674  1
  O  O378  1  0.61524925  0.88612311  0.63627043  1
  O  O379  1  0.11676464  0.23771879  0.26363838  1
  O  O380  1  0.12846891  0.26921850  0.73812341  1
  O  O381  1  0.12013682  0.75521865  0.25865297  1
  O  O382  1  0.11670116  0.75995936  0.75063283  1
  O  O383  1  0.61636263  0.25277009  0.25570243  1
  O  O384  1  0.61774679  0.25582609  0.75456047  1
  O  O385  1  0.61326260  0.76050673  0.24284560  1
  O  O386  1  0.61992555  0.75829287  0.75738635  1
  O  O387  1  0.38121373  0.24499240  0.24289681  1
  O  O388  1  0.38508294  0.26045027  0.73891507  1
  O  O389  1  0.37968297  0.74677029  0.24454113  1
  O  O390  1  0.38185854  0.74867565  0.74417609  1
  O  O391  1  0.89144773  0.23151014  0.24124785  1
  O  O392  1  0.87214759  0.25036075  0.73476129  1
  O  O393  1  0.88136437  0.74835769  0.24569783  1
  O  O394  1  0.88273199  0.75583874  0.74222486  1
  O  O395  1  0.38261751  0.49001057  0.50746532  1
  O  O396  1  0.38143581  0.49481726  0.99383533  1
  O  O397  1  0.37972840  0.99511225  0.49697875  1
  O  O398  1  0.37551319  0.99754601  0.99123922  1
  O  O399  1  0.87354024  0.49122172  0.49577825  1
  O  O400  1  0.87845474  0.50226555  1.00061535  1
  O  O401  1  0.88098707  0.99482244  0.49807089  1
  O  O402  1  0.87962147  0.99718910  0.99417205  1
  O  O403  1  0.11655214  0.00772988  0.00433036  1
  O  O404  1  0.11804759  0.00170436  0.50667641  1
  O  O405  1  0.13680589  0.51801305  -0.00315647  1
  O  O406  1  0.12917348  0.49826697  0.51207441  1
  O  O407  1  0.62153021  0.00638529  0.00791916  1
  O  O408  1  0.61954113  0.00517977  0.50681192  1
  O  O409  1  0.61427413  0.49347438  0.01290710  1
  O  O410  1  0.61643625  0.50900354  0.50228616  1
  O  O411  1  0.37176542  0.36536967  0.11584145  1
  O  O412  1  0.37392605  0.36352965  0.61463982  1
  O  O413  1  0.37796002  0.86241810  0.12395359  1
  O  O414  1  0.36820581  0.87151796  0.62214517  1
  O  O415  1  0.87708484  0.38309051  0.13570909  1
  O  O416  1  0.86942312  0.36857324  0.62017276  1
  O  O417  1  0.86505517  0.86816562  0.12407815  1
  O  O418  1  0.88076200  0.86781727  0.61476327  1
  O  O419  1  0.12995252  0.13169765  0.38420207  1
  O  O420  1  0.14204655  0.11927042  0.88980925  1
  O  O421  1  0.12942903  0.63736267  0.37576259  1
  O  O422  1  0.13974118  0.62673056  0.87801101  1
  O  O423  1  0.61594753  0.13113457  0.38625854  1
  O  O424  1  0.62953854  0.13020634  0.88019229  1
  O  O425  1  0.62517183  0.62245038  0.38656810  1
  O  O426  1  0.63216318  0.64184347  0.86964988  1
