# generated using pymatgen
data_V85Zn86O256
_symmetry_space_group_name_H-M   'P 1'
_cell_length_a   16.96241956
_cell_length_b   16.96836674
_cell_length_c   16.96909005
_cell_angle_alpha   90.05177720
_cell_angle_beta   90.02778650
_cell_angle_gamma   89.94367679
_symmetry_Int_Tables_number   1
_chemical_formula_structural   V85Zn86O256
_chemical_formula_sum   'V85 Zn86 O256'
_cell_volume   4884.11588110
_cell_formula_units_Z   1
loop_
 _symmetry_equiv_pos_site_id
 _symmetry_equiv_pos_as_xyz
  1  'x, y, z'
loop_
 _atom_site_type_symbol
 _atom_site_label
 _atom_site_symmetry_multiplicity
 _atom_site_fract_x
 _atom_site_fract_y
 _atom_site_fract_z
 _atom_site_occupancy
  V  V0  1  -0.00683985  0.62761677  0.62479169  1
  V  V1  1  0.25109698  0.49939306  0.74775676  1
  V  V2  1  0.87349484  0.61975464  0.26159391  1
  V  V3  1  0.63069387  0.37491367  0.74691406  1
  V  V4  1  0.49392728  0.87907613  0.87587446  1
  V  V5  1  -0.00466925  0.12908629  0.12945794  1
  V  V6  1  0.75372684  0.75458277  0.00190990  1
  V  V7  1  0.25196521  0.74759980  0.50202607  1
  V  V8  1  0.49087364  0.00336659  -0.00425861  1
  V  V9  1  -0.00060648  0.76269637  0.74628354  1
  V  V10  1  0.50152879  0.37664331  0.87672972  1
  V  V11  1  0.24653574  -0.01661595  0.75661204  1
  V  V12  1  0.37781508  0.87321580  0.50280292  1
  V  V13  1  0.37251866  0.37659044  0.00258599  1
  V  V14  1  0.62475436  -0.00140317  0.62911530  1
  V  V15  1  -0.00385900  0.61390965  0.11391170  1
  V  V16  1  0.50094205  0.64521493  0.12886643  1
  V  V17  1  0.62403998  0.75152857  0.87546335  1
  V  V18  1  0.37360029  0.12405078  0.25337338  1
  V  V19  1  0.75197271  0.11136014  0.88055747  1
  V  V20  1  0.50079260  0.62644684  0.62479549  1
  V  V21  1  0.62548781  0.24887757  0.37804031  1
  V  V22  1  0.10527961  0.37434598  0.75166763  1
  V  V23  1  0.00431034  -0.00584399  -0.00414747  1
  V  V24  1  0.87310444  0.87128569  0.50398270  1
  V  V25  1  0.50066589  0.24891671  0.25187681  1
  V  V26  1  0.50117167  0.37465998  0.37515681  1
  V  V27  1  0.50064034  0.24962996  0.75200329  1
  V  V28  1  -0.00394945  0.12838948  0.63156614  1
  V  V29  1  0.24871575  0.74468682  0.00563139  1
  V  V30  1  0.75407264  0.50181780  0.26022612  1
  V  V31  1  0.62828343  0.37434115  0.25011597  1
  V  V32  1  0.36860071  0.25057966  0.12704695  1
  V  V33  1  0.88630439  0.36387917  0.00087431  1
  V  V34  1  0.63645437  0.25190211  0.88020876  1
  V  V35  1  0.37198193  0.87265868  0.00490599  1
  V  V36  1  0.87663492  0.75347635  0.12294677  1
  V  V37  1  0.12082085  0.12807942  0.50313409  1
  V  V38  1  0.62903227  0.62645532  0.49338797  1
  V  V39  1  0.49486121  0.12384809  0.62864142  1
  V  V40  1  0.75515717  0.26161114  0.50636287  1
  V  V41  1  0.73623672  -0.01241006  0.23914269  1
  V  V42  1  0.74980066  0.87199221  0.62678753  1
  V  V43  1  0.37415095  0.50126717  0.87520928  1
  V  V44  1  0.88546298  0.87128191  -0.01085078  1
  V  V45  1  0.75104544  0.49751463  0.74814338  1
  V  V46  1  0.00064072  0.00137562  0.50058413  1
  V  V47  1  0.12368718  0.50170783  0.61779341  1
  V  V48  1  0.62635134  0.50114240  0.12454981  1
  V  V49  1  0.13380759  0.12826025  -0.00293090  1
  V  V50  1  0.75059295  0.62396606  0.87452621  1
  V  V51  1  0.50296033  0.11990540  0.12647803  1
  V  V52  1  0.62491338  0.62579435  0.00109730  1
  V  V53  1  0.75459114  0.36130209  0.11755726  1
  V  V54  1  0.37447580  -0.00167364  0.37812367  1
  V  V55  1  0.75069320  0.12199522  0.37731981  1
  V  V56  1  0.87423443  0.26167144  0.63046180  1
  V  V57  1  0.74954565  0.74891020  0.49863617  1
  V  V58  1  0.25006595  0.37657667  0.62101354  1
  V  V59  1  0.12644980  -0.00497641  0.12833019  1
  V  V60  1  0.12308124  0.76240341  0.86806256  1
  V  V61  1  -0.01417422  0.38175527  0.37828264  1
  V  V62  1  0.37407656  0.50085220  0.36430103  1
  V  V63  1  0.62758803  0.49867694  0.62504536  1
  V  V64  1  0.88737557  0.49738584  0.88335253  1
  V  V65  1  -0.01770719  0.49959663  0.49630312  1
  V  V66  1  0.87193903  -0.00052879  0.37086635  1
  V  V67  1  0.12437669  0.74760574  0.37308000  1
  V  V68  1  0.50240134  0.87276183  0.35980910  1
  V  V69  1  0.12972573  0.38371286  0.25088918  1
  V  V70  1  -0.00150658  0.87190640  0.37227916  1
  V  V71  1  0.24887506  -0.00233522  0.25644114  1
  V  V72  1  0.49943044  0.75138204  0.75111767  1
  V  V73  1  0.50154255  0.50038000  0.49887281  1
  V  V74  1  0.38193914  0.64252566  0.24667825  1
  V  V75  1  0.62277542  0.75376440  0.36448588  1
  V  V76  1  0.24940920  0.25130981  0.49907245  1
  V  V77  1  0.62470888  0.12378544  0.50434745  1
  V  V78  1  0.37561120  0.37564878  0.49926187  1
  V  V79  1  0.36327390  0.12501589  0.76795428  1
  V  V80  1  0.12093438  0.25361381  0.37212158  1
  V  V81  1  0.37213229  0.75231867  0.62686533  1
  V  V82  1  0.25125097  0.62034122  0.36458590  1
  V  V83  1  0.62485061  0.12772084  0.00307438  1
  V  V84  1  0.13337821  0.49895484  0.11575379  1
  Zn  Zn85  1  0.37393414  0.25085901  0.62672732  1
  Zn  Zn86  1  0.25936689  0.23498246  -0.01960411  1
  Zn  Zn87  1  0.11978319  0.61322226  -0.01286139  1
  Zn  Zn88  1  0.12542511  0.87263811  0.25135633  1
  Zn  Zn89  1  0.12760830  -0.02374603  0.63995365  1
  Zn  Zn90  1  0.25599752  0.38362624  0.13318241  1
  Zn  Zn91  1  0.87593639  0.62863764  0.74827170  1
  Zn  Zn92  1  0.49856753  -0.00173399  0.50103178  1
  Zn  Zn93  1  0.37540857  0.62438354  0.75009883  1
  Zn  Zn94  1  0.49914840  0.50388903  0.00201797  1
  Zn  Zn95  1  0.75529617  -0.00150099  0.75178464  1
  Zn  Zn96  1  0.88078414  0.12843628  0.75761027  1
  Zn  Zn97  1  -0.00077929  0.74607012  0.24762250  1
  Zn  Zn98  1  0.86679302  0.12859806  0.23806504  1
  Zn  Zn99  1  0.11560257  0.25260440  0.86635727  1
  Zn  Zn100  1  0.24711383  0.62439880  0.87279014  1
  Zn  Zn101  1  0.12347601  0.62140760  0.49391277  1
  Zn  Zn102  1  0.25546910  0.86686832  0.13160071  1
  Zn  Zn103  1  -0.01059616  0.25836576  0.24424974  1
  Zn  Zn104  1  0.62649518  0.87728351  0.75685497  1
  Zn  Zn105  1  0.88805078  -0.00759899  0.87006270  1
  Zn  Zn106  1  0.24681622  0.12272133  0.37898860  1
  Zn  Zn107  1  0.18257613  0.18570275  0.19070616  1
  Zn  Zn108  1  0.18620667  0.19052743  0.68544380  1
  Zn  Zn109  1  0.18509043  0.68042903  0.18826763  1
  Zn  Zn110  1  0.18341130  0.68654124  0.68736952  1
  Zn  Zn111  1  0.68810482  0.18258906  0.19082183  1
  Zn  Zn112  1  0.69073631  0.18632577  0.69279466  1
  Zn  Zn113  1  0.69307730  0.68621915  0.18605627  1
  Zn  Zn114  1  0.68582010  0.68801293  0.68705951  1
  Zn  Zn115  1  0.31043203  0.31224609  0.31398294  1
  Zn  Zn116  1  0.30616230  0.30981509  0.81079126  1
  Zn  Zn117  1  0.31216903  0.81441130  0.31791462  1
  Zn  Zn118  1  0.31115081  0.81154773  0.81718240  1
  Zn  Zn119  1  0.81065844  0.30948333  0.30837452  1
  Zn  Zn120  1  0.82036380  0.31241076  0.81652156  1
  Zn  Zn121  1  0.80812079  0.80883135  0.31006398  1
  Zn  Zn122  1  0.81616762  0.81168039  0.81064946  1
  Zn  Zn123  1  0.18625357  0.43832482  0.43445632  1
  Zn  Zn124  1  0.19223916  0.41756616  0.92916312  1
  Zn  Zn125  1  0.17694876  0.92560491  0.46263955  1
  Zn  Zn126  1  0.19195408  0.93960788  0.93538306  1
  Zn  Zn127  1  0.68930444  0.43758648  0.43846918  1
  Zn  Zn128  1  0.69165951  0.43787551  0.93855940  1
  Zn  Zn129  1  0.68461062  0.93625776  0.43741503  1
  Zn  Zn130  1  0.67441855  0.92939833  0.96860080  1
  Zn  Zn131  1  0.31410382  0.05824593  0.06780630  1
  Zn  Zn132  1  0.30608685  0.05938652  0.56901292  1
  Zn  Zn133  1  0.31606369  0.56696237  0.06578345  1
  Zn  Zn134  1  0.31428030  0.56459143  0.55762318  1
  Zn  Zn135  1  0.81324925  0.05772214  0.05706441  1
  Zn  Zn136  1  0.81424897  0.06278490  0.56294181  1
  Zn  Zn137  1  0.81146140  0.55890933  0.06352616  1
  Zn  Zn138  1  0.80972097  0.56486699  0.56333741  1
  Zn  Zn139  1  0.44251473  0.43923974  0.18763940  1
  Zn  Zn140  1  0.44031068  0.43657540  0.68719106  1
  Zn  Zn141  1  0.43622802  0.93776339  0.18455663  1
  Zn  Zn142  1  0.43003480  0.94116330  0.69286845  1
  Zn  Zn143  1  0.93790593  0.43645034  0.18716173  1
  Zn  Zn144  1  0.93037944  0.44545163  0.68300517  1
  Zn  Zn145  1  0.93332067  0.93913230  0.18560652  1
  Zn  Zn146  1  0.93714071  0.94533815  0.68643131  1
  Zn  Zn147  1  0.06147009  0.06187018  0.31495164  1
  Zn  Zn148  1  0.07101692  0.06432388  0.81314820  1
  Zn  Zn149  1  0.05874524  0.56054654  0.30714025  1
  Zn  Zn150  1  0.06584009  0.56651945  0.80765555  1
  Zn  Zn151  1  0.56226864  0.05863078  0.31415995  1
  Zn  Zn152  1  0.56252316  0.06349357  0.81444011  1
  Zn  Zn153  1  0.56274019  0.56473828  0.30905227  1
  Zn  Zn154  1  0.56186227  0.56349065  0.81231857  1
  Zn  Zn155  1  0.43663962  0.18578803  0.44018235  1
  Zn  Zn156  1  0.44263274  0.19453962  0.93902332  1
  Zn  Zn157  1  0.44135959  0.68782138  0.43430380  1
  Zn  Zn158  1  0.43628600  0.68803850  0.94127604  1
  Zn  Zn159  1  0.93531748  0.19180417  0.43831334  1
  Zn  Zn160  1  0.94340855  0.18632747  0.94186544  1
  Zn  Zn161  1  0.93719971  0.68695739  0.44164982  1
  Zn  Zn162  1  0.94144880  0.68666889  0.93042560  1
  Zn  Zn163  1  0.06432452  0.31195058  0.06276820  1
  Zn  Zn164  1  0.05683377  0.31474290  0.56231937  1
  Zn  Zn165  1  0.06516660  0.80653593  0.06143031  1
  Zn  Zn166  1  0.06338112  0.81005724  0.56317854  1
  Zn  Zn167  1  0.56015294  0.31190250  0.06491419  1
  Zn  Zn168  1  0.56382621  0.31086578  0.56438867  1
  Zn  Zn169  1  0.56956764  0.82314249  0.06899607  1
  Zn  Zn170  1  0.56216176  0.81223466  0.56080256  1
  O  O171  1  0.11847466  0.11157300  0.12257267  1
  O  O172  1  0.11252789  0.13716918  0.61195745  1
  O  O173  1  0.11296108  0.61215250  0.12621487  1
  O  O174  1  0.11696972  0.61415630  0.62141320  1
  O  O175  1  0.61100623  0.13794310  0.11776809  1
  O  O176  1  0.61723138  0.11760111  0.62589343  1
  O  O177  1  0.61988299  0.61963122  0.12253040  1
  O  O178  1  0.62017073  0.62002698  0.61538677  1
  O  O179  1  0.38067727  0.38246987  0.37806534  1
  O  O180  1  0.37998102  0.38236625  0.88314465  1
  O  O181  1  0.38542884  0.87797484  0.38224067  1
  O  O182  1  0.38660202  0.86844255  0.88693150  1
  O  O183  1  0.88799750  0.37519960  0.36956615  1
  O  O184  1  0.87006701  0.38709879  0.88813416  1
  O  O185  1  0.87846019  0.88056948  0.38111445  1
  O  O186  1  0.88196615  0.87284683  0.88423494  1
  O  O187  1  0.25407672  -0.00194890  0.36773377  1
  O  O188  1  0.24949667  -0.00153608  0.85826873  1
  O  O189  1  0.26128800  0.51074505  0.38119056  1
  O  O190  1  0.25922573  0.49581543  0.86539322  1
  O  O191  1  0.75451849  0.00420572  0.37150695  1
  O  O192  1  0.74324297  0.00796070  0.88174248  1
  O  O193  1  0.74756682  0.49396316  0.35984396  1
  O  O194  1  0.75212877  0.50940378  0.86691874  1
  O  O195  1  0.23657662  0.50582529  0.12751575  1
  O  O196  1  0.24345938  0.49788763  0.62581872  1
  O  O197  1  0.24304245  0.99686581  0.13869767  1
  O  O198  1  0.24199000  1.01359842  0.64726033  1
  O  O199  1  0.73903965  0.49611015  0.13259270  1
  O  O200  1  0.74452046  0.50692216  0.63973817  1
  O  O201  1  0.75616044  1.01159370  0.14329728  1
  O  O202  1  0.74102290  0.99164897  0.62489450  1
  O  O203  1  0.00719262  0.37718723  0.26153025  1
  O  O204  1  0.00763249  0.38005118  0.73574679  1
  O  O205  1  -0.00317018  0.87198139  0.26316320  1
  O  O206  1  0.00068620  0.86167141  0.73624747  1
  O  O207  1  0.50792596  0.36873932  0.25588495  1
  O  O208  1  0.51035109  0.37142018  0.75654190  1
  O  O209  1  0.49627164  0.87835780  0.26038213  1
  O  O210  1  0.49721933  0.87106512  0.76024758  1
  O  O211  1  0.49553315  0.12847886  0.24484303  1
  O  O212  1  0.49136946  0.12904798  0.74614250  1
  O  O213  1  0.49480405  0.62518262  0.24060246  1
  O  O214  1  0.49955208  0.63236937  0.74313638  1
  O  O215  1  0.99981071  0.11858333  0.23555976  1
  O  O216  1  1.00374389  0.12092617  0.73528257  1
  O  O217  1  0.98646833  0.62375631  0.23896522  1
  O  O218  1  0.99946790  0.63015920  0.73748926  1
  O  O219  1  0.37386800  0.25785173  0.00912914  1
  O  O220  1  0.36826084  0.25804806  0.49928895  1
  O  O221  1  0.35720882  0.75546811  -0.00536599  1
  O  O222  1  0.37225715  0.75232798  0.50673234  1
  O  O223  1  0.87491022  0.26520406  -0.00549175  1
  O  O224  1  0.86028264  0.24773653  0.50790846  1
  O  O225  1  0.87486396  0.75239012  0.00282780  1
  O  O226  1  0.86374131  0.76075063  0.49202645  1
  O  O227  1  0.12760753  0.24740160  0.49186737  1
  O  O228  1  0.12979218  0.23268660  1.01097574  1
  O  O229  1  0.13398989  0.74343466  0.48754431  1
  O  O230  1  0.13358324  0.74666358  0.98710325  1
  O  O231  1  0.63531860  0.24411331  0.49876874  1
  O  O232  1  0.61448426  0.24052757  0.99046834  1
  O  O233  1  0.63051785  0.74260461  0.49506292  1
  O  O234  1  0.63695285  0.74304429  0.99371877  1
  O  O235  1  0.48901455  0.24323277  0.13206295  1
  O  O236  1  0.50158560  0.23976846  0.63295183  1
  O  O237  1  0.50981273  0.74426698  0.12121765  1
  O  O238  1  0.49282526  0.74615267  0.63017601  1
  O  O239  1  1.00758167  0.23213334  0.12672638  1
  O  O240  1  0.98151004  0.24354790  0.61474777  1
  O  O241  1  0.99526329  0.73619620  0.12705802  1
  O  O242  1  1.01182001  0.74029242  0.63534196  1
  O  O243  1  0.00748051  0.26578580  0.38061627  1
  O  O244  1  0.00654518  0.23647015  0.86861427  1
  O  O245  1  0.00743495  0.75497245  0.37544431  1
  O  O246  1  0.01329775  0.74536426  0.86124495  1
  O  O247  1  0.50539863  0.25405615  0.37189054  1
  O  O248  1  0.51154371  0.25758401  0.86965267  1
  O  O249  1  0.51345665  0.75749372  0.37724136  1
  O  O250  1  0.50374697  0.75622253  0.87201612  1
  O  O251  1  0.23890320  0.13212857  0.49976136  1
  O  O252  1  0.23888000  0.12203814  1.01025539  1
  O  O253  1  0.25207386  0.63372408  0.48553833  1
  O  O254  1  0.24870694  0.63652259  0.99913956  1
  O  O255  1  0.74394335  0.12715854  0.49174161  1
  O  O256  1  0.73749574  0.11979173  0.99218798  1
  O  O257  1  0.73971578  0.63498928  0.50531157  1
  O  O258  1  0.74725631  0.63091137  0.99044387  1
  O  O259  1  0.26623813  0.37775769  0.01069864  1
  O  O260  1  0.25524884  0.37188040  0.50190216  1
  O  O261  1  0.25610378  0.86522461  0.00073327  1
  O  O262  1  0.26880050  0.85642502  0.48497560  1
  O  O263  1  0.75318906  0.37619626  0.01402296  1
  O  O264  1  0.74538954  0.36050908  0.50061712  1
  O  O265  1  0.76890686  0.85825817  -0.01108764  1
  O  O266  1  0.75444382  0.86967364  0.50712635  1
  O  O267  1  0.11946176  0.49085081  0.23789897  1
  O  O268  1  0.13087595  0.49362396  0.73587304  1
  O  O269  1  0.13232012  0.99773687  0.24693874  1
  O  O270  1  0.13694522  0.99604926  0.75223576  1
  O  O271  1  0.63278710  0.49523726  0.24399050  1
  O  O272  1  0.63152607  0.49387467  0.74706116  1
  O  O273  1  0.63678388  1.00038169  0.25288256  1
  O  O274  1  0.62724917  0.99786727  0.74011718  1
  O  O275  1  0.36700177  0.00409120  0.25598400  1
  O  O276  1  0.36371480  0.01819853  0.74886532  1
  O  O277  1  0.38037212  0.50413952  0.26165975  1
  O  O278  1  0.36935456  0.49866096  0.75750102  1
  O  O279  1  0.86848314  0.00411962  0.26114072  1
  O  O280  1  0.87285595  0.00745710  0.75742379  1
  O  O281  1  0.86928815  0.51232650  0.24348058  1
  O  O282  1  0.86464008  0.49954747  0.76227262  1
  O  O283  1  0.11987058  0.37056485  0.36772427  1
  O  O284  1  0.11204133  0.39140246  0.85274343  1
  O  O285  1  0.11429511  0.86521782  0.37778352  1
  O  O286  1  0.12573447  0.86083145  0.87835297  1
  O  O287  1  0.62054455  0.36883002  0.37050762  1
  O  O288  1  0.62234872  0.37072101  0.86987302  1
  O  O289  1  0.61572765  0.86285927  0.38165980  1
  O  O290  1  0.61236594  0.86902613  0.87991721  1
  O  O291  1  0.38243068  0.13254202  0.13241528  1
  O  O292  1  0.38592377  0.12779317  0.63040510  1
  O  O293  1  0.38922980  0.62092251  0.13491983  1
  O  O294  1  0.38277120  0.63453404  0.62346481  1
  O  O295  1  0.89237990  0.11755979  0.11936853  1
  O  O296  1  0.88273640  0.12996276  0.62612801  1
  O  O297  1  0.88611783  0.62922925  0.12391556  1
  O  O298  1  0.88800205  0.62228982  0.62647336  1
  O  O299  1  0.26449344  0.24876206  0.13055450  1
  O  O300  1  0.25172531  0.25934018  0.61537403  1
  O  O301  1  0.23592476  0.75037657  0.10967805  1
  O  O302  1  0.25889687  0.73892654  0.61306972  1
  O  O303  1  0.74694192  0.26306636  0.13051507  1
  O  O304  1  0.75691210  0.24177955  0.61322357  1
  O  O305  1  0.76362009  0.73840203  0.11063671  1
  O  O306  1  0.74188044  0.76165469  0.61395153  1
  O  O307  1  0.23764398  0.24930807  0.38041563  1
  O  O308  1  0.22609671  0.28321256  0.88493252  1
  O  O309  1  0.24343108  0.74013351  0.37992110  1
  O  O310  1  0.23901989  0.74698802  0.88097688  1
  O  O311  1  0.74605670  0.24221224  0.38723351  1
  O  O312  1  0.73962961  0.24395756  0.87358412  1
  O  O313  1  0.73551510  0.75890133  0.38851809  1
  O  O314  1  0.74788704  0.73988805  0.87884227  1
  O  O315  1  0.01263562  0.11470143  0.01394441  1
  O  O316  1  0.00265219  0.12231931  0.50546182  1
  O  O317  1  0.00251331  0.62736445  0.01129282  1
  O  O318  1  0.00218503  0.61770092  0.50556359  1
  O  O319  1  0.49963708  0.12197582  0.00811562  1
  O  O320  1  0.50529069  0.12399387  0.51202075  1
  O  O321  1  0.50598726  0.62463949  0.01080997  1
  O  O322  1  0.50926116  0.62021414  0.50432157  1
  O  O323  1  0.49767647  0.37965264  0.49458679  1
  O  O324  1  0.48907745  0.37758261  0.99679336  1
  O  O325  1  0.48886513  0.87449466  0.49348649  1
  O  O326  1  0.49083647  0.88379472  0.99465435  1
  O  O327  1  1.00175499  0.38490917  0.48673094  1
  O  O328  1  0.98521245  0.37561472  1.01133221  1
  O  O329  1  0.98786045  0.87666348  0.48945044  1
  O  O330  1  0.99694004  0.88191373  1.00469804  1
  O  O331  1  0.49493195  0.49499025  0.37906350  1
  O  O332  1  0.49131739  0.49564835  0.87641471  1
  O  O333  1  0.49382627  0.99140325  0.37993869  1
  O  O334  1  0.50184456  0.99105800  0.88285095  1
  O  O335  1  1.00405976  0.48989796  0.38198368  1
  O  O336  1  0.98460631  0.50812064  0.87051296  1
  O  O337  1  0.99074061  0.99190739  0.37897943  1
  O  O338  1  1.00480808  1.00919169  0.89256007  1
  O  O339  1  0.00850665  0.00361334  0.11875814  1
  O  O340  1  0.00479413  0.01016535  0.61620471  1
  O  O341  1  0.00550077  0.51025898  0.12400607  1
  O  O342  1  0.00470858  0.50655437  0.61479955  1
  O  O343  1  0.49294946  0.01402008  0.11680076  1
  O  O344  1  0.50631223  0.00740248  0.62677810  1
  O  O345  1  0.51698234  0.50218697  0.12496809  1
  O  O346  1  0.50709973  0.50532040  0.61868504  1
  O  O347  1  0.23619830  0.37128865  0.24911332  1
  O  O348  1  0.24731666  0.38838699  0.73962417  1
  O  O349  1  0.24889751  0.88348161  0.25021306  1
  O  O350  1  0.26137678  0.88449870  0.74605376  1
  O  O351  1  0.74795880  0.38186329  0.23863236  1
  O  O352  1  0.73975731  0.38468554  0.75989361  1
  O  O353  1  0.75489340  0.88896055  0.25062919  1
  O  O354  1  0.74954129  0.87512547  0.74002763  1
  O  O355  1  0.25397925  0.11502310  0.25456599  1
  O  O356  1  0.26310223  0.13894125  0.75451111  1
  O  O357  1  0.26190754  0.62855963  0.25864590  1
  O  O358  1  0.25176915  0.60919817  0.74732644  1
  O  O359  1  0.74846483  0.11733813  0.26544861  1
  O  O360  1  0.74770656  0.12114606  0.77010717  1
  O  O361  1  0.76528607  0.61627469  0.24392737  1
  O  O362  1  0.75098080  0.61929698  0.75856198  1
  O  O363  1  0.37330027  0.11728489  0.37118957  1
  O  O364  1  0.37791512  0.13329764  0.86660280  1
  O  O365  1  0.37298823  0.61978224  0.36606147  1
  O  O366  1  0.37266595  0.61240114  0.87451095  1
  O  O367  1  0.86576419  0.11240607  0.38293784  1
  O  O368  1  0.85836784  0.12249755  0.88425618  1
  O  O369  1  0.87975232  0.62880489  0.35971342  1
  O  O370  1  0.86574292  0.61438039  0.87535110  1
  O  O371  1  0.12485275  0.38654881  0.13062363  1
  O  O372  1  0.12863053  0.38556664  0.62702313  1
  O  O373  1  0.12496673  0.88481666  0.12882589  1
  O  O374  1  0.13362820  0.89323947  0.56774752  1
  O  O375  1  0.63434649  0.38028225  0.12872835  1
  O  O376  1  0.62013150  0.38110591  0.63875156  1
  O  O377  1  0.64698903  0.89680278  0.07600127  1
  O  O378  1  0.63150497  0.88286501  0.62532869  1
  O  O379  1  0.11704273  0.25864392  0.25790828  1
  O  O380  1  0.12837013  0.27255407  0.74340228  1
  O  O381  1  0.12324116  0.75038788  0.26144206  1
  O  O382  1  0.11922848  0.74911542  0.75914672  1
  O  O383  1  0.62083877  0.25409076  0.25817884  1
  O  O384  1  0.62261282  0.25808068  0.75835051  1
  O  O385  1  0.63610427  0.74479019  0.26654732  1
  O  O386  1  0.61817508  0.75352364  0.75719697  1
  O  O387  1  0.38086103  0.24530215  0.24682405  1
  O  O388  1  0.38148906  0.24341376  0.74924620  1
  O  O389  1  0.37499767  0.74155717  0.25384277  1
  O  O390  1  0.37830543  0.74711369  0.74158894  1
  O  O391  1  0.88027679  0.23779474  0.26075628  1
  O  O392  1  0.86352410  0.24456673  0.73485393  1
  O  O393  1  0.87179008  0.73679673  0.24022057  1
  O  O394  1  0.89457011  0.74637680  0.75671955  1
  O  O395  1  0.38280360  0.49602841  0.48930782  1
  O  O396  1  0.37625433  0.49442170  0.99315335  1
  O  O397  1  0.37141234  0.98905615  0.49818229  1
  O  O398  1  0.38275370  0.99285979  1.00150689  1
  O  O399  1  0.88273707  0.50222637  0.50159266  1
  O  O400  1  0.87059276  0.49526845  0.98726877  1
  O  O401  1  0.87813787  0.99022463  0.49057461  1
  O  O402  1  0.88567675  0.98676034  0.99838933  1
  O  O403  1  0.12364572  0.00489985  0.00983462  1
  O  O404  1  0.11649152  0.02324654  0.48359854  1
  O  O405  1  0.13066416  0.49430719  0.01240673  1
  O  O406  1  0.11941192  0.50092638  0.50752376  1
  O  O407  1  0.60530630  0.02201085  -0.00494881  1
  O  O408  1  0.62276322  0.00456253  0.51253065  1
  O  O409  1  0.62667696  0.50751265  0.00807071  1
  O  O410  1  0.62313541  0.50761327  0.50311008  1
  O  O411  1  0.37812762  0.36854866  0.12166710  1
  O  O412  1  0.37051226  0.37553644  0.61676768  1
  O  O413  1  0.37392058  0.87549180  0.11084129  1
  O  O414  1  0.38112418  0.86224568  0.61666207  1
  O  O415  1  0.86260458  0.38189203  0.11493651  1
  O  O416  1  0.87359355  0.36085259  0.62807828  1
  O  O417  1  0.88402015  0.85865199  0.11561104  1
  O  O418  1  0.86469957  0.88363736  0.61231822  1
  O  O419  1  0.11952774  0.14033131  0.38062354  1
  O  O420  1  0.12749992  0.12414271  0.89582605  1
  O  O421  1  0.13307961  0.62908125  0.36994757  1
  O  O422  1  0.12954359  0.63174365  0.87467689  1
  O  O423  1  0.63105476  0.12908814  0.38291412  1
  O  O424  1  0.63196703  0.13343930  0.88172830  1
  O  O425  1  0.61801438  0.63714253  0.38540357  1
  O  O426  1  0.63254675  0.62934965  0.87978961  1
