# generated using pymatgen
data_V85Zn86O256
_symmetry_space_group_name_H-M   'P 1'
_cell_length_a   16.96212282
_cell_length_b   16.95615592
_cell_length_c   16.94901179
_cell_angle_alpha   90.10420571
_cell_angle_beta   89.97834985
_cell_angle_gamma   89.92541825
_symmetry_Int_Tables_number   1
_chemical_formula_structural   V85Zn86O256
_chemical_formula_sum   'V85 Zn86 O256'
_cell_volume   4874.73340173
_cell_formula_units_Z   1
loop_
 _symmetry_equiv_pos_site_id
 _symmetry_equiv_pos_as_xyz
  1  'x, y, z'
loop_
 _atom_site_type_symbol
 _atom_site_label
 _atom_site_symmetry_multiplicity
 _atom_site_fract_x
 _atom_site_fract_y
 _atom_site_fract_z
 _atom_site_occupancy
  V  V0  1  0.25682748  -0.00268136  0.75498997  1
  V  V1  1  0.49540486  0.25063666  0.74184229  1
  V  V2  1  0.11074104  0.74974132  0.87946334  1
  V  V3  1  0.37195640  0.12154505  0.24836959  1
  V  V4  1  0.62333330  0.12590355  -0.00259367  1
  V  V5  1  0.12145897  0.11764606  0.50248158  1
  V  V6  1  0.12710796  0.50015204  0.62150551  1
  V  V7  1  0.37421511  -0.00399301  0.37034389  1
  V  V8  1  0.87853407  -0.00217103  0.38449778  1
  V  V9  1  0.50687641  0.50164742  0.50359631  1
  V  V10  1  0.62986770  0.37642233  0.74964109  1
  V  V11  1  0.87357817  0.38249980  -0.00545756  1
  V  V12  1  0.62569125  0.63434039  -0.00408234  1
  V  V13  1  0.74836346  0.37721879  0.12377181  1
  V  V14  1  0.74772724  0.25185493  -0.00213589  1
  V  V15  1  0.37320047  0.50378746  0.37875878  1
  V  V16  1  0.87702868  0.00384214  0.86996385  1
  V  V17  1  0.37344707  0.12843601  0.74176824  1
  V  V18  1  0.12463542  0.12648392  -0.00020332  1
  V  V19  1  0.62940971  0.12186945  0.49548518  1
  V  V20  1  0.88413039  0.86185508  0.49243467  1
  V  V21  1  0.37639448  0.87231980  0.49483981  1
  V  V22  1  0.50023626  0.50302704  0.00095539  1
  V  V23  1  -0.00220520  0.75825156  0.25208405  1
  V  V24  1  0.75575665  0.24559064  0.50149198  1
  V  V25  1  0.75247513  0.88011986  0.12855838  1
  V  V26  1  0.25042091  0.50102731  0.75072586  1
  V  V27  1  0.12574095  0.37490912  0.74846113  1
  V  V28  1  0.12711297  0.88282899  0.25202019  1
  V  V29  1  0.50261904  0.63172990  0.13020054  1
  V  V30  1  0.74782697  0.61664161  0.86861896  1
  V  V31  1  0.75237416  0.12665823  0.86763696  1
  V  V32  1  0.50017419  0.37572554  0.87486307  1
  V  V33  1  0.37253808  0.87499207  -0.00589336  1
  V  V34  1  0.61997438  0.87496794  0.25310862  1
  V  V35  1  0.24842116  0.11923632  0.37380305  1
  V  V36  1  0.87761897  0.62876712  0.24707584  1
  V  V37  1  0.88345333  0.49493923  0.37810495  1
  V  V38  1  0.36886424  0.62862197  0.25834684  1
  V  V39  1  -0.01206796  0.24552451  0.74802204  1
  V  V40  1  0.37352286  0.74439978  0.62784393  1
  V  V41  1  -0.01109295  0.12584352  0.62864127  1
  V  V42  1  0.25522809  0.36689317  0.62325172  1
  V  V43  1  0.24987707  0.88106051  0.12920574  1
  V  V44  1  0.63347274  0.49822695  0.62654490  1
  V  V45  1  0.36669950  0.37678806  0.00466520  1
  V  V46  1  0.12131214  0.25250013  0.37926472  1
  V  V47  1  0.24856733  0.74383192  0.49498673  1
  V  V48  1  0.87445074  0.25197030  0.12506468  1
  V  V49  1  0.12459637  0.25053446  0.87490304  1
  V  V50  1  0.62797732  -0.00467501  0.62501142  1
  V  V51  1  -0.00030502  0.25817783  0.25555509  1
  V  V52  1  0.24599338  0.62885650  0.88282462  1
  V  V53  1  0.87867985  0.74859500  0.12195424  1
  V  V54  1  0.00008629  0.12740229  0.12665360  1
  V  V55  1  0.37295527  0.50167274  0.87568982  1
  V  V56  1  0.63182749  0.24423200  0.37333758  1
  V  V57  1  0.62496720  0.37544943  0.25006538  1
  V  V58  1  0.49447183  0.00137039  -0.00760874  1
  V  V59  1  0.50236368  0.37481578  0.37685294  1
  V  V60  1  0.00093198  0.51234466  0.00816128  1
  V  V61  1  0.50049756  -0.00405466  0.49601992  1
  V  V62  1  0.87811928  0.87667194  -0.00514271  1
  V  V63  1  0.50580061  0.74967668  0.75451543  1
  V  V64  1  0.62844224  0.00188176  0.12632047  1
  V  V65  1  0.75777131  0.36912006  0.62301442  1
  V  V66  1  0.12034408  -0.00206779  0.62464375  1
  V  V67  1  0.11249927  0.86927194  0.75573959  1
  V  V68  1  0.87350678  0.75663636  0.64225972  1
  V  V69  1  0.74876070  0.50193512  0.25186503  1
  V  V70  1  0.25524343  0.12225059  0.87584211  1
  V  V71  1  0.75041465  -0.00526759  0.74749171  1
  V  V72  1  0.49887726  0.24973658  0.24988735  1
  V  V73  1  0.87635318  0.59788116  0.75286167  1
  V  V74  1  0.11729280  0.75647139  0.37672640  1
  V  V75  1  0.12371097  0.62614000  0.49325593  1
  V  V76  1  0.74576996  0.63658996  0.38266083  1
  V  V77  1  0.86020687  0.11648140  0.25227616  1
  V  V78  1  -0.00424815  0.38348494  0.87315900  1
  V  V79  1  0.24918343  0.87268204  0.62755640  1
  V  V80  1  0.50705002  0.87317673  0.87469356  1
  V  V81  1  0.37698245  0.36591749  0.50558231  1
  V  V82  1  -0.00036251  0.62624569  0.62802366  1
  V  V83  1  0.36739174  0.25581969  0.12734756  1
  V  V84  1  0.00102228  -0.00085052  -0.00417578  1
  Zn  Zn85  1  0.00580690  0.49016453  0.49186179  1
  Zn  Zn86  1  0.50019710  0.75390446  0.26462497  1
  Zn  Zn87  1  0.25287235  0.48956250  0.24179846  1
  Zn  Zn88  1  0.63018429  0.63893089  0.50669369  1
  Zn  Zn89  1  0.62327712  0.24976031  0.87314262  1
  Zn  Zn90  1  0.62969358  0.86922415  0.75056813  1
  Zn  Zn91  1  0.74532121  0.75513361  -0.00904194  1
  Zn  Zn92  1  0.24526704  0.25501547  0.00558590  1
  Zn  Zn93  1  0.14598585  0.37076633  0.23702345  1
  Zn  Zn94  1  0.13372196  0.50572306  0.11772938  1
  Zn  Zn95  1  0.62378733  0.77164150  0.39379765  1
  Zn  Zn96  1  0.37114554  0.75136334  0.12850579  1
  Zn  Zn97  1  0.50503397  0.62339434  0.62949238  1
  Zn  Zn98  1  0.49766113  0.12522488  0.12171728  1
  Zn  Zn99  1  0.71584230  0.81697546  0.56294940  1
  Zn  Zn100  1  0.88523873  0.35898961  0.49524659  1
  Zn  Zn101  1  0.25459233  0.24413534  0.50555361  1
  Zn  Zn102  1  0.12873384  0.00411695  0.13012806  1
  Zn  Zn103  1  0.62451287  0.50349889  0.12506297  1
  Zn  Zn104  1  0.24401559  0.74914299  0.00325379  1
  Zn  Zn105  1  0.49500738  0.12726328  0.62110739  1
  Zn  Zn106  1  0.37569630  0.62509410  0.75268172  1
  Zn  Zn107  1  0.18656176  0.18887720  0.19234918  1
  Zn  Zn108  1  0.18301317  0.18610741  0.69005498  1
  Zn  Zn109  1  0.18482426  0.68577032  0.18299342  1
  Zn  Zn110  1  0.18680476  0.68623283  0.69055499  1
  Zn  Zn111  1  0.68523400  0.18917270  0.18278790  1
  Zn  Zn112  1  0.68441668  0.18609289  0.68483410  1
  Zn  Zn113  1  0.69152211  0.69262905  0.18454244  1
  Zn  Zn114  1  0.69085600  0.68154221  0.69245956  1
  Zn  Zn115  1  0.31279426  0.30938809  0.32280137  1
  Zn  Zn116  1  0.31323734  0.31236993  0.81352608  1
  Zn  Zn117  1  0.30720899  0.80940768  0.31242327  1
  Zn  Zn118  1  0.31189779  0.81164165  0.81605765  1
  Zn  Zn119  1  0.81495688  0.31084188  0.31116949  1
  Zn  Zn120  1  0.81069346  0.31537323  0.81192986  1
  Zn  Zn121  1  0.80945507  0.81988412  0.31319247  1
  Zn  Zn122  1  0.80989317  0.81078254  0.81733739  1
  Zn  Zn123  1  0.17101221  0.45570101  0.40744447  1
  Zn  Zn124  1  0.18260031  0.44294531  0.94005132  1
  Zn  Zn125  1  0.18888196  0.93500776  0.43825342  1
  Zn  Zn126  1  0.18618582  0.93567077  0.93833756  1
  Zn  Zn127  1  0.69363899  0.43524621  0.43752988  1
  Zn  Zn128  1  0.68573284  0.44359709  0.93598666  1
  Zn  Zn129  1  0.70455947  0.94796886  0.43135655  1
  Zn  Zn130  1  0.68848749  0.93954382  0.93861889  1
  Zn  Zn131  1  0.31163922  0.06238501  0.06252099  1
  Zn  Zn132  1  0.30867002  0.05824435  0.56298197  1
  Zn  Zn133  1  0.31494026  0.56563547  0.06645444  1
  Zn  Zn134  1  0.31196151  0.55796758  0.55968175  1
  Zn  Zn135  1  0.81244521  0.06550978  0.05974900  1
  Zn  Zn136  1  0.81077897  0.05628868  0.55975245  1
  Zn  Zn137  1  0.81101764  0.56436186  0.05982843  1
  Zn  Zn138  1  0.81412654  0.56316145  0.56336662  1
  Zn  Zn139  1  0.43581347  0.44162986  0.18842795  1
  Zn  Zn140  1  0.43897018  0.43779581  0.68805433  1
  Zn  Zn141  1  0.43984491  0.93834584  0.18153541  1
  Zn  Zn142  1  0.43820284  0.93586426  0.68617792  1
  Zn  Zn143  1  0.93731853  0.43968393  0.18515128  1
  Zn  Zn144  1  0.94607725  0.43061884  0.67592404  1
  Zn  Zn145  1  0.94143656  0.93887372  0.18514400  1
  Zn  Zn146  1  0.93537621  0.93846016  0.68551847  1
  Zn  Zn147  1  0.05565413  0.06321319  0.31457992  1
  Zn  Zn148  1  0.06466002  0.06143197  0.80984805  1
  Zn  Zn149  1  0.07818538  0.57029246  0.28621787  1
  Zn  Zn150  1  0.06329712  0.56482858  0.81268553  1
  Zn  Zn151  1  0.56035907  0.05992557  0.31056423  1
  Zn  Zn152  1  0.56172342  0.06262983  0.81130134  1
  Zn  Zn153  1  0.56216052  0.56596934  0.31623520  1
  Zn  Zn154  1  0.56283880  0.56276693  0.81224087  1
  Zn  Zn155  1  0.44199429  0.18377518  0.43487900  1
  Zn  Zn156  1  0.43617789  0.19192552  0.93468377  1
  Zn  Zn157  1  0.44705047  0.68899658  0.43894316  1
  Zn  Zn158  1  0.43472730  0.69038059  0.93906062  1
  Zn  Zn159  1  0.94015331  0.17529737  0.43560508  1
  Zn  Zn160  1  0.93581110  0.19050063  0.93654555  1
  Zn  Zn161  1  0.93796738  0.68280647  0.43657370  1
  Zn  Zn162  1  0.92871847  0.68902757  0.92859180  1
  Zn  Zn163  1  0.06202578  0.32032965  0.06441633  1
  Zn  Zn164  1  0.06472290  0.30743111  0.56075745  1
  Zn  Zn165  1  0.06184847  0.81275389  0.06607515  1
  Zn  Zn166  1  0.05680695  0.81207759  0.56605651  1
  Zn  Zn167  1  0.55825492  0.31323561  0.06366768  1
  Zn  Zn168  1  0.56694471  0.31217651  0.56189565  1
  Zn  Zn169  1  0.56030688  0.81488203  0.06526371  1
  Zn  Zn170  1  0.55170764  0.81336184  0.56640609  1
  O  O171  1  0.11727944  0.12640569  0.12025496  1
  O  O172  1  0.12414855  0.11420907  0.61978531  1
  O  O173  1  0.11375692  0.60151616  0.17917033  1
  O  O174  1  0.11744394  0.62281962  0.61901790  1
  O  O175  1  0.62246566  0.11845621  0.11654436  1
  O  O176  1  0.62039844  0.11309844  0.61392984  1
  O  O177  1  0.62001007  0.62547666  0.11772811  1
  O  O178  1  0.62850090  0.61118196  0.62435732  1
  O  O179  1  0.38454899  0.38293384  0.38649786  1
  O  O180  1  0.38030870  0.38061421  0.88346104  1
  O  O181  1  0.36422578  0.88279483  0.38542274  1
  O  O182  1  0.38366678  0.87358821  0.88642298  1
  O  O183  1  0.86947889  0.39088733  0.37532493  1
  O  O184  1  0.88395540  0.36871322  0.88324609  1
  O  O185  1  0.87841746  0.87826648  0.38520745  1
  O  O186  1  0.87019365  0.88695896  0.88704663  1
  O  O187  1  0.26127469  0.00876208  0.38129518  1
  O  O188  1  0.24090405  0.01079078  0.86548517  1
  O  O189  1  0.27492990  0.50512097  0.39334078  1
  O  O190  1  0.25133617  0.50800570  0.87051978  1
  O  O191  1  0.77752547  -0.00415172  0.36046369  1
  O  O192  1  0.75659592  0.00818981  0.86932401  1
  O  O193  1  0.75751258  0.50751653  0.36550671  1
  O  O194  1  0.75463497  0.51598037  0.88089805  1
  O  O195  1  0.24769993  0.50730865  0.12987935  1
  O  O196  1  0.24548104  0.49174082  0.63005376  1
  O  O197  1  0.24656613  0.98741142  0.12204820  1
  O  O198  1  0.24036785  0.99312070  0.63477806  1
  O  O199  1  0.75045752  0.49701575  0.13720824  1
  O  O200  1  0.74012805  0.48792297  0.61478587  1
  O  O201  1  0.73855096  0.99340631  0.11307186  1
  O  O202  1  0.74190792  1.00723509  0.63710723  1
  O  O203  1  -0.01070358  0.35825492  0.24897528  1
  O  O204  1  0.00566648  0.36687100  0.75430090  1
  O  O205  1  0.00810931  0.86500193  0.24381368  1
  O  O206  1  0.01457328  0.88068579  0.74882929  1
  O  O207  1  0.50493115  0.37075909  0.25610865  1
  O  O208  1  0.50633766  0.36804471  0.75378930  1
  O  O209  1  0.51567727  0.87453721  0.24295259  1
  O  O210  1  0.50037812  0.86937012  0.75801886  1
  O  O211  1  0.48824399  0.13074800  0.24982785  1
  O  O212  1  0.48976356  0.13111750  0.74989428  1
  O  O213  1  0.49893397  0.62733226  0.24228743  1
  O  O214  1  0.49617366  0.63422630  0.74934491  1
  O  O215  1  0.99477254  0.13296899  0.23741880  1
  O  O216  1  1.00614330  0.13137046  0.73892595  1
  O  O217  1  0.98175852  0.63920721  0.25882736  1
  O  O218  1  0.98563740  0.61657187  0.74237008  1
  O  O219  1  0.37340584  0.25902144  0.00870009  1
  O  O220  1  0.37802594  0.26136718  0.49352770  1
  O  O221  1  0.37244502  0.76295707  0.00554220  1
  O  O222  1  0.36841424  0.75353177  0.50525001  1
  O  O223  1  0.86899377  0.26019984  0.00471278  1
  O  O224  1  0.85938220  0.24147074  0.48603142  1
  O  O225  1  0.88071636  0.76134741  0.00645404  1
  O  O226  1  0.87650819  0.75861706  0.50269918  1
  O  O227  1  0.12819086  0.23119304  0.49719515  1
  O  O228  1  0.12359789  0.24720622  0.99067376  1
  O  O229  1  0.12869896  0.74743881  0.49693467  1
  O  O230  1  0.12368457  0.76068474  0.98356449  1
  O  O231  1  0.63056247  0.24083920  0.49172116  1
  O  O232  1  0.62894509  0.24504015  0.99818624  1
  O  O233  1  0.63242919  0.75652310  0.50939077  1
  O  O234  1  0.62411500  0.73862952  1.00341606  1
  O  O235  1  0.48844537  0.24700592  0.13157774  1
  O  O236  1  0.50621095  0.24776134  0.63700421  1
  O  O237  1  0.49746699  0.74015232  0.12903034  1
  O  O238  1  0.48763287  0.74814216  0.63400660  1
  O  O239  1  0.99507594  0.24330619  0.13094113  1
  O  O240  1  1.00692511  0.23413511  0.63440446  1
  O  O241  1  0.98742292  0.75332726  0.13437317  1
  O  O242  1  0.98677428  0.73492043  0.62202420  1
  O  O243  1  0.00986270  0.23435291  0.36573925  1
  O  O244  1  0.00801633  0.25560268  0.86922169  1
  O  O245  1  0.00741431  0.75009222  0.36748407  1
  O  O246  1  0.01199268  0.74677107  0.87311885  1
  O  O247  1  0.51074264  0.25465416  0.37009523  1
  O  O248  1  0.50166331  0.25761648  0.86393078  1
  O  O249  1  0.51471682  0.75018068  0.37694552  1
  O  O250  1  0.49331665  0.75822511  0.86369386  1
  O  O251  1  0.24255996  0.12330634  0.49360654  1
  O  O252  1  0.24416716  0.12625814  0.99096228  1
  O  O253  1  0.23755335  0.63508774  0.50963498  1
  O  O254  1  0.25199934  0.62642854  0.98716035  1
  O  O255  1  0.73680969  0.12909843  0.50398571  1
  O  O256  1  0.74358193  0.13134381  0.99088718  1
  O  O257  1  0.75206266  0.62403776  0.48588531  1
  O  O258  1  0.74265460  0.62717030  0.99143424  1
  O  O259  1  0.26310755  0.37555439  -0.00765637  1
  O  O260  1  0.26318006  0.37187598  0.51030234  1
  O  O261  1  0.25789489  0.87600342  0.00636522  1
  O  O262  1  0.25721986  0.86512727  0.50734514  1
  O  O263  1  0.75458077  0.37317816  0.00219749  1
  O  O264  1  0.75340411  0.36232845  0.50576143  1
  O  O265  1  0.75976706  0.87500299  0.00662373  1
  O  O266  1  0.77469386  0.89013753  0.50412428  1
  O  O267  1  0.14429671  0.47876468  0.29628358  1
  O  O268  1  0.13029448  0.49434610  0.74353157  1
  O  O269  1  0.11782962  0.98721962  0.25074986  1
  O  O270  1  0.13439698  0.98906487  0.74528222  1
  O  O271  1  0.63478552  0.49508399  0.25212054  1
  O  O272  1  0.61828571  0.48704146  0.73950249  1
  O  O273  1  0.61840547  0.99288126  0.23515424  1
  O  O274  1  0.62949650  0.99803382  0.74004123  1
  O  O275  1  0.38450753  0.00788282  0.25992021  1
  O  O276  1  0.36322703  0.00674457  0.74540373  1
  O  O277  1  0.37870452  0.51208738  0.26171686  1
  O  O278  1  0.36903474  0.49999630  0.75778908  1
  O  O279  1  0.87497613  0.01631119  0.23670284  1
  O  O280  1  0.86723520  -0.00579299  0.76105707  1
  O  O281  1  0.86784113  0.50852433  0.25607353  1
  O  O282  1  0.87518975  0.50006938  0.74424786  1
  O  O283  1  0.12753925  0.34978800  0.39674013  1
  O  O284  1  0.11703896  0.36758410  0.87050717  1
  O  O285  1  0.13118830  0.86536655  0.36805323  1
  O  O286  1  0.12847272  0.86592511  0.86312657  1
  O  O287  1  0.62166762  0.36618906  0.36994139  1
  O  O288  1  0.62016705  0.37722770  0.86533912  1
  O  O289  1  0.63856369  0.88528548  0.35570065  1
  O  O290  1  0.61179015  0.87609250  0.87647709  1
  O  O291  1  0.37510426  0.13141140  0.13373538  1
  O  O292  1  0.37292427  0.12204457  0.63661756  1
  O  O293  1  0.38489153  0.62773867  0.14052749  1
  O  O294  1  0.37442963  0.63591146  0.62469080  1
  O  O295  1  0.88138979  0.13232289  0.12869669  1
  O  O296  1  0.89109948  0.11638917  0.62089425  1
  O  O297  1  0.86336369  0.63800405  0.13480642  1
  O  O298  1  0.87854729  0.62805788  0.63803329  1
  O  O299  1  0.26271879  0.24514463  0.12456388  1
  O  O300  1  0.24361663  0.26255978  0.62710700  1
  O  O301  1  0.24747518  0.76026821  0.12195035  1
  O  O302  1  0.25579152  0.75340606  0.61865600  1
  O  O303  1  0.75415000  0.25796413  0.11765702  1
  O  O304  1  0.74207710  0.25555045  0.61226215  1
  O  O305  1  0.76213877  0.76155895  0.11867077  1
  O  O306  1  0.76824902  0.74209316  0.63074993  1
  O  O307  1  0.24197414  0.23273406  0.38024097  1
  O  O308  1  0.23828700  0.24266941  0.87454886  1
  O  O309  1  0.23940341  0.75115645  0.38922573  1
  O  O310  1  0.24255707  0.74256715  0.87699972  1
  O  O311  1  0.73684986  0.25513360  0.38086123  1
  O  O312  1  0.74851856  0.24206641  0.87912441  1
  O  O313  1  0.74560463  0.73951537  0.36989969  1
  O  O314  1  0.76195406  0.72958627  0.87893356  1
  O  O315  1  0.00284732  0.12198327  0.00825561  1
  O  O316  1  0.01122147  0.12588841  0.51553501  1
  O  O317  1  -0.01669825  0.60846265  -0.01077957  1
  O  O318  1  0.00851053  0.62175253  0.50834823  1
  O  O319  1  0.50321838  0.11798993  -0.00429916  1
  O  O320  1  0.50837696  0.11488147  0.50135475  1
  O  O321  1  0.50546708  0.62331873  0.00643154  1
  O  O322  1  0.50804887  0.61310179  0.50596038  1
  O  O323  1  0.49658632  0.38072368  0.49789795  1
  O  O324  1  0.49256638  0.38201443  0.99457827  1
  O  O325  1  0.48600021  0.88323524  0.50282229  1
  O  O326  1  0.49376813  0.88081111  0.99414578  1
  O  O327  1  0.99254374  0.38033971  0.51853483  1
  O  O328  1  0.99035397  0.38186163  0.99081581  1
  O  O329  1  0.98376987  0.87772618  0.50886424  1
  O  O330  1  0.99048780  0.88957535  1.00856759  1
  O  O331  1  0.49803905  0.49461646  0.38568030  1
  O  O332  1  0.49357008  0.49617538  0.88040761  1
  O  O333  1  0.48870346  1.00331003  0.38678819  1
  O  O334  1  0.50302710  0.99179509  0.88487246  1
  O  O335  1  0.98343272  0.50937358  0.36851203  1
  O  O336  1  1.00465067  0.48663216  0.87884124  1
  O  O337  1  0.97880216  0.99683735  0.35934406  1
  O  O338  1  0.99079608  1.01151285  0.88525354  1
  O  O339  1  0.00157312  0.01260933  0.11407939  1
  O  O340  1  0.01218757  0.01210146  0.63605032  1
  O  O341  1  -0.00758465  0.50442824  0.10997969  1
  O  O342  1  0.00891509  0.51175147  0.62222989  1
  O  O343  1  0.51016195  0.00216981  0.11140712  1
  O  O344  1  0.50789885  -0.00045424  0.61335670  1
  O  O345  1  0.50098955  0.51307537  0.11991246  1
  O  O346  1  0.51161687  0.49793720  0.61847234  1
  O  O347  1  0.25965225  0.37435645  0.25304995  1
  O  O348  1  0.24603273  0.38030206  0.74476914  1
  O  O349  1  0.23933921  0.86943531  0.24171245  1
  O  O350  1  0.24668618  0.88219188  0.74695426  1
  O  O351  1  0.74630544  0.38255538  0.24485512  1
  O  O352  1  0.73772319  0.36508992  0.74005164  1
  O  O353  1  0.74369623  0.87586682  0.23380860  1
  O  O354  1  0.74580622  0.88903831  0.75937539  1
  O  O355  1  0.26089764  0.12639442  0.26005972  1
  O  O356  1  0.25394708  0.11812044  0.75557157  1
  O  O357  1  0.26961010  0.62919473  0.25552444  1
  O  O358  1  0.25210650  0.61845157  0.75902681  1
  O  O359  1  0.76187588  0.12996401  0.24260533  1
  O  O360  1  0.74304780  0.11622195  0.76058361  1
  O  O361  1  0.75590566  0.62017544  0.25777502  1
  O  O362  1  0.76185487  0.61989150  0.75890904  1
  O  O363  1  0.36844259  0.11732464  0.36937534  1
  O  O364  1  0.36075651  0.13096813  0.86557825  1
  O  O365  1  0.38943752  0.61879559  0.36492665  1
  O  O366  1  0.36530541  0.61951386  0.87506687  1
  O  O367  1  0.87710280  0.11462776  0.35874245  1
  O  O368  1  0.86377402  0.11594014  0.88205953  1
  O  O369  1  0.86214284  0.62008478  0.36735754  1
  O  O370  1  0.87090478  0.61924717  0.85717615  1
  O  O371  1  0.11446340  0.39051528  0.13102263  1
  O  O372  1  0.13450031  0.38057330  0.62908554  1
  O  O373  1  0.13161935  0.87704481  0.13392155  1
  O  O374  1  0.12776965  0.87836742  0.63550974  1
  O  O375  1  0.62985746  0.37834437  0.13144885  1
  O  O376  1  0.63360786  0.37963718  0.63084449  1
  O  O377  1  0.63310036  0.88303072  0.12850316  1
  O  O378  1  0.62869796  0.88702188  0.62183886  1
  O  O379  1  0.11721211  0.25185672  0.26089012  1
  O  O380  1  0.11754003  0.25470014  0.75979545  1
  O  O381  1  0.11575291  0.75821854  0.25947267  1
  O  O382  1  0.12728200  0.76375795  0.75524892  1
  O  O383  1  0.62045126  0.25369804  0.25561367  1
  O  O384  1  0.61565530  0.25841090  0.75118471  1
  O  O385  1  0.62822318  0.76907411  0.24614194  1
  O  O386  1  0.61090328  0.75245250  0.73779180  1
  O  O387  1  0.37983645  0.24102868  0.24661416  1
  O  O388  1  0.38326983  0.24220867  0.75301328  1
  O  O389  1  0.38008960  0.73988823  0.25430350  1
  O  O390  1  0.38091975  0.75148842  0.74046031  1
  O  O391  1  0.88033151  0.23855062  0.24642474  1
  O  O392  1  0.88892616  0.25182245  0.75483948  1
  O  O393  1  0.87861117  0.74990846  0.24342108  1
  O  O394  1  0.87954418  0.75307220  0.74237307  1
  O  O395  1  0.39033053  0.49370998  0.49923475  1
  O  O396  1  0.38088990  0.49437248  0.99588409  1
  O  O397  1  0.38030590  0.99208363  0.49455359  1
  O  O398  1  0.38603682  0.99080541  1.00718410  1
  O  O399  1  0.87675611  0.50465446  0.48375714  1
  O  O400  1  0.87961244  0.48758800  1.00286982  1
  O  O401  1  0.88064345  1.00134220  0.48774183  1
  O  O402  1  0.88136587  0.99619508  0.99251733  1
  O  O403  1  0.11468931  0.00689967  -0.00150274  1
  O  O404  1  0.13176506  0.00421648  0.51289747  1
  O  O405  1  0.10609870  0.50307649  -0.00088766  1
  O  O406  1  0.12631648  0.51158698  0.50086060  1
  O  O407  1  0.61633888  0.00596622  0.00553418  1
  O  O408  1  0.62115071  0.00332155  0.50084139  1
  O  O409  1  0.61764165  0.51301006  0.00208019  1
  O  O410  1  0.61828842  0.49361418  0.50773735  1
  O  O411  1  0.38205650  0.36759825  0.11599941  1
  O  O412  1  0.36761949  0.38020443  0.61768008  1
  O  O413  1  0.36653875  0.87370758  0.11974320  1
  O  O414  1  0.36995129  0.86557128  0.61574235  1
  O  O415  1  0.86777096  0.37066003  0.11623694  1
  O  O416  1  0.85981431  0.37724511  0.62327081  1
  O  O417  1  0.86962346  0.87195848  0.11680604  1
  O  O418  1  0.87971117  0.85971748  0.62173634  1
  O  O419  1  0.13063253  0.12249291  0.38311372  1
  O  O420  1  0.13134104  0.13340594  0.87820817  1
  O  O421  1  0.11881280  0.63887330  0.38713367  1
  O  O422  1  0.13140486  0.64129726  0.86566873  1
  O  O423  1  0.61867630  0.13235194  0.38262700  1
  O  O424  1  0.63432435  0.12494076  0.88041153  1
  O  O425  1  0.64092918  0.62235315  0.37913744  1
  O  O426  1  0.63778667  0.62232889  0.87908817  1
