# generated using pymatgen
data_V85Zn86O256
_symmetry_space_group_name_H-M   'P 1'
_cell_length_a   16.96687274
_cell_length_b   16.96519174
_cell_length_c   16.99193618
_cell_angle_alpha   89.98429162
_cell_angle_beta   90.06766067
_cell_angle_gamma   89.89972185
_symmetry_Int_Tables_number   1
_chemical_formula_structural   V85Zn86O256
_chemical_formula_sum   'V85 Zn86 O256'
_cell_volume   4891.05400661
_cell_formula_units_Z   1
loop_
 _symmetry_equiv_pos_site_id
 _symmetry_equiv_pos_as_xyz
  1  'x, y, z'
loop_
 _atom_site_type_symbol
 _atom_site_label
 _atom_site_symmetry_multiplicity
 _atom_site_fract_x
 _atom_site_fract_y
 _atom_site_fract_z
 _atom_site_occupancy
  V  V0  1  0.37692332  0.36844685  0.50531328  1
  V  V1  1  0.37438470  0.88070012  0.49576421  1
  V  V2  1  -0.00398355  0.00151948  0.49269022  1
  V  V3  1  0.87315305  0.74961541  0.12409428  1
  V  V4  1  0.13641695  0.88797618  0.23754320  1
  V  V5  1  0.62451669  0.64103870  -0.00070818  1
  V  V6  1  0.87499284  0.74856584  0.62272971  1
  V  V7  1  0.74995197  0.88042077  0.12533127  1
  V  V8  1  0.00168194  0.37492941  0.87011034  1
  V  V9  1  0.74994808  0.00181140  0.24965399  1
  V  V10  1  0.37438082  0.74996419  0.62371528  1
  V  V11  1  0.00307543  0.24991620  0.75007845  1
  V  V12  1  0.12290121  0.12452948  0.01228124  1
  V  V13  1  0.87210548  0.12338137  0.75172374  1
  V  V14  1  0.24727881  0.49494800  0.75132619  1
  V  V15  1  0.87970858  0.87603537  0.49397424  1
  V  V16  1  0.50651566  0.25369558  0.24840582  1
  V  V17  1  0.37397930  0.25259864  0.12574069  1
  V  V18  1  0.62120046  0.74729495  0.37691012  1
  V  V19  1  0.75258847  0.12594173  0.37620386  1
  V  V20  1  0.24848391  0.25639773  0.00573231  1
  V  V21  1  0.74605781  0.24172728  -0.00017497  1
  V  V22  1  0.25340636  0.36824426  0.62580537  1
  V  V23  1  0.00058849  0.61767551  0.62132373  1
  V  V24  1  0.87902253  0.37926583  0.49940197  1
  V  V25  1  0.86418423  0.49950015  0.87044444  1
  V  V26  1  0.13375979  0.24771701  0.37615846  1
  V  V27  1  0.37044837  0.87055020  -0.00075959  1
  V  V28  1  0.55125254  0.93411403  0.43360343  1
  V  V29  1  0.50772959  0.12567528  0.61115430  1
  V  V30  1  0.12121325  0.75299472  0.37246420  1
  V  V31  1  0.25092543  0.61986845  0.87537523  1
  V  V32  1  0.51009103  0.11539052  0.11480259  1
  V  V33  1  0.12412500  0.25037379  0.87303085  1
  V  V34  1  0.75152488  0.74518256  0.49565184  1
  V  V35  1  0.62763545  0.62210630  0.49767488  1
  V  V36  1  0.12804104  0.49669079  0.12430162  1
  V  V37  1  0.13264963  0.12476532  0.49681701  1
  V  V38  1  0.50179722  0.62164579  0.12955981  1
  V  V39  1  0.74923743  0.38074363  0.62920659  1
  V  V40  1  0.12446960  0.49314216  0.62566337  1
  V  V41  1  0.35773783  0.00561649  0.37826018  1
  V  V42  1  0.49923046  0.62194958  0.62485521  1
  V  V43  1  0.50936091  0.49765742  0.00576031  1
  V  V44  1  0.50121158  0.49843728  0.50125906  1
  V  V45  1  0.37282723  0.38171621  0.00034302  1
  V  V46  1  0.86777223  0.61876896  0.74950103  1
  V  V47  1  0.00061875  0.12544326  0.62349228  1
  V  V48  1  0.00021167  0.74926478  0.75121466  1
  V  V49  1  0.50456395  0.37648981  0.37295999  1
  V  V50  1  0.12996192  0.37479792  0.24637439  1
  V  V51  1  0.50370303  0.74754857  0.75469823  1
  V  V52  1  0.24969139  -0.00126327  0.75065609  1
  V  V53  1  0.62986149  0.87461000  0.75128357  1
  V  V54  1  0.12327752  0.61892480  0.49874605  1
  V  V55  1  0.49983544  0.87404367  0.87319511  1
  V  V56  1  0.87820046  0.24666698  0.12507910  1
  V  V57  1  0.73520379  0.37557281  0.12836028  1
  V  V58  1  0.62818724  0.38099848  0.75202620  1
  V  V59  1  0.87829401  0.12122802  0.25224404  1
  V  V60  1  0.24923961  0.74908406  0.49986126  1
  V  V61  1  0.87596076  0.25081217  0.62458292  1
  V  V62  1  0.87015267  0.50138024  0.37350521  1
  V  V63  1  0.86672019  0.62294901  0.25131533  1
  V  V64  1  0.36691606  0.12530841  0.25872722  1
  V  V65  1  0.12430176  0.87480559  0.74877127  1
  V  V66  1  0.74650917  0.24700049  0.50003776  1
  V  V67  1  0.00129914  0.24588355  0.24655448  1
  V  V68  1  0.62771233  0.25093944  0.37271943  1
  V  V69  1  0.37862747  0.13233786  0.74460176  1
  V  V70  1  0.37839831  -0.00091008  0.87800653  1
  V  V71  1  0.37385590  0.61963386  0.75374663  1
  V  V72  1  0.00082142  0.37981528  0.37701149  1
  V  V73  1  0.62359261  0.24372818  0.87655739  1
  V  V74  1  -0.00303357  0.62235669  0.12452873  1
  V  V75  1  0.87937001  0.87689343  -0.00145695  1
  V  V76  1  0.49969152  0.75389370  0.24719102  1
  V  V77  1  0.49508164  0.37843673  0.87594653  1
  V  V78  1  0.87348760  0.37572326  0.00088997  1
  V  V79  1  0.12296365  0.62422049  -0.00098414  1
  V  V80  1  0.25179315  0.50094168  0.24994237  1
  V  V81  1  0.00576155  0.00610108  0.01025609  1
  V  V82  1  0.24829258  0.75061265  0.00536298  1
  V  V83  1  0.73988880  0.49423178  0.24570070  1
  V  V84  1  0.61913133  0.87917927  0.24774284  1
  Zn  Zn85  1  0.37067382  0.75461823  0.13123392  1
  Zn  Zn86  1  0.73335964  0.62577799  0.86347051  1
  Zn  Zn87  1  0.12520051  0.00030421  0.62334507  1
  Zn  Zn88  1  0.00024135  0.87917763  0.87419250  1
  Zn  Zn89  1  -0.00194919  0.50054786  -0.00289331  1
  Zn  Zn90  1  0.12292216  0.74868705  0.87538957  1
  Zn  Zn91  1  -0.00230922  0.88206158  0.36764065  1
  Zn  Zn92  1  0.37420466  0.62843634  0.25267024  1
  Zn  Zn93  1  0.74814396  0.00443906  0.74585931  1
  Zn  Zn94  1  0.25177476  0.62340897  0.37454789  1
  Zn  Zn95  1  0.74373077  0.75791231  -0.00898355  1
  Zn  Zn96  1  0.87479190  -0.00024089  0.87295772  1
  Zn  Zn97  1  0.25057706  0.12683645  0.87489523  1
  Zn  Zn98  1  0.37358423  0.50116843  0.37621481  1
  Zn  Zn99  1  0.25678724  0.24430362  0.50243201  1
  Zn  Zn100  1  0.25095677  0.87555633  0.62541822  1
  Zn  Zn101  1  -0.00007354  0.75417897  0.25028921  1
  Zn  Zn102  1  0.62923436  0.50317791  0.63260843  1
  Zn  Zn103  1  0.49610792  0.25545415  0.74302635  1
  Zn  Zn104  1  0.74560327  0.12133849  0.87636789  1
  Zn  Zn105  1  0.62256366  0.00248574  0.61516855  1
  Zn  Zn106  1  0.74952277  0.87887427  0.62319310  1
  Zn  Zn107  1  0.18942333  0.18643075  0.18849569  1
  Zn  Zn108  1  0.18682207  0.18425644  0.68829665  1
  Zn  Zn109  1  0.18525925  0.68721814  0.18884435  1
  Zn  Zn110  1  0.18683316  0.68526485  0.68597807  1
  Zn  Zn111  1  0.68825550  0.18882066  0.18565482  1
  Zn  Zn112  1  0.68290862  0.19254354  0.68783103  1
  Zn  Zn113  1  0.68501908  0.68902923  0.18381946  1
  Zn  Zn114  1  0.68734512  0.69152794  0.68192708  1
  Zn  Zn115  1  0.31706744  0.31607408  0.31397951  1
  Zn  Zn116  1  0.30964154  0.31396766  0.81687189  1
  Zn  Zn117  1  0.31256461  0.81679259  0.31559869  1
  Zn  Zn118  1  0.31064744  0.80764600  0.81440090  1
  Zn  Zn119  1  0.81286350  0.31437956  0.31029811  1
  Zn  Zn120  1  0.81155855  0.30895659  0.81251637  1
  Zn  Zn121  1  0.81098501  0.80973121  0.31195589  1
  Zn  Zn122  1  0.81129388  0.80497669  0.81644351  1
  Zn  Zn123  1  0.19017208  0.43501520  0.43785953  1
  Zn  Zn124  1  0.18639897  0.43745749  0.93780795  1
  Zn  Zn125  1  0.18436872  0.93665118  0.43487607  1
  Zn  Zn126  1  0.18618070  0.93729620  0.93607437  1
  Zn  Zn127  1  0.68982072  0.43656403  0.43671109  1
  Zn  Zn128  1  0.68557385  0.43503661  0.93935099  1
  Zn  Zn129  1  0.71501533  0.93629651  0.43171295  1
  Zn  Zn130  1  0.68769910  0.95131332  0.93423047  1
  Zn  Zn131  1  0.30576061  0.06881678  0.05945227  1
  Zn  Zn132  1  0.31596396  0.06129603  0.56698809  1
  Zn  Zn133  1  0.31479885  0.56572745  0.06652394  1
  Zn  Zn134  1  0.31306021  0.55845344  0.56337498  1
  Zn  Zn135  1  0.81653755  0.06100357  0.06508964  1
  Zn  Zn136  1  0.81201886  0.06005098  0.56560236  1
  Zn  Zn137  1  0.80620018  0.55838845  0.06298548  1
  Zn  Zn138  1  0.81322497  0.56149337  0.56077825  1
  Zn  Zn139  1  0.43855318  0.43623531  0.18545858  1
  Zn  Zn140  1  0.43727525  0.43753627  0.68724944  1
  Zn  Zn141  1  0.39148091  0.96490323  0.16450448  1
  Zn  Zn142  1  0.43969069  0.94153795  0.68445302  1
  Zn  Zn143  1  0.93597862  0.43582402  0.18858924  1
  Zn  Zn144  1  0.93722472  0.43682603  0.68868872  1
  Zn  Zn145  1  0.94420534  0.93824856  0.18990572  1
  Zn  Zn146  1  0.93805261  0.93848447  0.68063267  1
  Zn  Zn147  1  0.06844017  0.06284791  0.31184425  1
  Zn  Zn148  1  0.05970313  0.06217494  0.81975514  1
  Zn  Zn149  1  0.05983637  0.56389790  0.31155315  1
  Zn  Zn150  1  0.06069568  0.55964661  0.81115339  1
  Zn  Zn151  1  0.56463068  0.06978363  0.30321433  1
  Zn  Zn152  1  0.55982020  0.05903530  0.80926299  1
  Zn  Zn153  1  0.56169797  0.56440084  0.31530298  1
  Zn  Zn154  1  0.55759420  0.55944357  0.81867342  1
  Zn  Zn155  1  0.44015301  0.18878416  0.43637663  1
  Zn  Zn156  1  0.43743277  0.18768713  0.93565686  1
  Zn  Zn157  1  0.43718360  0.68637535  0.43454066  1
  Zn  Zn158  1  0.43658731  0.68585249  0.93908897  1
  Zn  Zn159  1  0.94007579  0.19075804  0.43569159  1
  Zn  Zn160  1  0.93731986  0.18593090  0.93746619  1
  Zn  Zn161  1  0.93912005  0.68509517  0.43542111  1
  Zn  Zn162  1  0.93068351  0.68749264  0.93484977  1
  Zn  Zn163  1  0.06075279  0.31296013  0.06087263  1
  Zn  Zn164  1  0.06439277  0.31068289  0.56141222  1
  Zn  Zn165  1  0.06269773  0.81217770  0.06466508  1
  Zn  Zn166  1  0.06139720  0.81171148  0.56364453  1
  Zn  Zn167  1  0.55959369  0.30562788  0.05935943  1
  Zn  Zn168  1  0.56283156  0.30794770  0.56499860  1
  Zn  Zn169  1  0.57670393  0.85597654  0.04400271  1
  Zn  Zn170  1  0.56365027  0.80746969  0.57070195  1
  O  O171  1  0.12798377  0.12993473  0.11191015  1
  O  O172  1  0.11692582  0.12606144  0.61532066  1
  O  O173  1  0.11413598  0.61708009  0.12109528  1
  O  O174  1  0.11905929  0.61671680  0.61808167  1
  O  O175  1  0.61024708  0.12967259  0.13035959  1
  O  O176  1  0.61338337  0.12350322  0.62871937  1
  O  O177  1  0.61086497  0.63074434  0.11473327  1
  O  O178  1  0.61954293  0.62373254  0.61477810  1
  O  O179  1  0.38786865  0.37779092  0.38402482  1
  O  O180  1  0.38469401  0.36679323  0.88779683  1
  O  O181  1  0.37262094  0.88741094  0.38701305  1
  O  O182  1  0.37962982  0.88003486  0.87428883  1
  O  O183  1  0.88237929  0.37902107  0.38033829  1
  O  O184  1  0.87867973  0.37964507  0.88136529  1
  O  O185  1  0.87774291  0.86577095  0.38884324  1
  O  O186  1  0.87665259  0.87301634  0.88905666  1
  O  O187  1  0.25859154  0.00457265  0.37807475  1
  O  O188  1  0.25620568  0.00152782  0.86358709  1
  O  O189  1  0.24875526  0.50040154  0.36333184  1
  O  O190  1  0.24252826  0.50861088  0.86493654  1
  O  O191  1  0.75541513  0.01323642  0.36270368  1
  O  O192  1  0.75621614  0.00514084  0.86598165  1
  O  O193  1  0.76391927  0.48917738  0.36424219  1
  O  O194  1  0.76023201  0.50465317  0.88032512  1
  O  O195  1  0.23517201  0.50639170  0.13269755  1
  O  O196  1  0.24284528  0.49246732  0.63223313  1
  O  O197  1  0.28688429  0.99862702  0.13891047  1
  O  O198  1  0.24828969  0.99703204  0.63914045  1
  O  O199  1  0.75501996  0.48618653  0.13357920  1
  O  O200  1  0.74842968  0.48496960  0.61832181  1
  O  O201  1  0.75763438  0.99037494  0.13652693  1
  O  O202  1  0.74114859  0.99600969  0.62717777  1
  O  O203  1  0.00807251  0.36665485  0.25727153  1
  O  O204  1  -0.00671823  0.36669195  0.76235466  1
  O  O205  1  0.01127568  0.87198898  0.25277640  1
  O  O206  1  0.00510842  0.86527966  0.74681143  1
  O  O207  1  0.49348058  0.36508752  0.26069257  1
  O  O208  1  0.50362915  0.37476842  0.75929909  1
  O  O209  1  0.51634766  0.86745146  0.24594584  1
  O  O210  1  0.50336084  0.86528624  0.75285284  1
  O  O211  1  0.49334612  0.14085072  0.24652635  1
  O  O212  1  0.48576800  0.12795702  0.75026004  1
  O  O213  1  0.50089613  0.63194793  0.24493564  1
  O  O214  1  0.49283466  0.62744217  0.74756552  1
  O  O215  1  0.99347819  0.13788378  0.25886450  1
  O  O216  1  0.99338663  0.13012929  0.74396715  1
  O  O217  1  0.98768429  0.62371696  0.23850117  1
  O  O218  1  0.99367140  0.63055738  0.74013765  1
  O  O219  1  0.36678229  0.25628784  0.00650976  1
  O  O220  1  0.37332540  0.26362535  0.49363737  1
  O  O221  1  0.36295947  0.75366661  -0.00358864  1
  O  O222  1  0.36812198  0.75744535  0.50131736  1
  O  O223  1  0.86936990  0.25664256  0.00607432  1
  O  O224  1  0.86830574  0.26045445  0.50342185  1
  O  O225  1  0.88070713  0.75938897  0.01237137  1
  O  O226  1  0.86928262  0.75064856  0.50254143  1
  O  O227  1  0.12571166  0.24251332  0.49131135  1
  O  O228  1  0.12964430  0.24573879  0.99637972  1
  O  O229  1  0.13109063  0.74234135  0.49585418  1
  O  O230  1  0.13030539  0.74273667  0.99773282  1
  O  O231  1  0.63883349  0.25440727  0.49020834  1
  O  O232  1  0.63599980  0.25594061  0.98901361  1
  O  O233  1  0.62986862  0.74372720  0.49594293  1
  O  O234  1  0.62183677  0.74310700  1.00275280  1
  O  O235  1  0.49430596  0.24697998  0.13365888  1
  O  O236  1  0.50268449  0.23483447  0.62877055  1
  O  O237  1  0.50000510  0.74160047  0.14144543  1
  O  O238  1  0.49281339  0.74106291  0.63400120  1
  O  O239  1  0.99127543  0.25671536  0.13600518  1
  O  O240  1  0.99571512  0.24675724  0.62987415  1
  O  O241  1  0.99040067  0.73875658  0.12723310  1
  O  O242  1  0.99614663  0.73869008  0.63202412  1
  O  O243  1  0.00813586  0.26070651  0.36575384  1
  O  O244  1  0.00514102  0.25635190  0.87195211  1
  O  O245  1  0.01071092  0.75055006  0.37435725  1
  O  O246  1  -0.00077706  0.74924540  0.86067332  1
  O  O247  1  0.50964339  0.25582760  0.36925151  1
  O  O248  1  0.50798549  0.26179137  0.87738896  1
  O  O249  1  0.51266633  0.74791578  0.36597377  1
  O  O250  1  0.49043335  0.75429221  0.85963892  1
  O  O251  1  0.23743879  0.12687434  0.51057988  1
  O  O252  1  0.24285105  0.13760415  0.99493406  1
  O  O253  1  0.24136819  0.63293627  0.50186492  1
  O  O254  1  0.24547099  0.62718574  0.99175829  1
  O  O255  1  0.76292060  0.13733457  0.48976728  1
  O  O256  1  0.75854065  0.13830641  1.00003001  1
  O  O257  1  0.74146135  0.63438183  0.50460653  1
  O  O258  1  0.72820554  0.62444899  1.00967861  1
  O  O259  1  0.25793982  0.36629920  -0.00494950  1
  O  O260  1  0.25962021  0.37475088  0.50883017  1
  O  O261  1  0.25671387  0.86058797  -0.01370113  1
  O  O262  1  0.25600821  0.86603943  0.50229235  1
  O  O263  1  0.75869771  0.36733657  0.00670470  1
  O  O264  1  0.75892028  0.36633588  0.50603454  1
  O  O265  1  0.76457406  0.87601342  0.01107598  1
  O  O266  1  0.76170186  0.86347770  0.50201029  1
  O  O267  1  0.12903343  0.49343267  0.24406230  1
  O  O268  1  0.13596685  0.50563662  0.73813023  1
  O  O269  1  0.12481511  0.98779725  0.25274645  1
  O  O270  1  0.13166763  0.99370063  0.75139169  1
  O  O271  1  0.64186967  0.50715224  0.25837975  1
  O  O272  1  0.62126504  0.48654970  0.75305144  1
  O  O273  1  0.63803754  0.99178917  0.25568198  1
  O  O274  1  0.62500692  0.98291537  0.74966009  1
  O  O275  1  0.38545754  0.01928481  0.26690812  1
  O  O276  1  0.36722030  0.00596573  0.75693642  1
  O  O277  1  0.36022026  0.49549821  0.24747339  1
  O  O278  1  0.36449556  0.51255071  0.74281948  1
  O  O279  1  0.87030218  0.01388457  0.24401916  1
  O  O280  1  0.87541096  0.01145335  0.74644887  1
  O  O281  1  0.86785987  0.50472680  0.25494228  1
  O  O282  1  0.87772449  0.50715353  0.75750009  1
  O  O283  1  0.11717732  0.37009719  0.36870536  1
  O  O284  1  0.11187569  0.36410935  0.88490784  1
  O  O285  1  0.12210843  0.86457363  0.37014362  1
  O  O286  1  0.12190399  0.87058968  0.86022385  1
  O  O287  1  0.61462796  0.36555116  0.38075993  1
  O  O288  1  0.61793927  0.36867502  0.86973453  1
  O  O289  1  0.61903796  0.87423155  0.37310097  1
  O  O290  1  0.61248570  0.87186403  0.85795272  1
  O  O291  1  0.38597392  0.13996993  0.13799630  1
  O  O292  1  0.38342730  0.12180398  0.63929610  1
  O  O293  1  0.38743294  0.63173630  0.12870918  1
  O  O294  1  0.37925947  0.62937743  0.63198245  1
  O  O295  1  0.87035083  0.13935997  0.13575759  1
  O  O296  1  0.88098970  0.13229607  0.63053284  1
  O  O297  1  0.87896474  0.62959143  0.12823507  1
  O  O298  1  0.88282382  0.62528847  0.62923565  1
  O  O299  1  0.25909909  0.24718210  0.11493881  1
  O  O300  1  0.24093014  0.26525565  0.62604235  1
  O  O301  1  0.25139523  0.73874766  0.10928494  1
  O  O302  1  0.25482147  0.74960379  0.61489556  1
  O  O303  1  0.75843831  0.25684875  0.11917819  1
  O  O304  1  0.75488116  0.25841045  0.61624721  1
  O  O305  1  0.76132251  0.75838537  0.12290909  1
  O  O306  1  0.75609201  0.75338106  0.61147608  1
  O  O307  1  0.23642579  0.25933289  0.37702218  1
  O  O308  1  0.23925458  0.25148044  0.88499618  1
  O  O309  1  0.24118200  0.74784359  0.38713203  1
  O  O310  1  0.24532639  0.73462105  0.88044183  1
  O  O311  1  0.74555670  0.24840710  0.37989018  1
  O  O312  1  0.74229786  0.24960807  0.88403843  1
  O  O313  1  0.73542152  0.75699689  0.38532094  1
  O  O314  1  0.76815961  0.73082343  0.88591968  1
  O  O315  1  0.00543549  0.11453297  -0.00189619  1
  O  O316  1  0.00490435  0.12085671  0.50354242  1
  O  O317  1  0.00153984  0.62380996  0.00941253  1
  O  O318  1  0.00923264  0.62938052  0.51219638  1
  O  O319  1  0.49356121  0.13057674  0.01603578  1
  O  O320  1  0.49727623  0.12713978  0.51181478  1
  O  O321  1  0.50588272  0.61872870  0.00636977  1
  O  O322  1  0.50774248  0.62059390  0.50508334  1
  O  O323  1  0.49594069  0.37745075  0.49504781  1
  O  O324  1  0.49355075  0.37997047  0.99641801  1
  O  O325  1  0.49454126  0.87276414  0.49589376  1
  O  O326  1  0.48336800  0.85618266  0.97844391  1
  O  O327  1  0.98937971  0.36778089  0.49010868  1
  O  O328  1  0.98707513  0.37326856  0.99087653  1
  O  O329  1  0.99528070  0.88278842  0.49960217  1
  O  O330  1  0.99533698  0.88444092  1.00065054  1
  O  O331  1  0.50180758  0.48996107  0.38100312  1
  O  O332  1  0.49913516  0.48615829  0.88786460  1
  O  O333  1  0.49995821  1.00202713  0.37910232  1
  O  O334  1  0.48882715  0.98604307  0.86542709  1
  O  O335  1  0.98950104  0.48674573  0.36632379  1
  O  O336  1  0.99216730  0.48907593  0.87557647  1
  O  O337  1  1.00207864  1.00229045  0.38919158  1
  O  O338  1  0.99341531  0.99678965  0.88707185  1
  O  O339  1  -0.00236038  0.00025058  0.10908885  1
  O  O340  1  0.00293680  0.00817687  0.61277450  1
  O  O341  1  0.00615682  0.50688160  0.12438690  1
  O  O342  1  0.00969870  0.50802959  0.63216070  1
  O  O343  1  0.49110463  0.01853450  0.13468748  1
  O  O344  1  0.50322027  0.01776733  0.62934786  1
  O  O345  1  0.49622643  0.50951354  0.11894771  1
  O  O346  1  0.50476467  0.50501379  0.61909209  1
  O  O347  1  0.23619253  0.38102831  0.25361220  1
  O  O348  1  0.25957916  0.38690504  0.74286720  1
  O  O349  1  0.23526990  0.86931008  0.25386632  1
  O  O350  1  0.24272824  0.87969357  0.74935833  1
  O  O351  1  0.75511371  0.38094327  0.23940705  1
  O  O352  1  0.74305225  0.36816231  0.73958513  1
  O  O353  1  0.74655918  0.88357838  0.24755585  1
  O  O354  1  0.73627917  0.86618345  0.75002561  1
  O  O355  1  0.26849675  0.13400796  0.25019023  1
  O  O356  1  0.25987264  0.11707758  0.75099546  1
  O  O357  1  0.24999867  0.61418786  0.25177482  1
  O  O358  1  0.25505846  0.61817615  0.75510768  1
  O  O359  1  0.75780835  0.12058315  0.25441126  1
  O  O360  1  0.76210433  0.13014547  0.74752698  1
  O  O361  1  0.76181326  0.61620168  0.23889914  1
  O  O362  1  0.76356336  0.62938353  0.74465588  1
  O  O363  1  0.37777377  0.12383546  0.36653621  1
  O  O364  1  0.37499127  0.11563819  0.86600056  1
  O  O365  1  0.37145806  0.61900321  0.37103037  1
  O  O366  1  0.36449427  0.62689807  0.86442436  1
  O  O367  1  0.86450905  0.13885792  0.36228186  1
  O  O368  1  0.87336787  0.12788332  0.86154033  1
  O  O369  1  0.88236091  0.61324695  0.36415921  1
  O  O370  1  0.88170023  0.61138438  0.86358780  1
  O  O371  1  0.11561357  0.38462903  0.13492777  1
  O  O372  1  0.13284623  0.38668125  0.61570196  1
  O  O373  1  0.12405961  0.86992193  0.13881595  1
  O  O374  1  0.12644471  0.87648622  0.63705808  1
  O  O375  1  0.63663641  0.36699955  0.12027370  1
  O  O376  1  0.63246006  0.37462087  0.63369089  1
  O  O377  1  0.64265756  0.86112223  0.13972448  1
  O  O378  1  0.62288339  0.87691391  0.63810239  1
  O  O379  1  0.12013896  0.25517925  0.25448695  1
  O  O380  1  0.11931408  0.24237376  0.76443292  1
  O  O381  1  0.12326645  0.75087386  0.26148000  1
  O  O382  1  0.11618206  0.75484014  0.74766060  1
  O  O383  1  0.61847132  0.25017395  0.26051774  1
  O  O384  1  0.62173718  0.26390057  0.75964375  1
  O  O385  1  0.62412338  0.75732335  0.26064560  1
  O  O386  1  0.61267910  0.75707628  0.74257594  1
  O  O387  1  0.38293934  0.24607933  0.24694675  1
  O  O388  1  0.37134537  0.23479290  0.75785538  1
  O  O389  1  0.38607874  0.75359618  0.25267446  1
  O  O390  1  0.37924563  0.73898196  0.74336120  1
  O  O391  1  0.88257881  0.24603400  0.24326279  1
  O  O392  1  0.88204696  0.24367365  0.74374495  1
  O  O393  1  0.87380065  0.74083245  0.24208575  1
  O  O394  1  0.88353291  0.74110604  0.74253207  1
  O  O395  1  0.38291961  0.48945231  0.49958717  1
  O  O396  1  0.38096953  0.48710289  1.00913372  1
  O  O397  1  0.37117604  0.99128851  0.49425184  1
  O  O398  1  0.36427907  0.98896253  0.98231050  1
  O  O399  1  0.86930338  0.48844087  0.48938794  1
  O  O400  1  0.87480132  0.49059445  0.99240319  1
  O  O401  1  0.88295552  0.98850788  0.50540745  1
  O  O402  1  0.88584114  0.99304878  1.00106908  1
  O  O403  1  0.11427936  0.00786615  -0.00605553  1
  O  O404  1  0.11785333  0.00870780  0.50064707  1
  O  O405  1  0.12183322  0.50376640  0.00927945  1
  O  O406  1  0.13225974  0.51114814  0.50848301  1
  O  O407  1  0.61444052  -0.04351346  0.01149959  1
  O  O408  1  0.61991662  -0.01814850  0.49119208  1
  O  O409  1  0.61239726  0.50238916  0.00186630  1
  O  O410  1  0.62231314  0.50897298  0.49917936  1
  O  O411  1  0.38185234  0.36089800  0.11585895  1
  O  O412  1  0.36673758  0.37891061  0.61672259  1
  O  O413  1  0.38671942  0.86855916  0.10207318  1
  O  O414  1  0.37663148  0.87006715  0.61262439  1
  O  O415  1  0.87191137  0.36551224  0.11651739  1
  O  O416  1  0.87036661  0.37171651  0.61812076  1
  O  O417  1  0.87052644  0.86786468  0.12236758  1
  O  O418  1  0.87607302  0.86493232  0.61340411  1
  O  O419  1  0.12013311  0.13677498  0.38484033  1
  O  O420  1  0.12460253  0.13715064  0.88668180  1
  O  O421  1  0.12295434  0.63081654  0.38463705  1
  O  O422  1  0.13107159  0.62353980  0.88052292  1
  O  O423  1  0.64102761  0.13719941  0.36888763  1
  O  O424  1  0.62392337  0.13944981  0.86371449  1
  O  O425  1  0.62205049  0.63441170  0.38833518  1
  O  O426  1  0.61940642  0.62108615  0.89347136  1
