# generated using pymatgen
data_V85Zn86O256
_symmetry_space_group_name_H-M   'P 1'
_cell_length_a   16.94564269
_cell_length_b   16.95569541
_cell_length_c   16.94977622
_cell_angle_alpha   90.00456779
_cell_angle_beta   89.99886130
_cell_angle_gamma   90.05627744
_symmetry_Int_Tables_number   1
_chemical_formula_structural   V85Zn86O256
_chemical_formula_sum   'V85 Zn86 O256'
_cell_volume   4870.09473205
_cell_formula_units_Z   1
loop_
 _symmetry_equiv_pos_site_id
 _symmetry_equiv_pos_as_xyz
  1  'x, y, z'
loop_
 _atom_site_type_symbol
 _atom_site_label
 _atom_site_symmetry_multiplicity
 _atom_site_fract_x
 _atom_site_fract_y
 _atom_site_fract_z
 _atom_site_occupancy
  V  V0  1  0.12038930  0.74863531  0.88534209  1
  V  V1  1  0.37733909  -0.00092131  0.37527934  1
  V  V2  1  0.62728478  0.74390536  0.88855453  1
  V  V3  1  0.11818626  0.00707899  0.11338972  1
  V  V4  1  0.50099368  0.37453259  0.37457942  1
  V  V5  1  0.75559112  0.86860342  0.11989101  1
  V  V6  1  -0.01506574  0.74573834  0.74993548  1
  V  V7  1  0.50119977  0.24825472  0.75029759  1
  V  V8  1  0.37377920  0.24880220  0.62638947  1
  V  V9  1  0.62627409  0.74759692  0.37601056  1
  V  V10  1  0.87581445  0.13268857  0.23471448  1
  V  V11  1  0.24963816  -0.00254416  0.74921605  1
  V  V12  1  -0.00081653  0.12195748  0.61545576  1
  V  V13  1  0.75796199  0.12343382  0.87721990  1
  V  V14  1  0.00449355  0.62602029  0.11564567  1
  V  V15  1  0.74731242  0.62616396  0.89503912  1
  V  V16  1  -0.00224287  0.48958753  0.50014143  1
  V  V17  1  0.62683099  -0.00153586  0.62631776  1
  V  V18  1  0.62979941  0.50001624  0.11759048  1
  V  V19  1  0.49719777  -0.00628015  -0.00063904  1
  V  V20  1  0.37387416  0.49306719  0.88469545  1
  V  V21  1  0.75554476  0.25299329  0.00649233  1
  V  V22  1  0.37029740  0.25540738  0.11291173  1
  V  V23  1  0.62667627  0.12199457  0.50077014  1
  V  V24  1  0.62536672  0.62139857  0.50551847  1
  V  V25  1  0.26426207  0.75379845  0.00012109  1
  V  V26  1  0.37641109  0.12356068  0.74984091  1
  V  V27  1  0.76096359  0.74929476  0.50415685  1
  V  V28  1  0.24884485  0.37348635  0.62537577  1
  V  V29  1  0.50083802  0.62036626  0.62619927  1
  V  V30  1  0.75692908  -0.00054651  0.75603444  1
  V  V31  1  0.75853224  0.12298219  0.37412648  1
  V  V32  1  0.12504304  0.50638298  0.11794963  1
  V  V33  1  0.37395989  0.37349112  0.50220524  1
  V  V34  1  0.88195891  0.89208256  0.48396667  1
  V  V35  1  0.87839902  0.50232490  0.86913511  1
  V  V36  1  0.23824620  0.12829487  0.87850347  1
  V  V37  1  -0.00267993  0.88780090  0.87792966  1
  V  V38  1  0.75353925  0.00220823  0.25201229  1
  V  V39  1  0.00405934  0.74843206  0.25584769  1
  V  V40  1  0.62738767  0.87289125  0.75188944  1
  V  V41  1  0.87527258  0.62452151  0.25324594  1
  V  V42  1  0.75397293  0.37778069  0.62391219  1
  V  V43  1  0.24749200  0.86813738  0.62063814  1
  V  V44  1  0.87727845  0.12755225  0.75096899  1
  V  V45  1  0.12794383  0.63226142  0.50259818  1
  V  V46  1  0.24748575  0.49956497  0.75115950  1
  V  V47  1  0.25090186  -0.00122528  0.24662500  1
  V  V48  1  0.37262114  0.74834099  0.62424752  1
  V  V49  1  -0.00860012  0.26132193  0.24808700  1
  V  V50  1  0.62418579  -0.00158081  0.12427197  1
  V  V51  1  0.24925390  0.49973738  0.24875707  1
  V  V52  1  0.50105660  0.74809210  0.75109433  1
  V  V53  1  0.62373767  0.25017647  0.37460589  1
  V  V54  1  -0.01659399  0.62924400  0.62773131  1
  V  V55  1  0.62751002  0.87221329  0.25182330  1
  V  V56  1  0.24275191  0.62519031  0.88296594  1
  V  V57  1  0.76198667  0.87102941  0.62709260  1
  V  V58  1  0.12192271  0.37850286  0.25837710  1
  V  V59  1  0.50101089  0.62803796  0.11825111  1
  V  V60  1  0.74587529  0.50924254  0.74612505  1
  V  V61  1  0.12164500  0.87462673  0.25228165  1
  V  V62  1  0.11922654  -0.00184718  0.61712540  1
  V  V63  1  0.62824818  0.25157066  0.87512525  1
  V  V64  1  0.37299115  0.86893359  0.49966838  1
  V  V65  1  0.62508738  0.37881036  0.74620756  1
  V  V66  1  0.49952780  0.87192916  0.87700463  1
  V  V67  1  0.12335838  0.50092380  0.62515572  1
  V  V68  1  0.11982561  0.37453101  0.75974679  1
  V  V69  1  0.26344556  0.87154521  0.11811040  1
  V  V70  1  0.37313076  0.62389509  0.75133362  1
  V  V71  1  0.37466892  -0.00628639  0.87715315  1
  V  V72  1  0.37624077  0.12617759  0.25065756  1
  V  V73  1  0.49983246  0.12556412  0.12246462  1
  V  V74  1  0.75782585  0.25409793  0.50139720  1
  V  V75  1  0.88366867  0.88385828  0.00093227  1
  V  V76  1  0.88086434  0.48581693  0.37879186  1
  V  V77  1  0.50337852  0.49947374  0.50503947  1
  V  V78  1  0.12261154  0.87156937  0.75016407  1
  V  V79  1  0.37665838  0.63209868  0.24734733  1
  V  V80  1  0.24867092  0.63188915  0.37997851  1
  V  V81  1  0.88358067  0.37859502  0.00260633  1
  V  V82  1  0.37601873  0.49985497  0.37515897  1
  V  V83  1  0.00431436  0.25707603  0.75502051  1
  V  V84  1  0.50197620  -0.00288420  0.50154339  1
  Zn  Zn85  1  0.87428482  0.74754323  0.12178187  1
  Zn  Zn86  1  0.48904004  0.36620606  0.88072335  1
  Zn  Zn87  1  0.12342300  0.12451163  0.49458640  1
  Zn  Zn88  1  0.24716682  0.24575618  0.49611973  1
  Zn  Zn89  1  0.75372082  0.37104413  0.12919793  1
  Zn  Zn90  1  0.88054778  0.25647831  0.61892715  1
  Zn  Zn91  1  0.49939550  0.25325934  0.24659676  1
  Zn  Zn92  1  0.24468198  0.12642451  0.37592003  1
  Zn  Zn93  1  0.12206082  0.24983777  0.37708302  1
  Zn  Zn94  1  0.25104690  0.37675104  0.11502102  1
  Zn  Zn95  1  0.00665034  0.13454993  0.11468871  1
  Zn  Zn96  1  0.75212293  0.62228673  0.37649199  1
  Zn  Zn97  1  0.49717546  0.75078587  0.24717649  1
  Zn  Zn98  1  0.74916040  0.49756688  0.25391705  1
  Zn  Zn99  1  0.62787963  0.37829008  0.24942252  1
  Zn  Zn100  1  0.50059231  0.12344018  0.62537312  1
  Zn  Zn101  1  0.21391354  0.23564404  0.00048468  1
  Zn  Zn102  1  0.50067121  0.87243884  0.37535045  1
  Zn  Zn103  1  0.62929514  0.12477675  -0.00007260  1
  Zn  Zn104  1  0.00876614  0.50447700  -0.01133402  1
  Zn  Zn105  1  0.49907953  0.49165356  0.00334955  1
  Zn  Zn106  1  0.12521206  0.75910683  0.38314373  1
  Zn  Zn107  1  0.18564888  0.19005523  0.19398833  1
  Zn  Zn108  1  0.18624513  0.18512440  0.68789607  1
  Zn  Zn109  1  0.18870752  0.68962079  0.18654045  1
  Zn  Zn110  1  0.18141111  0.68740845  0.69248776  1
  Zn  Zn111  1  0.68394101  0.18826369  0.18827010  1
  Zn  Zn112  1  0.68906753  0.18891423  0.68639478  1
  Zn  Zn113  1  0.68732783  0.68297077  0.18472539  1
  Zn  Zn114  1  0.68780238  0.69093389  0.68748128  1
  Zn  Zn115  1  0.31058459  0.31082403  0.31083778  1
  Zn  Zn116  1  0.30620318  0.30915927  0.81135439  1
  Zn  Zn117  1  0.30938138  0.81405009  0.31174257  1
  Zn  Zn118  1  0.31014809  0.81079883  0.81178666  1
  Zn  Zn119  1  0.81027681  0.31316400  0.31199144  1
  Zn  Zn120  1  0.81543310  0.31653173  0.81259954  1
  Zn  Zn121  1  0.81489556  0.80861327  0.31159965  1
  Zn  Zn122  1  0.81140632  0.81160173  0.82362745  1
  Zn  Zn123  1  0.18785330  0.44261385  0.44076312  1
  Zn  Zn124  1  0.19081502  0.43029688  0.94083204  1
  Zn  Zn125  1  0.18932468  0.94119186  0.43529955  1
  Zn  Zn126  1  0.18598078  0.93634320  0.93697155  1
  Zn  Zn127  1  0.69126265  0.43888510  0.43760217  1
  Zn  Zn128  1  0.69104727  0.43679196  0.93753028  1
  Zn  Zn129  1  0.69371476  0.93535945  0.43842276  1
  Zn  Zn130  1  0.68762425  0.93518367  0.93993497  1
  Zn  Zn131  1  0.31076636  0.06353885  0.06024344  1
  Zn  Zn132  1  0.31043483  0.06056492  0.56177754  1
  Zn  Zn133  1  0.31197653  0.56883476  0.06422154  1
  Zn  Zn134  1  0.31308301  0.56007044  0.56289954  1
  Zn  Zn135  1  0.81429044  0.05841945  0.06342682  1
  Zn  Zn136  1  0.81372276  0.06261185  0.56464224  1
  Zn  Zn137  1  0.81801661  0.56020070  0.06405535  1
  Zn  Zn138  1  0.80906153  0.55723151  0.56009559  1
  Zn  Zn139  1  0.43884318  0.43976813  0.18608127  1
  Zn  Zn140  1  0.43742421  0.43631588  0.69250158  1
  Zn  Zn141  1  0.44019315  0.93633955  0.18815773  1
  Zn  Zn142  1  0.43818867  0.93569125  0.68830874  1
  Zn  Zn143  1  0.93872219  0.44247272  0.18598777  1
  Zn  Zn144  1  0.93476180  0.44208960  0.68559585  1
  Zn  Zn145  1  0.94641685  0.94774815  0.20248127  1
  Zn  Zn146  1  0.93870176  0.93627588  0.69023505  1
  Zn  Zn147  1  0.05528810  0.06496152  0.31318995  1
  Zn  Zn148  1  0.06148466  0.06320157  0.80310012  1
  Zn  Zn149  1  0.06141059  0.56407822  0.31437168  1
  Zn  Zn150  1  0.06213348  0.56699511  0.80814393  1
  Zn  Zn151  1  0.56364995  0.06102902  0.31410914  1
  Zn  Zn152  1  0.56621976  0.06272637  0.81315901  1
  Zn  Zn153  1  0.56378803  0.56170947  0.30962459  1
  Zn  Zn154  1  0.56257739  0.56260365  0.81589482  1
  Zn  Zn155  1  0.43650866  0.18586793  0.44073519  1
  Zn  Zn156  1  0.43635679  0.18152096  0.93523276  1
  Zn  Zn157  1  0.43917935  0.68705138  0.43602387  1
  Zn  Zn158  1  0.43741019  0.68258372  0.93630757  1
  Zn  Zn159  1  0.94142207  0.19195705  0.42932726  1
  Zn  Zn160  1  0.94237196  0.19668180  0.93749228  1
  Zn  Zn161  1  0.94203791  0.68225937  0.43838482  1
  Zn  Zn162  1  0.92833604  0.69586611  0.93941333  1
  Zn  Zn163  1  0.06587591  0.32156812  0.06747436  1
  Zn  Zn164  1  0.06561732  0.30752055  0.56675052  1
  Zn  Zn165  1  0.06340049  0.81714585  0.06850322  1
  Zn  Zn166  1  0.05312814  0.81184771  0.56393113  1
  Zn  Zn167  1  0.56214436  0.31605690  0.05796476  1
  Zn  Zn168  1  0.56477174  0.31062240  0.56314289  1
  Zn  Zn169  1  0.56157284  0.81263288  0.06586338  1
  Zn  Zn170  1  0.56460724  0.81052809  0.56479538  1
  O  O171  1  0.13160443  0.10978680  0.13166276  1
  O  O172  1  0.11621410  0.11416831  0.62612566  1
  O  O173  1  0.11704185  0.61724172  0.13056935  1
  O  O174  1  0.12402373  0.61843072  0.61856707  1
  O  O175  1  0.61398021  0.11892724  0.12513271  1
  O  O176  1  0.62710951  0.11693979  0.61923891  1
  O  O177  1  0.61187598  0.61305065  0.13081692  1
  O  O178  1  0.61616912  0.63380834  0.61328023  1
  O  O179  1  0.38306990  0.37883040  0.38026202  1
  O  O180  1  0.36807826  0.39010403  0.86803126  1
  O  O181  1  0.37578349  0.87834127  0.38315976  1
  O  O182  1  0.38129867  0.88609612  0.86770196  1
  O  O183  1  0.87629589  0.38730040  0.37345868  1
  O  O184  1  0.86624446  0.39350632  0.88450646  1
  O  O185  1  0.86663712  0.87728709  0.38527350  1
  O  O186  1  0.88222752  0.87298100  0.89055111  1
  O  O187  1  0.25936898  -0.00092094  0.36108339  1
  O  O188  1  0.25775674  0.00304076  0.87035965  1
  O  O189  1  0.25589398  0.50898030  0.36628639  1
  O  O190  1  0.25348483  0.50660715  0.87306835  1
  O  O191  1  0.73993070  0.01302152  0.36386296  1
  O  O192  1  0.74372353  0.01042447  0.86624622  1
  O  O193  1  0.76630149  0.50305662  0.37704747  1
  O  O194  1  0.75210846  0.51288755  0.86929716  1
  O  O195  1  0.24430906  0.50306016  0.13317615  1
  O  O196  1  0.24505538  0.49448985  0.63252240  1
  O  O197  1  0.24999466  0.98938940  0.12883284  1
  O  O198  1  0.24247736  0.98787798  0.63040085  1
  O  O199  1  0.73682768  0.50376700  0.12638612  1
  O  O200  1  0.75132525  0.49049854  0.63343721  1
  O  O201  1  0.74133486  0.99406345  0.13275144  1
  O  O202  1  0.74597808  0.99244199  0.63646292  1
  O  O203  1  0.00471567  0.36914390  0.24672411  1
  O  O204  1  0.00391756  0.36391080  0.73873934  1
  O  O205  1  0.01278389  0.85488489  0.23139073  1
  O  O206  1  0.00273884  0.86578618  0.75759759  1
  O  O207  1  0.49983676  0.37447029  0.26553645  1
  O  O208  1  0.50828145  0.36866277  0.75785467  1
  O  O209  1  0.51443903  0.87200262  0.24942377  1
  O  O210  1  0.50649132  0.86825796  0.75672835  1
  O  O211  1  0.49273908  0.12123829  0.23930491  1
  O  O212  1  0.49528768  0.12923464  0.74930644  1
  O  O213  1  0.49117904  0.62506494  0.24375396  1
  O  O214  1  0.49435359  0.62835800  0.74618130  1
  O  O215  1  0.98723132  0.14009498  0.24503546  1
  O  O216  1  0.99370663  0.13543822  0.74249424  1
  O  O217  1  0.99475477  0.62976230  0.24162562  1
  O  O218  1  1.00238901  0.63380170  0.73936452  1
  O  O219  1  0.37765105  0.24292482  0.01327017  1
  O  O220  1  0.37429375  0.25657310  0.50823866  1
  O  O221  1  0.36376449  0.75210589  -0.00762370  1
  O  O222  1  0.38125364  0.76070787  0.50650650  1
  O  O223  1  0.86903313  0.26883220  -0.00943337  1
  O  O224  1  0.86108546  0.24666192  0.49649559  1
  O  O225  1  0.87665948  0.76974911  0.00875186  1
  O  O226  1  0.86239260  0.75088981  0.49275171  1
  O  O227  1  0.12754613  0.24627996  0.49606497  1
  O  O228  1  0.08960402  0.23109796  0.99692765  1
  O  O229  1  0.11879419  0.73711728  0.50044048  1
  O  O230  1  0.13134206  0.75829369  0.98809421  1
  O  O231  1  0.63259842  0.24280593  0.49206691  1
  O  O232  1  0.63541263  0.24762749  0.98997641  1
  O  O233  1  0.63238060  0.74405705  0.49332462  1
  O  O234  1  0.62133892  0.75359295  0.98727428  1
  O  O235  1  0.49266653  0.24036948  0.12514463  1
  O  O236  1  0.49353620  0.24776280  0.63231024  1
  O  O237  1  0.50776240  0.73295679  0.12808293  1
  O  O238  1  0.49340450  0.74303843  0.63197790  1
  O  O239  1  1.00922005  0.25070716  0.14359699  1
  O  O240  1  0.99658404  0.23915956  0.63232186  1
  O  O241  1  1.00414064  0.73721734  0.13240000  1
  O  O242  1  1.00401367  0.74044214  0.63834211  1
  O  O243  1  0.00354250  0.25025562  0.35522933  1
  O  O244  1  -0.00193207  0.25126671  0.85312672  1
  O  O245  1  0.00666023  0.74094050  0.36070795  1
  O  O246  1  0.00592183  0.75364042  0.86988682  1
  O  O247  1  0.50800323  0.25709780  0.37783865  1
  O  O248  1  0.51148444  0.24482395  0.87008734  1
  O  O249  1  0.51387846  0.75186572  0.37274751  1
  O  O250  1  0.50641598  0.75091204  0.87080167  1
  O  O251  1  0.24673222  0.12442763  0.49528151  1
  O  O252  1  0.24950715  0.12393888  0.98449599  1
  O  O253  1  0.24117422  0.61626333  0.49155943  1
  O  O254  1  0.25216882  0.63597506  0.99047248  1
  O  O255  1  0.74657354  0.13118009  0.49227591  1
  O  O256  1  0.75451921  0.13136449  0.99168398  1
  O  O257  1  0.74093235  0.63254103  0.50249023  1
  O  O258  1  0.74759115  0.62333465  0.99344528  1
  O  O259  1  0.21118374  0.34723054  0.01186889  1
  O  O260  1  0.25751705  0.37800439  0.50834113  1
  O  O261  1  0.24979951  0.87079997  0.01139173  1
  O  O262  1  0.26041823  0.87954146  0.50955384  1
  O  O263  1  0.75746961  0.36694588  0.00246166  1
  O  O264  1  0.73970858  0.36521337  0.51149840  1
  O  O265  1  0.76082538  0.88252783  0.01129955  1
  O  O266  1  0.75992614  0.86897288  0.50814960  1
  O  O267  1  0.13359747  0.50023327  0.24558972  1
  O  O268  1  0.12749872  0.49471590  0.74409745  1
  O  O269  1  0.14133875  0.99302650  0.23933496  1
  O  O270  1  0.13037039  0.99030432  0.73950779  1
  O  O271  1  0.62886690  0.49850158  0.24133232  1
  O  O272  1  0.63141699  0.48751279  0.75975822  1
  O  O273  1  0.63135501  0.99171005  0.24509246  1
  O  O274  1  0.63566195  0.99346462  0.74763384  1
  O  O275  1  0.37076475  0.00528832  0.25256450  1
  O  O276  1  0.37087445  0.00293092  0.75689585  1
  O  O277  1  0.36694492  0.50695324  0.25495648  1
  O  O278  1  0.36642824  0.50560255  0.75884886  1
  O  O279  1  0.85609722  0.01457691  0.23989620  1
  O  O280  1  0.86516628  0.01094438  0.74778373  1
  O  O281  1  0.87899950  0.50705243  0.26335619  1
  O  O282  1  0.86280871  0.49522526  0.76308207  1
  O  O283  1  0.12855299  0.38411556  0.36131342  1
  O  O284  1  0.12190890  0.38400133  0.85850678  1
  O  O285  1  0.13611508  0.87484661  0.35839657  1
  O  O286  1  0.11699413  0.86820325  0.87059322  1
  O  O287  1  0.61710322  0.36630305  0.37883424  1
  O  O288  1  0.63262446  0.36187938  0.86521995  1
  O  O289  1  0.62825392  0.86697020  0.36732875  1
  O  O290  1  0.62163804  0.86573520  0.87082785  1
  O  O291  1  0.38309004  0.12928632  0.13071428  1
  O  O292  1  0.37576290  0.12893647  0.63306429  1
  O  O293  1  0.38814118  0.61743313  0.13607606  1
  O  O294  1  0.37870833  0.62939152  0.63076289  1
  O  O295  1  0.87944935  0.12709424  0.13042373  1
  O  O296  1  0.88122727  0.12624568  0.63580121  1
  O  O297  1  0.88544447  0.62259743  0.13531679  1
  O  O298  1  0.88481169  0.62242461  0.61916477  1
  O  O299  1  0.26437057  0.24267030  0.12375700  1
  O  O300  1  0.25681844  0.25658006  0.62746998  1
  O  O301  1  0.24472491  0.76305957  0.11540719  1
  O  O302  1  0.25394947  0.76114740  0.63287543  1
  O  O303  1  0.74392557  0.24784282  0.11009689  1
  O  O304  1  0.75272231  0.25617543  0.61687158  1
  O  O305  1  0.75106682  0.76491856  0.13344292  1
  O  O306  1  0.74596481  0.76109712  0.61703064  1
  O  O307  1  0.24521217  0.24580792  0.37488451  1
  O  O308  1  0.25099468  0.23129883  0.87356900  1
  O  O309  1  0.24761536  0.73535768  0.37169541  1
  O  O310  1  0.24208327  0.74529286  0.88116825  1
  O  O311  1  0.74170030  0.24448082  0.38170276  1
  O  O312  1  0.74668633  0.24250843  0.88095207  1
  O  O313  1  0.74058493  0.74737458  0.38407856  1
  O  O314  1  0.74232521  0.73325290  0.87144440  1
  O  O315  1  0.03390042  0.16429639  0.00070458  1
  O  O316  1  -0.00482508  0.12941912  0.51260738  1
  O  O317  1  -0.00858279  0.62460829  0.01194189  1
  O  O318  1  0.00901785  0.61879600  0.51011124  1
  O  O319  1  0.50285996  0.11429859  0.00830928  1
  O  O320  1  0.50775804  0.11573595  0.50218040  1
  O  O321  1  0.49113834  0.61779746  0.01514537  1
  O  O322  1  0.50605751  0.61999876  0.50535443  1
  O  O323  1  0.49650418  0.37884525  0.49358140  1
  O  O324  1  0.50029506  0.37919293  0.99073727  1
  O  O325  1  0.49129497  0.87888388  0.50152345  1
  O  O326  1  0.50448433  0.88618547  0.99557178  1
  O  O327  1  1.00346522  0.39098682  0.51216181  1
  O  O328  1  0.98692967  0.38214298  1.00116642  1
  O  O329  1  0.97944856  0.87028260  0.50278053  1
  O  O330  1  0.99326104  0.87514407  0.99392309  1
  O  O331  1  0.49652036  0.49192071  0.38239253  1
  O  O332  1  0.48039258  0.50547401  0.87704444  1
  O  O333  1  0.49594942  0.99496192  0.38188582  1
  O  O334  1  0.49565600  0.99452951  0.88045541  1
  O  O335  1  0.98976211  0.50476919  0.38460313  1
  O  O336  1  0.98254578  0.51228334  0.87209805  1
  O  O337  1  0.98917497  0.97956316  0.30798101  1
  O  O338  1  1.00368592  0.98640982  0.86547017  1
  O  O339  1  0.01507302  0.00757523  0.12514056  1
  O  O340  1  0.00893166  0.00901184  0.63527972  1
  O  O341  1  0.00939107  0.51118228  0.12386218  1
  O  O342  1  0.00301373  0.51059863  0.62097598  1
  O  O343  1  0.50270410  0.00514749  0.11732512  1
  O  O344  1  0.50880072  -0.00127494  0.62066050  1
  O  O345  1  0.50932704  0.50774451  0.12522788  1
  O  O346  1  0.49341330  0.50685294  0.61873400  1
  O  O347  1  0.24546455  0.38845910  0.24611671  1
  O  O348  1  0.23940106  0.37933917  0.74552060  1
  O  O349  1  0.24611410  0.87907010  0.23712208  1
  O  O350  1  0.24381178  0.87808948  0.74190172  1
  O  O351  1  0.74714362  0.37805399  0.24463690  1
  O  O352  1  0.74299480  0.38222309  0.74426771  1
  O  O353  1  0.74427123  0.88358646  0.24521128  1
  O  O354  1  0.74981226  0.88084996  0.74815534  1
  O  O355  1  0.26271728  0.11398401  0.24688059  1
  O  O356  1  0.25602559  0.11713429  0.75730482  1
  O  O357  1  0.25641085  0.61763487  0.25535086  1
  O  O358  1  0.25277753  0.62014614  0.76072051  1
  O  O359  1  0.75369188  0.12292524  0.25423081  1
  O  O360  1  0.75824765  0.12033029  0.75625297  1
  O  O361  1  0.76401097  0.62319144  0.25036370  1
  O  O362  1  0.74279588  0.61162360  0.74789397  1
  O  O363  1  0.37949454  0.11834204  0.36338670  1
  O  O364  1  0.36878807  0.11190143  0.86820495  1
  O  O365  1  0.36918133  0.61934321  0.36998983  1
  O  O366  1  0.36272364  0.61658349  0.87053242  1
  O  O367  1  0.86152158  0.13319694  0.36156922  1
  O  O368  1  0.86806647  0.13252095  0.86627461  1
  O  O369  1  0.87544722  0.62031355  0.36447107  1
  O  O370  1  0.85823483  0.61546979  0.88146405  1
  O  O371  1  0.12412041  0.39229253  0.14143807  1
  O  O372  1  0.13035225  0.38351698  0.63279534  1
  O  O373  1  0.13447478  0.88705237  0.13303918  1
  O  O374  1  0.12940418  0.87764644  0.62823129  1
  O  O375  1  0.62358616  0.38818228  0.12823229  1
  O  O376  1  0.63360642  0.36762770  0.63888056  1
  O  O377  1  0.63286305  0.87800388  0.13335530  1
  O  O378  1  0.63596780  0.87863871  0.63235715  1
  O  O379  1  0.11905323  0.26395709  0.25166337  1
  O  O380  1  0.11249506  0.25843521  0.74241051  1
  O  O381  1  0.12198926  0.75672418  0.25205484  1
  O  O382  1  0.11838586  0.75557178  0.76351273  1
  O  O383  1  0.62094353  0.25117061  0.26356996  1
  O  O384  1  0.62260068  0.25552138  0.75702010  1
  O  O385  1  0.62935248  0.75708463  0.25924055  1
  O  O386  1  0.61921472  0.75457992  0.75846326  1
  O  O387  1  0.37815786  0.23866528  0.24121383  1
  O  O388  1  0.38121303  0.24426523  0.74728968  1
  O  O389  1  0.37615606  0.73680803  0.25582852  1
  O  O390  1  0.38041164  0.74374700  0.74616155  1
  O  O391  1  0.88313169  0.24946847  0.24804640  1
  O  O392  1  0.88317855  0.24378373  0.74673038  1
  O  O393  1  0.88487147  0.74155564  0.24690625  1
  O  O394  1  0.88599913  0.75286380  0.75835451  1
  O  O395  1  0.38236504  0.49376877  0.49460310  1
  O  O396  1  0.36622962  0.50052908  0.98677202  1
  O  O397  1  0.38126695  0.98912551  0.49623134  1
  O  O398  1  0.38590924  1.00543875  0.98926616  1
  O  O399  1  0.88265711  0.50571006  0.48659248  1
  O  O400  1  0.87374292  0.49329101  0.98685432  1
  O  O401  1  0.87009640  0.99176108  0.49676905  1
  O  O402  1  0.87849781  0.98543156  1.00584829  1
  O  O403  1  0.13018817  -0.00291582  0.01455864  1
  O  O404  1  0.12649859  -0.00291655  0.51395615  1
  O  O405  1  0.12493986  0.49691789  0.01293905  1
  O  O406  1  0.11659699  0.50911122  0.50612389  1
  O  O407  1  0.61569426  0.00283237  0.00467423  1
  O  O408  1  0.62341616  0.00176200  0.50553516  1
  O  O409  1  0.62539770  0.49797982  0.01336456  1
  O  O410  1  0.62015377  0.51337536  0.49376222  1
  O  O411  1  0.37411638  0.35893153  0.13040909  1
  O  O412  1  0.36936428  0.36935948  0.62299507  1
  O  O413  1  0.36259895  0.87554054  0.12898464  1
  O  O414  1  0.36705392  0.86980919  0.61968329  1
  O  O415  1  0.87031802  0.39123058  0.10678779  1
  O  O416  1  0.85960871  0.37339638  0.63027565  1
  O  O417  1  0.86979705  0.87896428  0.12164930  1
  O  O418  1  0.86430318  0.88089239  0.61932966  1
  O  O419  1  0.12445207  0.12363093  0.37541318  1
  O  O420  1  0.14011999  0.11565232  0.86626996  1
  O  O421  1  0.13367302  0.62285613  0.38545340  1
  O  O422  1  0.13416908  0.63320455  0.87190965  1
  O  O423  1  0.63234849  0.13306872  0.37903607  1
  O  O424  1  0.63837925  0.13495861  0.87356017  1
  O  O425  1  0.62604452  0.63259338  0.38421186  1
  O  O426  1  0.63617871  0.62973751  0.87456015  1
