# generated using pymatgen
data_V85Zn86O256
_symmetry_space_group_name_H-M   'P 1'
_cell_length_a   16.98053684
_cell_length_b   16.97089574
_cell_length_c   16.98967021
_cell_angle_alpha   89.87417614
_cell_angle_beta   90.01473178
_cell_angle_gamma   89.88316299
_symmetry_Int_Tables_number   1
_chemical_formula_structural   V85Zn86O256
_chemical_formula_sum   'V85 Zn86 O256'
_cell_volume   4895.97470474
_cell_formula_units_Z   1
loop_
 _symmetry_equiv_pos_site_id
 _symmetry_equiv_pos_as_xyz
  1  'x, y, z'
loop_
 _atom_site_type_symbol
 _atom_site_label
 _atom_site_symmetry_multiplicity
 _atom_site_fract_x
 _atom_site_fract_y
 _atom_site_fract_z
 _atom_site_occupancy
  V  V0  1  0.49884044  0.62449439  0.62721259  1
  V  V1  1  0.62458195  0.24423575  0.37685318  1
  V  V2  1  0.24516007  0.12842406  0.87824548  1
  V  V3  1  0.74349816  0.62863696  0.37461333  1
  V  V4  1  0.01866486  0.36899380  0.87630565  1
  V  V5  1  0.24717135  0.87538070  0.62284995  1
  V  V6  1  0.87664353  0.00979899  0.37289504  1
  V  V7  1  0.50221856  0.01141104  0.50740957  1
  V  V8  1  0.12773210  0.00360774  0.12761709  1
  V  V9  1  0.61969571  0.87615681  0.75265756  1
  V  V10  1  0.12302435  0.62005185  0.50173550  1
  V  V11  1  0.49859009  0.38701104  0.88099110  1
  V  V12  1  0.24345718  0.24772950  0.50098624  1
  V  V13  1  0.62154539  0.61627653  0.00398466  1
  V  V14  1  0.87810937  -0.00294464  0.87514356  1
  V  V15  1  0.36993829  0.61235925  0.75327367  1
  V  V16  1  -0.00005946  0.61413567  0.62284067  1
  V  V17  1  0.36980884  0.74851802  0.62162844  1
  V  V18  1  0.37370817  0.50048297  0.37331460  1
  V  V19  1  0.49863689  0.25092415  0.25035859  1
  V  V20  1  0.87188242  0.62794396  0.24961805  1
  V  V21  1  0.74712416  0.24516742  0.49818868  1
  V  V22  1  0.75334447  0.37551342  0.62168327  1
  V  V23  1  0.62344421  0.12688876  -0.00556267  1
  V  V24  1  0.62311091  -0.00409355  0.12776387  1
  V  V25  1  0.37943556  0.37420009  0.49843575  1
  V  V26  1  0.23427654  0.01252123  0.73723634  1
  V  V27  1  0.49822627  -0.00990851  -0.00670300  1
  V  V28  1  0.25172355  0.38097301  0.63626011  1
  V  V29  1  0.50884564  0.24806235  0.76135363  1
  V  V30  1  0.74922135  0.50103366  0.74981199  1
  V  V31  1  0.74784757  0.87582931  0.62463072  1
  V  V32  1  0.36510832  0.12077074  0.24840596  1
  V  V33  1  0.24253258  0.12518994  0.37867908  1
  V  V34  1  0.87690127  0.87625096  -0.00241396  1
  V  V35  1  0.88141872  0.13374044  0.74853166  1
  V  V36  1  0.49682249  0.12173992  0.12377771  1
  V  V37  1  0.37172878  0.87131829  0.49832889  1
  V  V38  1  0.74796934  0.75131390  -0.00052682  1
  V  V39  1  0.37254488  0.25439419  0.11939901  1
  V  V40  1  0.25136477  0.61199129  0.87290822  1
  V  V41  1  0.50515693  0.75365403  0.25754668  1
  V  V42  1  0.38564368  0.24631398  0.62322663  1
  V  V43  1  0.24561831  0.25804373  -0.00501738  1
  V  V44  1  0.37413030  -0.00690716  0.87158133  1
  V  V45  1  0.75067808  0.87675639  0.12512858  1
  V  V46  1  0.50055586  0.49993940  0.49965251  1
  V  V47  1  0.87407490  0.75192299  0.12481337  1
  V  V48  1  0.00044530  -0.00066157  -0.00221962  1
  V  V49  1  0.62479835  0.62697827  0.49944764  1
  V  V50  1  0.87536198  0.62341900  0.75071762  1
  V  V51  1  0.12735797  0.75262158  0.38254825  1
  V  V52  1  0.74280358  0.75323566  0.49498465  1
  V  V53  1  0.74791726  0.62525554  0.87505840  1
  V  V54  1  0.12449433  0.61958192  0.00246623  1
  V  V55  1  0.25027791  0.63012943  0.38101738  1
  V  V56  1  0.62805104  0.37678189  0.23641868  1
  V  V57  1  0.74665532  0.13312938  0.87767204  1
  V  V58  1  0.62129927  0.75264256  0.87536884  1
  V  V59  1  0.25007960  0.75210665  -0.00053387  1
  V  V60  1  0.87657584  0.49625536  0.87547513  1
  V  V61  1  0.75053472  0.00001060  0.74997235  1
  V  V62  1  0.88267289  0.38080331  0.49498703  1
  V  V63  1  0.13319888  0.50120700  0.64059244  1
  V  V64  1  0.87762684  0.50195182  0.37782627  1
  V  V65  1  0.50031018  0.62082464  0.12662355  1
  V  V66  1  0.74332780  0.49778956  0.23944689  1
  V  V67  1  0.87931452  0.87651203  0.49936211  1
  V  V68  1  0.00131882  0.62909550  0.12466863  1
  V  V69  1  0.25007458  0.87866613  0.12376338  1
  V  V70  1  -0.00863062  0.12836818  0.13496659  1
  V  V71  1  0.75533604  0.00747651  0.24999806  1
  V  V72  1  0.00933399  0.02066753  0.51037950  1
  V  V73  1  0.49515317  0.75446457  0.75637844  1
  V  V74  1  0.86597017  0.36949360  0.00735185  1
  V  V75  1  0.24419421  0.37662842  0.12847158  1
  V  V76  1  0.12095833  0.87532141  0.74685790  1
  V  V77  1  -0.00203560  0.75153070  0.75187207  1
  V  V78  1  0.23936541  0.49631097  0.25412342  1
  V  V79  1  0.12120976  0.75326241  0.87576587  1
  V  V80  1  0.12866398  0.87698911  0.25124608  1
  V  V81  1  0.62559842  0.49523250  0.62615307  1
  V  V82  1  0.37201137  -0.00141517  0.37191978  1
  V  V83  1  0.38232277  0.12421340  0.74677398  1
  V  V84  1  0.00145177  0.27173292  0.25208283  1
  Zn  Zn85  1  0.50370573  0.37710024  0.37302073  1
  Zn  Zn86  1  0.62117724  0.01420542  0.62484912  1
  Zn  Zn87  1  0.01804447  0.25382436  0.75502385  1
  Zn  Zn88  1  0.88597279  0.23798519  0.61025480  1
  Zn  Zn89  1  0.87543779  0.74716403  0.62349887  1
  Zn  Zn90  1  0.01898749  0.39299586  0.38504500  1
  Zn  Zn91  1  0.48790628  0.49677976  0.00832034  1
  Zn  Zn92  1  -0.00158937  0.49672006  0.00362713  1
  Zn  Zn93  1  0.73703953  0.25804987  0.00588262  1
  Zn  Zn94  1  0.63125145  0.36766634  0.75774785  1
  Zn  Zn95  1  0.50893083  0.87283249  0.38271924  1
  Zn  Zn96  1  0.85990649  0.24932916  0.13844910  1
  Zn  Zn97  1  0.00283254  0.87832978  0.37726764  1
  Zn  Zn98  1  0.75056571  0.12723414  0.37382953  1
  Zn  Zn99  1  0.37765305  0.87140041  -0.00612613  1
  Zn  Zn100  1  0.37562746  0.75255034  0.12667429  1
  Zn  Zn101  1  0.63119110  0.87005566  0.26333100  1
  Zn  Zn102  1  -0.00197254  0.75399137  0.25404383  1
  Zn  Zn103  1  0.13025967  0.26253329  0.36378693  1
  Zn  Zn104  1  0.11872808  0.49400894  0.13289058  1
  Zn  Zn105  1  0.12016081  0.13056026  -0.00453295  1
  Zn  Zn106  1  0.37247538  0.62939729  0.24859623  1
  Zn  Zn107  1  0.18212674  0.18950005  0.18535225  1
  Zn  Zn108  1  0.20007346  0.18601621  0.68801619  1
  Zn  Zn109  1  0.18778638  0.68998868  0.19269524  1
  Zn  Zn110  1  0.18790487  0.68685394  0.68949149  1
  Zn  Zn111  1  0.68299045  0.18673297  0.18488473  1
  Zn  Zn112  1  0.69698744  0.18763951  0.68825237  1
  Zn  Zn113  1  0.68485004  0.68670813  0.18612613  1
  Zn  Zn114  1  0.68584080  0.68906860  0.68549795  1
  Zn  Zn115  1  0.31000202  0.31232513  0.31158464  1
  Zn  Zn116  1  0.32004819  0.30893173  0.81118663  1
  Zn  Zn117  1  0.31378248  0.81251776  0.30999456  1
  Zn  Zn118  1  0.30462625  0.80967537  0.80807516  1
  Zn  Zn119  1  0.81267510  0.31520564  0.31151085  1
  Zn  Zn120  1  0.81203727  0.31572865  0.81766650  1
  Zn  Zn121  1  0.81202541  0.81795105  0.31341079  1
  Zn  Zn122  1  0.81137871  0.81243242  0.81284086  1
  Zn  Zn123  1  0.18948031  0.43696828  0.44777212  1
  Zn  Zn124  1  0.31951387  0.43732219  0.93652633  1
  Zn  Zn125  1  0.18798153  0.94164924  0.44091758  1
  Zn  Zn126  1  0.18574732  0.94047485  0.93227287  1
  Zn  Zn127  1  0.68771761  0.43407110  0.43101627  1
  Zn  Zn128  1  0.68234853  0.43522859  0.93550425  1
  Zn  Zn129  1  0.68601511  0.94258800  0.43577747  1
  Zn  Zn130  1  0.68888126  0.94058411  0.93623924  1
  Zn  Zn131  1  0.31273299  0.06345959  0.05815827  1
  Zn  Zn132  1  0.31455579  0.06202265  0.55911483  1
  Zn  Zn133  1  0.31191494  0.56592665  0.06953140  1
  Zn  Zn134  1  0.31220195  0.56388970  0.56164029  1
  Zn  Zn135  1  0.81048143  0.06553353  0.06244418  1
  Zn  Zn136  1  0.81599600  0.06057119  0.56341892  1
  Zn  Zn137  1  0.81237243  0.56344384  0.05962847  1
  Zn  Zn138  1  0.81285155  0.56289450  0.56192093  1
  Zn  Zn139  1  0.43301097  0.43733880  0.18784754  1
  Zn  Zn140  1  0.44143104  0.43068173  0.68830636  1
  Zn  Zn141  1  0.43604795  0.93456451  0.18665621  1
  Zn  Zn142  1  0.43123469  0.93843296  0.68518319  1
  Zn  Zn143  1  0.93070990  0.44466033  0.18812583  1
  Zn  Zn144  1  0.95488731  0.41154544  0.67537460  1
  Zn  Zn145  1  0.94014356  0.93848489  0.18792615  1
  Zn  Zn146  1  0.93756545  0.94043977  0.68471137  1
  Zn  Zn147  1  0.06072464  0.05997566  0.31487241  1
  Zn  Zn148  1  0.06068587  0.06622252  0.81108031  1
  Zn  Zn149  1  0.06056606  0.56961736  0.31277449  1
  Zn  Zn150  1  0.06245488  0.56067850  0.81687337  1
  Zn  Zn151  1  0.55884924  0.06029461  0.31392766  1
  Zn  Zn152  1  0.56264516  0.05914658  0.81293211  1
  Zn  Zn153  1  0.56260258  0.56317577  0.30937462  1
  Zn  Zn154  1  0.56117791  0.56498745  0.81212094  1
  Zn  Zn155  1  0.43171897  0.18701119  0.43184684  1
  Zn  Zn156  1  0.43564737  0.18225227  0.93674695  1
  Zn  Zn157  1  0.43792152  0.68646913  0.43779744  1
  Zn  Zn158  1  0.43362269  0.68110851  0.93787831  1
  Zn  Zn159  1  0.93995690  0.19464074  0.43153719  1
  Zn  Zn160  1  0.93922795  0.18956769  0.93683337  1
  Zn  Zn161  1  0.93705536  0.68984727  0.43840383  1
  Zn  Zn162  1  0.93640591  0.68759194  0.93749817  1
  Zn  Zn163  1  0.05976922  0.31334135  0.05870458  1
  Zn  Zn164  1  0.07869047  0.29078887  0.59890133  1
  Zn  Zn165  1  0.06270870  0.81424255  0.06233710  1
  Zn  Zn166  1  0.06187337  0.80756007  0.56561320  1
  Zn  Zn167  1  0.55761102  0.31172231  0.06011760  1
  Zn  Zn168  1  0.56623832  0.18960180  0.56177584  1
  Zn  Zn169  1  0.56219419  0.80742787  0.06699182  1
  Zn  Zn170  1  0.55853000  0.81576413  0.56542566  1
  O  O171  1  0.11648837  0.11582785  0.12210376  1
  O  O172  1  0.17346127  0.07220469  0.68193773  1
  O  O173  1  0.11557503  0.63199201  0.11984665  1
  O  O174  1  0.12174816  0.62105208  0.62034999  1
  O  O175  1  0.61672554  0.11142166  0.11661547  1
  O  O176  1  0.63115736  0.12537463  0.62501414  1
  O  O177  1  0.61482238  0.63208484  0.11324055  1
  O  O178  1  0.61956752  0.61633982  0.62033483  1
  O  O179  1  0.37338445  0.38456009  0.38105274  1
  O  O180  1  0.38998977  0.37433553  0.87094072  1
  O  O181  1  0.37354136  0.88208804  0.38224083  1
  O  O182  1  0.36186688  0.88909846  0.87199975  1
  O  O183  1  0.87195515  0.38820716  0.38091847  1
  O  O184  1  0.87544684  0.38505943  0.88558063  1
  O  O185  1  0.87517406  0.88451062  0.38587751  1
  O  O186  1  0.86851098  0.88845581  0.88016938  1
  O  O187  1  0.26389423  0.00963726  0.38343787  1
  O  O188  1  0.25307158  0.01017565  0.86223895  1
  O  O189  1  0.25660511  0.50789247  0.37224703  1
  O  O190  1  0.24786572  0.51381672  0.88228354  1
  O  O191  1  0.75781716  0.00442729  0.36830382  1
  O  O192  1  0.75956295  0.00767404  0.86985684  1
  O  O193  1  0.75621905  0.51178254  0.36785478  1
  O  O194  1  0.75487617  0.50592240  0.86976413  1
  O  O195  1  0.24794111  0.49390634  0.13785181  1
  O  O196  1  0.25120536  0.48863527  0.62372077  1
  O  O197  1  0.23816853  0.99183003  0.11397990  1
  O  O198  1  0.26967219  0.98021554  0.62888118  1
  O  O199  1  0.75172060  0.51129933  0.14079844  1
  O  O200  1  0.74141732  0.49903077  0.62909683  1
  O  O201  1  0.74330645  0.99681523  0.13032562  1
  O  O202  1  0.74909518  0.98912266  0.62953311  1
  O  O203  1  0.00333490  0.37292424  0.24510351  1
  O  O204  1  0.00080840  0.38315073  0.77466573  1
  O  O205  1  0.01367925  0.87439734  0.25213508  1
  O  O206  1  0.00552023  0.86065395  0.73888702  1
  O  O207  1  0.50367725  0.36437449  0.25001772  1
  O  O208  1  0.50195942  0.36110999  0.75786341  1
  O  O209  1  0.50007370  0.86219919  0.25010537  1
  O  O210  1  0.50795113  0.86643318  0.74032464  1
  O  O211  1  0.49059830  0.13323434  0.24406946  1
  O  O212  1  0.49161170  0.13438466  0.75807779  1
  O  O213  1  0.50031794  0.63587106  0.24416607  1
  O  O214  1  0.49106542  0.63477069  0.74573181  1
  O  O215  1  1.00015388  0.12204136  0.23583614  1
  O  O216  1  0.98450793  0.13033388  0.75731965  1
  O  O217  1  0.99203932  0.63030078  0.23991654  1
  O  O218  1  0.99546813  0.63087595  0.74336975  1
  O  O219  1  0.36667202  0.23841749  0.01387948  1
  O  O220  1  0.37276669  0.25640912  0.50513179  1
  O  O221  1  0.36099654  0.75301730  -0.00196921  1
  O  O222  1  0.38156277  0.75718863  0.51119591  1
  O  O223  1  0.87417016  0.26472687  0.00051216  1
  O  O224  1  0.86629347  0.26227674  0.49573524  1
  O  O225  1  0.86823881  0.75584580  0.00311863  1
  O  O226  1  0.86302919  0.75888098  0.50138503  1
  O  O227  1  0.14273459  0.25299137  0.50960483  1
  O  O228  1  0.14249324  0.24824955  1.00509788  1
  O  O229  1  0.12390679  0.74147320  0.49049929  1
  O  O230  1  0.12910877  0.74503192  0.99312890  1
  O  O231  1  0.63311810  0.25079623  0.48823553  1
  O  O232  1  0.61780842  0.23013386  1.00438199  1
  O  O233  1  0.63524473  0.74512872  0.50877399  1
  O  O234  1  0.62961055  0.74545460  0.99341938  1
  O  O235  1  0.49051320  0.24358882  0.13139532  1
  O  O236  1  0.48960591  0.24862835  0.63305709  1
  O  O237  1  0.49631945  0.74223120  0.13436737  1
  O  O238  1  0.49100737  0.74392557  0.63435439  1
  O  O239  1  1.00015285  0.23923799  0.13199893  1
  O  O240  1  0.97537620  0.29455383  0.64583499  1
  O  O241  1  0.99271398  0.74412139  0.12544788  1
  O  O242  1  0.99874912  0.73596206  0.63621446  1
  O  O243  1  0.00417884  0.25855670  0.36037144  1
  O  O244  1  0.00283201  0.26155449  0.87382016  1
  O  O245  1  0.01145619  0.75399831  0.37460793  1
  O  O246  1  0.00841187  0.74084833  0.86304158  1
  O  O247  1  0.50343426  0.24986210  0.36413573  1
  O  O248  1  0.49577113  0.25303432  0.86446977  1
  O  O249  1  0.49624830  0.74884237  0.36159388  1
  O  O250  1  0.50241396  0.74611428  0.86254708  1
  O  O251  1  0.25958636  0.13540463  0.49046948  1
  O  O252  1  0.24803800  0.13418729  0.99287945  1
  O  O253  1  0.24176323  0.62311174  0.48910093  1
  O  O254  1  0.24174614  0.63577652  0.99588330  1
  O  O255  1  0.76069218  0.14184846  0.50025152  1
  O  O256  1  0.73862413  0.11894751  0.99125730  1
  O  O257  1  0.74574577  0.63430683  0.49419525  1
  O  O258  1  0.74126044  0.63153300  0.99525678  1
  O  O259  1  0.25891031  0.36044503  0.00722727  1
  O  O260  1  0.26540469  0.36762521  0.50725069  1
  O  O261  1  0.24455129  0.86676397  0.00596547  1
  O  O262  1  0.26278888  0.87939603  0.50745175  1
  O  O263  1  0.76061382  0.37501760  -0.00568176  1
  O  O264  1  0.75311047  0.36695367  0.50410001  1
  O  O265  1  0.75565337  0.87152160  0.00511255  1
  O  O266  1  0.75526865  0.87149340  0.50639758  1
  O  O267  1  0.13547544  0.50641505  0.25175614  1
  O  O268  1  0.13072664  0.50928368  0.73958044  1
  O  O269  1  0.12085219  0.99093584  0.23812687  1
  O  O270  1  0.12089708  0.97683104  0.77091815  1
  O  O271  1  0.63164160  0.48867756  0.25741218  1
  O  O272  1  0.63055341  0.50279846  0.74043889  1
  O  O273  1  0.62917574  0.99917589  0.23886115  1
  O  O274  1  0.62933182  0.99076077  0.74747492  1
  O  O275  1  0.38205371  0.01005243  0.25848177  1
  O  O276  1  0.36575986  0.00827076  0.75278686  1
  O  O277  1  0.36591470  0.50189302  0.26257504  1
  O  O278  1  0.38225908  0.51413834  0.74241256  1
  O  O279  1  0.86664807  -0.00815858  0.26006424  1
  O  O280  1  0.87245474  0.00732490  0.75804557  1
  O  O281  1  0.86300332  0.50812520  0.25767872  1
  O  O282  1  0.86790232  0.50530734  0.76158667  1
  O  O283  1  0.12855194  0.37538648  0.37986495  1
  O  O284  1  0.11278916  0.38078639  0.88878033  1
  O  O285  1  0.13029002  0.86930042  0.36866117  1
  O  O286  1  0.12965247  0.85867521  0.86769046  1
  O  O287  1  0.62164372  0.36217050  0.36450888  1
  O  O288  1  0.60897845  0.37581194  0.87088178  1
  O  O289  1  0.62123239  0.87748012  0.37476801  1
  O  O290  1  0.63227670  0.87008215  0.86026847  1
  O  O291  1  0.37626412  0.12906226  0.13244726  1
  O  O292  1  0.36629735  0.13375236  0.63661374  1
  O  O293  1  0.38397619  0.63263710  0.12957629  1
  O  O294  1  0.37703844  0.63243102  0.63054575  1
  O  O295  1  0.88959047  0.12521581  0.11995626  1
  O  O296  1  0.86798530  0.12640382  0.64395637  1
  O  O297  1  0.88150845  0.63246461  0.12797578  1
  O  O298  1  0.88370512  0.62253393  0.63079215  1
  O  O299  1  0.25479357  0.25547714  0.11841222  1
  O  O300  1  0.26538302  0.26020879  0.61752472  1
  O  O301  1  0.24643321  0.75905517  0.11486635  1
  O  O302  1  0.26107562  0.75994307  0.63277395  1
  O  O303  1  0.75166622  0.23845656  0.11645106  1
  O  O304  1  0.75640839  0.26262482  0.61746570  1
  O  O305  1  0.75447069  0.75597236  0.11909545  1
  O  O306  1  0.75203857  0.75871538  0.61690773  1
  O  O307  1  0.25097563  0.24313526  0.38359986  1
  O  O308  1  0.26228231  0.24481004  0.88989353  1
  O  O309  1  0.24137168  0.73958966  0.36874215  1
  O  O310  1  0.23989912  0.74407199  0.88271774  1
  O  O311  1  0.74265630  0.24923396  0.38004688  1
  O  O312  1  0.75206055  0.23676792  0.88236791  1
  O  O313  1  0.75416097  0.74141989  0.38398151  1
  O  O314  1  0.74350978  0.74452179  0.87994371  1
  O  O315  1  0.00215184  0.11779677  0.00834681  1
  O  O316  1  -0.00310279  0.12085960  0.50028534  1
  O  O317  1  0.00625822  0.62865395  0.00950774  1
  O  O318  1  0.00775481  0.63136157  0.51339109  1
  O  O319  1  0.50428695  0.11197585  0.00342620  1
  O  O320  1  0.49359481  0.11648285  0.50004144  1
  O  O321  1  0.50635032  0.62672244  0.00839898  1
  O  O322  1  0.50431182  0.61976383  0.50722560  1
  O  O323  1  0.48515709  0.38229925  0.49588923  1
  O  O324  1  0.50302311  0.37793332  0.98633726  1
  O  O325  1  0.48613857  0.88238218  0.50149870  1
  O  O326  1  0.49838028  0.88601699  1.00514655  1
  O  O327  1  0.98234698  0.37421860  0.49887057  1
  O  O328  1  0.98800905  0.37762158  0.99209254  1
  O  O329  1  0.98655746  0.87324682  0.50341318  1
  O  O330  1  0.99269530  0.88967565  1.00745898  1
  O  O331  1  0.48905380  0.50168659  0.37965776  1
  O  O332  1  0.49915045  0.48933588  0.87284802  1
  O  O333  1  0.48711744  1.00077173  0.38537338  1
  O  O334  1  0.48808292  1.00217525  0.88215067  1
  O  O335  1  0.98322507  0.50482262  0.36715790  1
  O  O336  1  0.98952568  0.49703451  0.88132130  1
  O  O337  1  0.99237428  0.99812705  0.38608116  1
  O  O338  1  0.98895359  1.00921158  0.88662322  1
  O  O339  1  0.00588350  0.01023915  0.11800151  1
  O  O340  1  -0.00682133  0.00231564  0.60875889  1
  O  O341  1  0.00047948  0.51532576  0.12453846  1
  O  O342  1  0.01244993  0.50889878  0.63274383  1
  O  O343  1  0.50501314  0.00213007  0.11768274  1
  O  O344  1  0.49488265  -0.00032995  0.61094887  1
  O  O345  1  0.49489003  0.51550002  0.13038773  1
  O  O346  1  0.50773431  0.50348138  0.62056156  1
  O  O347  1  0.25294458  0.38407640  0.24185939  1
  O  O348  1  0.25915025  0.36879517  0.73397232  1
  O  O349  1  0.23938060  0.86988532  0.23695297  1
  O  O350  1  0.23946753  0.88637443  0.74142616  1
  O  O351  1  0.74056933  0.38559256  0.25353976  1
  O  O352  1  0.75034354  0.38044511  0.74128368  1
  O  O353  1  0.74812500  0.88579051  0.24235730  1
  O  O354  1  0.74305567  0.87789638  0.74192480  1
  O  O355  1  0.26074691  0.13384836  0.25618938  1
  O  O356  1  0.27053849  0.13270499  0.76543504  1
  O  O357  1  0.25069865  0.61685229  0.26196498  1
  O  O358  1  0.25831236  0.63097530  0.76011334  1
  O  O359  1  0.74620323  0.11016179  0.24858097  1
  O  O360  1  0.75802608  0.11890165  0.76105494  1
  O  O361  1  0.75073502  0.62206937  0.25821956  1
  O  O362  1  0.75444270  0.62229481  0.75481961  1
  O  O363  1  0.36640398  0.11862937  0.36552063  1
  O  O364  1  0.36872281  0.11312947  0.86950807  1
  O  O365  1  0.36615890  0.61641262  0.37839501  1
  O  O366  1  0.36379869  0.63094069  0.86394639  1
  O  O367  1  0.87447994  0.11317833  0.37654623  1
  O  O368  1  0.86678859  0.11616910  0.87032358  1
  O  O369  1  0.86530183  0.62181508  0.37095115  1
  O  O370  1  0.86845030  0.61687913  0.87270917  1
  O  O371  1  0.13985547  0.37727933  0.11654009  1
  O  O372  1  0.14617227  0.38942271  0.61633792  1
  O  O373  1  0.13020577  0.88231369  0.13087765  1
  O  O374  1  0.13557143  0.86552263  0.63398344  1
  O  O375  1  0.61869161  0.36937960  0.13715080  1
  O  O376  1  0.63814529  0.38939420  0.62793099  1
  O  O377  1  0.63149021  0.88576775  0.12271180  1
  O  O378  1  0.63383458  0.87594877  0.63470260  1
  O  O379  1  0.10649294  0.24789863  0.24644124  1
  O  O380  1  0.11641012  0.25168810  0.70172457  1
  O  O381  1  0.12276348  0.75898412  0.26137865  1
  O  O382  1  0.11808071  0.75493112  0.75681229  1
  O  O383  1  0.61507613  0.25513563  0.25337492  1
  O  O384  1  0.61083075  0.24741446  0.74589160  1
  O  O385  1  0.61044221  0.75239181  0.24480508  1
  O  O386  1  0.61528497  0.75575135  0.75348228  1
  O  O387  1  0.38121176  0.24225349  0.24312050  1
  O  O388  1  0.38797553  0.24258365  0.74250263  1
  O  O389  1  0.38651855  0.74899995  0.24778613  1
  O  O390  1  0.38060990  0.74774984  0.74141008  1
  O  O391  1  0.89291768  0.25862694  0.24868568  1
  O  O392  1  0.86846148  0.23460892  0.75768940  1
  O  O393  1  0.87353999  0.74625786  0.24348939  1
  O  O394  1  0.88201501  0.74332868  0.75091105  1
  O  O395  1  0.37844156  0.49471302  0.49246105  1
  O  O396  1  0.37574627  0.50511412  1.00319107  1
  O  O397  1  0.38395191  0.99278399  0.49258380  1
  O  O398  1  0.38088908  0.99822864  0.98966738  1
  O  O399  1  0.86475247  0.49517551  0.48661331  1
  O  O400  1  0.87313049  0.49283179  0.99116777  1
  O  O401  1  0.88123184  0.99392827  0.49241657  1
  O  O402  1  0.88025332  0.99692958  0.99366219  1
  O  O403  1  0.11549962  0.00033593  0.00634609  1
  O  O404  1  0.10733757  -0.00185134  0.49606874  1
  O  O405  1  0.12159134  0.51844433  0.00849610  1
  O  O406  1  0.12875987  0.51581766  0.51047157  1
  O  O407  1  0.61698872  0.00400370  0.00595857  1
  O  O408  1  0.60487620  -0.00334085  0.50142680  1
  O  O409  1  0.62005114  0.51447987  -0.00517173  1
  O  O410  1  0.62105814  0.50485643  0.50657104  1
  O  O411  1  0.36487489  0.36218910  0.13023460  1
  O  O412  1  0.37054879  0.36900410  0.61769686  1
  O  O413  1  0.36062220  0.87641829  0.12010105  1
  O  O414  1  0.36956106  0.86409454  0.61865549  1
  O  O415  1  0.87848746  0.37854799  0.10904775  1
  O  O416  1  0.85779217  0.39485239  0.61138008  1
  O  O417  1  0.86997152  0.87169503  0.11858899  1
  O  O418  1  0.86329995  0.87396409  0.61770494  1
  O  O419  1  0.14096411  0.12634497  0.36518261  1
  O  O420  1  0.14069198  0.12409719  0.87213662  1
  O  O421  1  0.12976173  0.63190473  0.38327966  1
  O  O422  1  0.13061484  0.63345277  0.88261553  1
  O  O423  1  0.62614793  0.13947099  0.36585637  1
  O  O424  1  0.63428098  0.11425552  0.88362453  1
  O  O425  1  0.63630710  0.61924606  0.38291177  1
  O  O426  1  0.62800138  0.63286128  0.88195289  1
