# generated using pymatgen
data_V85Zn86O256
_symmetry_space_group_name_H-M   'P 1'
_cell_length_a   16.96355447
_cell_length_b   16.96868439
_cell_length_c   16.96325423
_cell_angle_alpha   90.01929952
_cell_angle_beta   90.16489558
_cell_angle_gamma   89.99122165
_symmetry_Int_Tables_number   1
_chemical_formula_structural   V85Zn86O256
_chemical_formula_sum   'V85 Zn86 O256'
_cell_volume   4882.83863957
_cell_formula_units_Z   1
loop_
 _symmetry_equiv_pos_site_id
 _symmetry_equiv_pos_as_xyz
  1  'x, y, z'
loop_
 _atom_site_type_symbol
 _atom_site_label
 _atom_site_symmetry_multiplicity
 _atom_site_fract_x
 _atom_site_fract_y
 _atom_site_fract_z
 _atom_site_occupancy
  V  V0  1  0.62739829  0.37943348  0.24782339  1
  V  V1  1  0.12577596  0.50907137  0.12326978  1
  V  V2  1  0.74895825  0.50128867  0.24286315  1
  V  V3  1  0.75079413  0.37012952  0.61722678  1
  V  V4  1  0.87654281  0.13116377  0.24711981  1
  V  V5  1  0.37795487  0.74351586  0.12360829  1
  V  V6  1  0.62450720  0.87531318  0.74863145  1
  V  V7  1  0.75916805  0.36387640  0.12831665  1
  V  V8  1  0.62664587  0.24905890  0.88057770  1
  V  V9  1  0.24827915  0.37508079  0.12842926  1
  V  V10  1  0.49099327  0.87949605  0.37220947  1
  V  V11  1  0.24791178  0.49981066  0.74950837  1
  V  V12  1  0.75773336  0.00011821  0.25231059  1
  V  V13  1  0.75259098  0.12505638  0.87389179  1
  V  V14  1  0.75374318  0.62420550  0.87703801  1
  V  V15  1  0.49656446  0.62879856  0.62719787  1
  V  V16  1  0.23904846  0.12085942  0.87562311  1
  V  V17  1  0.23916518  0.24395984  -0.00539308  1
  V  V18  1  0.11532827  0.50490479  0.62656977  1
  V  V19  1  0.24911283  0.62066773  0.37463508  1
  V  V20  1  0.87886779  0.36466746  0.00534344  1
  V  V21  1  0.61246136  0.12244154  0.00163517  1
  V  V22  1  0.37100367  0.62985553  0.74619732  1
  V  V23  1  0.37792004  0.50021593  0.87508265  1
  V  V24  1  -0.00259094  0.11873491  0.61981632  1
  V  V25  1  0.75660105  0.12167753  0.37693699  1
  V  V26  1  0.25796375  0.11926964  0.36968108  1
  V  V27  1  0.49888407  0.24871918  0.74898864  1
  V  V28  1  0.00320401  0.36614923  0.87598052  1
  V  V29  1  0.50088817  0.74433800  0.24710527  1
  V  V30  1  0.88179447  0.74843407  0.62204127  1
  V  V31  1  0.00095684  0.37381799  0.37751513  1
  V  V32  1  0.37004651  0.62122612  0.25207255  1
  V  V33  1  0.49546362  0.75202167  0.74725348  1
  V  V34  1  0.87789280  0.00054436  0.87233996  1
  V  V35  1  0.75055506  0.49955759  0.75014518  1
  V  V36  1  0.25124449  0.87613958  0.12606294  1
  V  V37  1  0.62446352  0.49962184  0.62829094  1
  V  V38  1  0.38161415  0.00098239  0.88064808  1
  V  V39  1  0.24579239  0.74427633  -0.00182285  1
  V  V40  1  0.62860398  0.12811237  0.50049397  1
  V  V41  1  0.62671062  0.74680432  0.87476584  1
  V  V42  1  0.50101933  0.37637012  0.87373180  1
  V  V43  1  0.00400240  0.00418443  -0.00353587  1
  V  V44  1  0.87650099  0.89103712  0.50024587  1
  V  V45  1  0.49662433  0.50207482  0.50017162  1
  V  V46  1  0.12729842  0.00707190  0.12135552  1
  V  V47  1  0.37354680  0.87888298  0.50574663  1
  V  V48  1  0.37228522  0.24928095  0.62619118  1
  V  V49  1  0.12815309  0.88232959  0.75888338  1
  V  V50  1  0.12836081  -0.00413870  0.61536681  1
  V  V51  1  0.37958012  0.24435715  0.12443259  1
  V  V52  1  0.62042078  0.00148805  0.62258681  1
  V  V53  1  0.62777530  0.37395151  0.75025315  1
  V  V54  1  -0.00141962  0.75490834  0.75844124  1
  V  V55  1  -0.00692626  0.88061580  0.38401038  1
  V  V56  1  0.12375683  0.36776012  0.75287595  1
  V  V57  1  0.87953651  0.62527789  0.74678153  1
  V  V58  1  0.62467937  0.75294615  0.37573278  1
  V  V59  1  0.75451334  0.00354287  0.74984283  1
  V  V60  1  0.87738995  0.87927128  -0.00304464  1
  V  V61  1  0.11689090  0.62777957  0.50372138  1
  V  V62  1  0.87244390  0.24606264  0.62062417  1
  V  V63  1  0.75020274  0.87603071  0.12548561  1
  V  V64  1  0.38656200  0.87681233  0.00023632  1
  V  V65  1  0.63230368  0.25075175  0.37941968  1
  V  V66  1  0.00447855  0.50528796  0.00136378  1
  V  V67  1  0.49900340  0.37576806  0.37690403  1
  V  V68  1  0.88789619  0.63010081  0.24337052  1
  V  V69  1  0.37525115  0.37740552  -0.00298441  1
  V  V70  1  -0.00306622  0.13033252  0.12404638  1
  V  V71  1  0.24451569  0.24789357  0.49837433  1
  V  V72  1  0.37072356  0.11815148  0.75097185  1
  V  V73  1  -0.00425983  0.24385500  0.74867032  1
  V  V74  1  0.12462329  0.74495709  0.87671476  1
  V  V75  1  0.74930983  0.62707823  0.37617618  1
  V  V76  1  0.75142472  0.87474329  0.62367658  1
  V  V77  1  0.75215225  0.74782312  0.00117819  1
  V  V78  1  0.87730829  0.50165740  0.37672967  1
  V  V79  1  0.12664542  0.37708529  0.25082720  1
  V  V80  1  0.11287488  0.86883252  0.24862828  1
  V  V81  1  0.24803849  0.37342921  0.62485279  1
  V  V82  1  0.25315977  0.75057685  0.50700246  1
  V  V83  1  0.50069153  0.24596524  0.24526504  1
  V  V84  1  0.61722395  0.00314881  0.12021909  1
  Zn  Zn85  1  0.11958727  0.74564169  0.37048011  1
  Zn  Zn86  1  0.25746927  -0.00705960  0.25639143  1
  Zn  Zn87  1  0.24550794  0.62066100  0.87913786  1
  Zn  Zn88  1  0.49140673  0.00621723  0.48790522  1
  Zn  Zn89  1  0.90044120  0.75998347  0.13870405  1
  Zn  Zn90  1  0.62386735  0.62828279  0.50298335  1
  Zn  Zn91  1  0.12198300  0.24421013  0.37139117  1
  Zn  Zn92  1  0.11883562  0.11565169  0.49002998  1
  Zn  Zn93  1  -0.00391082  0.25405720  0.24475882  1
  Zn  Zn94  1  0.58630926  0.53517313  0.09551188  1
  Zn  Zn95  1  0.37245281  0.37412911  0.50001751  1
  Zn  Zn96  1  0.50563649  0.87926348  0.87965929  1
  Zn  Zn97  1  0.75606107  0.24317732  0.00787355  1
  Zn  Zn98  1  0.36892422  0.49678554  0.37156831  1
  Zn  Zn99  1  0.62384330  0.87839060  0.24940011  1
  Zn  Zn100  1  -0.00427687  0.50514993  0.50562411  1
  Zn  Zn101  1  0.38679934  0.11481948  0.24971731  1
  Zn  Zn102  1  0.87803017  0.49933849  0.87645521  1
  Zn  Zn103  1  0.49579772  0.12544420  0.62120590  1
  Zn  Zn104  1  0.25733549  0.87615264  0.63250347  1
  Zn  Zn105  1  0.87290820  0.37202462  0.49802072  1
  Zn  Zn106  1  0.75182149  0.75193391  0.50066917  1
  Zn  Zn107  1  0.18701275  0.19140830  0.18807462  1
  Zn  Zn108  1  0.18524089  0.18216969  0.68699461  1
  Zn  Zn109  1  0.18924783  0.68948740  0.18682780  1
  Zn  Zn110  1  0.18419666  0.69062282  0.68760853  1
  Zn  Zn111  1  0.68449385  0.18612602  0.18956570  1
  Zn  Zn112  1  0.68827030  0.18812639  0.68911606  1
  Zn  Zn113  1  0.69513916  0.68915514  0.18937343  1
  Zn  Zn114  1  0.68780713  0.68688178  0.68849459  1
  Zn  Zn115  1  0.31292155  0.30736732  0.31211689  1
  Zn  Zn116  1  0.30972915  0.30864391  0.81214086  1
  Zn  Zn117  1  0.30964881  0.80637382  0.31601869  1
  Zn  Zn118  1  0.30976502  0.81534642  0.81527661  1
  Zn  Zn119  1  0.81437177  0.31126055  0.31413053  1
  Zn  Zn120  1  0.81634925  0.31208961  0.81125417  1
  Zn  Zn121  1  0.81581295  0.81273984  0.31301763  1
  Zn  Zn122  1  0.81303737  0.81477052  0.81258496  1
  Zn  Zn123  1  0.18482191  0.43950116  0.44151294  1
  Zn  Zn124  1  0.18833776  0.43552738  0.93767238  1
  Zn  Zn125  1  0.18805649  0.93542017  0.43410817  1
  Zn  Zn126  1  0.19322709  0.93714061  0.93925545  1
  Zn  Zn127  1  0.68531247  0.44283727  0.43741372  1
  Zn  Zn128  1  0.69442357  0.43416301  0.94059107  1
  Zn  Zn129  1  0.68667803  0.93805834  0.43824374  1
  Zn  Zn130  1  0.68622449  0.93622456  0.93920739  1
  Zn  Zn131  1  0.31626156  0.06105208  0.06140080  1
  Zn  Zn132  1  0.30798945  0.06138470  0.56043646  1
  Zn  Zn133  1  0.31242243  0.56095021  0.06345067  1
  Zn  Zn134  1  0.30827756  0.56245710  0.56257606  1
  Zn  Zn135  1  0.81082397  0.06430758  0.06229907  1
  Zn  Zn136  1  0.81072267  0.06762836  0.56568521  1
  Zn  Zn137  1  0.81726322  0.55914856  0.06085875  1
  Zn  Zn138  1  0.81159783  0.56291180  0.56358412  1
  Zn  Zn139  1  0.43134258  0.43757246  0.19177476  1
  Zn  Zn140  1  0.43668492  0.43843832  0.68882363  1
  Zn  Zn141  1  0.43702003  0.93388295  0.18813805  1
  Zn  Zn142  1  0.43619203  0.93945421  0.68885025  1
  Zn  Zn143  1  0.94002744  0.44221994  0.18810052  1
  Zn  Zn144  1  0.93444017  0.43345315  0.68935984  1
  Zn  Zn145  1  0.93680369  0.94616627  0.18480296  1
  Zn  Zn146  1  0.94149829  0.93521652  0.68773268  1
  Zn  Zn147  1  0.06697070  0.05840566  0.30804365  1
  Zn  Zn148  1  0.06007910  0.06222965  0.80804587  1
  Zn  Zn149  1  0.06663074  0.55972808  0.31249497  1
  Zn  Zn150  1  0.05946536  0.56164485  0.81482271  1
  Zn  Zn151  1  0.56973398  0.06136957  0.31001920  1
  Zn  Zn152  1  0.56100068  0.06396757  0.81144898  1
  Zn  Zn153  1  0.56189703  0.56413905  0.31128854  1
  Zn  Zn154  1  0.56300296  0.56442459  0.92528149  1
  Zn  Zn155  1  0.43796268  0.18965067  0.43784838  1
  Zn  Zn156  1  0.43339707  0.19177773  0.93695310  1
  Zn  Zn157  1  0.43433368  0.69202948  0.43795153  1
  Zn  Zn158  1  0.43084237  0.69167236  0.93155094  1
  Zn  Zn159  1  0.93686839  0.18777171  0.43944246  1
  Zn  Zn160  1  0.94049803  0.18376374  0.93569357  1
  Zn  Zn161  1  0.93984044  0.69805337  0.43026484  1
  Zn  Zn162  1  0.96335315  0.71039485  0.97076295  1
  Zn  Zn163  1  0.06401083  0.31346005  0.06310169  1
  Zn  Zn164  1  0.06034220  0.31230807  0.56353917  1
  Zn  Zn165  1  0.06480655  0.81911721  0.06215120  1
  Zn  Zn166  1  0.06245604  0.81124879  0.56379821  1
  Zn  Zn167  1  0.54605340  0.35993182  0.07940300  1
  Zn  Zn168  1  0.56158595  0.31173537  0.56341989  1
  Zn  Zn169  1  0.56400667  0.70292476  0.05819297  1
  Zn  Zn170  1  0.55985484  0.81417311  0.56008293  1
  O  O171  1  0.11888763  0.11281571  0.13324885  1
  O  O172  1  0.11955714  0.10959166  0.62454396  1
  O  O173  1  0.13394253  0.60739654  0.12915747  1
  O  O174  1  0.12883579  0.61554252  0.61716399  1
  O  O175  1  0.63238243  0.11283033  0.11688441  1
  O  O176  1  0.62663557  0.11925644  0.61679015  1
  O  O177  1  0.62046264  0.63371020  0.12882521  1
  O  O178  1  0.61476753  0.61908843  0.62573194  1
  O  O179  1  0.38688672  0.37602830  0.37422981  1
  O  O180  1  0.37679221  0.38079191  0.87751757  1
  O  O181  1  0.38374466  0.86910454  0.38208408  1
  O  O182  1  0.37212658  0.88533068  0.88264519  1
  O  O183  1  0.88093372  0.38401911  0.37556595  1
  O  O184  1  0.88511474  0.37650202  0.88307351  1
  O  O185  1  0.88511939  0.87264118  0.38364185  1
  O  O186  1  0.86638852  0.88998704  0.88433830  1
  O  O187  1  0.24684669  0.01544620  0.37544136  1
  O  O188  1  0.26086110  0.01531581  0.88332680  1
  O  O189  1  0.25187358  0.51462300  0.38399703  1
  O  O190  1  0.25706175  0.49986919  0.86821551  1
  O  O191  1  0.73987721  0.01054856  0.36362691  1
  O  O192  1  0.75432884  0.00625000  0.86825811  1
  O  O193  1  0.75768214  0.50682364  0.36780318  1
  O  O194  1  0.75397780  0.50730411  0.86888689  1
  O  O195  1  0.23658189  0.48585132  0.11324364  1
  O  O196  1  0.23999525  0.49333031  0.63052995  1
  O  O197  1  0.24138884  0.98971730  0.11624736  1
  O  O198  1  0.23320950  0.99749830  0.62487415  1
  O  O199  1  0.75493860  0.49086412  0.13817567  1
  O  O200  1  0.74553823  0.49247812  0.62998365  1
  O  O201  1  0.74903368  0.99465785  0.13341245  1
  O  O202  1  0.74165861  0.99717491  0.63272114  1
  O  O203  1  0.00585168  0.37558161  0.25852194  1
  O  O204  1  0.00549565  0.36751306  0.75732888  1
  O  O205  1  0.00947099  0.87750635  0.24717169  1
  O  O206  1  0.01106455  0.86418947  0.75046252  1
  O  O207  1  0.50926296  0.36911524  0.26181145  1
  O  O208  1  0.50629296  0.36932816  0.75479765  1
  O  O209  1  0.50034122  0.86168200  0.25643590  1
  O  O210  1  0.50430812  0.86611738  0.74909049  1
  O  O211  1  0.50420375  0.14191648  0.25757730  1
  O  O212  1  0.48895196  0.13072052  0.74758885  1
  O  O213  1  0.48861400  0.63741292  0.25922283  1
  O  O214  1  0.48802494  0.63539820  0.74031812  1
  O  O215  1  0.99170727  0.12296282  0.24288589  1
  O  O216  1  1.00766306  0.13715406  0.73930257  1
  O  O217  1  0.98652201  0.61978896  0.25505830  1
  O  O218  1  0.98763096  0.63551268  0.75703008  1
  O  O219  1  0.36622744  0.25884190  0.00600731  1
  O  O220  1  0.36396546  0.25084827  0.50699019  1
  O  O221  1  0.36540996  0.75706227  0.00544422  1
  O  O222  1  0.36510380  0.76229288  0.49758932  1
  O  O223  1  0.87595792  0.26035527  -0.00415824  1
  O  O224  1  0.87669992  0.25332502  0.51483111  1
  O  O225  1  0.86083277  0.76612528  -0.01131360  1
  O  O226  1  0.87470391  0.75705822  0.50964601  1
  O  O227  1  0.13642949  0.24862238  0.50049485  1
  O  O228  1  0.14076601  0.25276990  1.00189626  1
  O  O229  1  0.13136003  0.74267234  0.49944427  1
  O  O230  1  0.13549363  0.76296360  0.98715654  1
  O  O231  1  0.61969885  0.24120232  0.49032887  1
  O  O232  1  0.63079734  0.24319276  0.98550358  1
  O  O233  1  0.62674483  0.74906856  0.48868384  1
  O  O234  1  0.64164430  0.75676392  0.98661186  1
  O  O235  1  0.49193892  0.26616919  0.13648266  1
  O  O236  1  0.49204896  0.24834041  0.63080329  1
  O  O237  1  0.48631992  0.75270867  0.13423006  1
  O  O238  1  0.50694389  0.74133638  0.63472552  1
  O  O239  1  1.00856316  0.23443504  0.12451795  1
  O  O240  1  0.99311472  0.24366552  0.63079046  1
  O  O241  1  0.99083345  0.73938225  0.07948867  1
  O  O242  1  0.98825651  0.75447035  0.63697786  1
  O  O243  1  0.00095351  0.26222143  0.37357260  1
  O  O244  1  -0.00365991  0.25695293  0.86507851  1
  O  O245  1  0.00619553  0.77077957  0.37203112  1
  O  O246  1  0.00995274  0.74996594  0.87005605  1
  O  O247  1  0.50891943  0.25954416  0.36981305  1
  O  O248  1  0.50835824  0.25470850  0.86800489  1
  O  O249  1  0.50676423  0.75704687  0.36858066  1
  O  O250  1  0.51020980  0.75227587  0.86260356  1
  O  O251  1  0.24661820  0.13191736  0.48894292  1
  O  O252  1  0.25432610  0.13595418  0.99079595  1
  O  O253  1  0.24287924  0.63257228  0.49543047  1
  O  O254  1  0.25469221  0.63997657  0.99978490  1
  O  O255  1  0.73871276  0.11920647  0.49067008  1
  O  O256  1  0.74176812  0.12626345  0.98948946  1
  O  O257  1  0.74803772  0.62636548  0.48689956  1
  O  O258  1  0.76315356  0.63525848  0.99020387  1
  O  O259  1  0.25593382  0.36249558  0.00353442  1
  O  O260  1  0.25028840  0.36656028  0.50518805  1
  O  O261  1  0.25698167  0.86654103  0.01003762  1
  O  O262  1  0.26062059  0.86925296  0.49679692  1
  O  O263  1  0.76193900  0.37075661  0.01100909  1
  O  O264  1  0.74833321  0.38082056  0.51320127  1
  O  O265  1  0.75835060  0.87306259  0.00744175  1
  O  O266  1  0.75900283  0.87422542  0.50445525  1
  O  O267  1  0.11885104  0.48913163  0.23390937  1
  O  O268  1  0.12742195  0.49295659  0.74463294  1
  O  O269  1  0.13332417  0.98664847  0.23753786  1
  O  O270  1  0.12102040  0.98498667  0.74708271  1
  O  O271  1  0.63576228  0.49042709  0.25936160  1
  O  O272  1  0.63524803  0.48927203  0.74259743  1
  O  O273  1  0.63836574  1.00145526  0.23704424  1
  O  O274  1  0.63195139  0.99613096  0.74242684  1
  O  O275  1  0.36708202  0.00626025  0.23335894  1
  O  O276  1  0.37491079  0.01063664  0.75789626  1
  O  O277  1  0.37773174  0.51546254  0.25234896  1
  O  O278  1  0.36791157  0.50674816  0.75635200  1
  O  O279  1  0.86485738  0.01129709  0.24926323  1
  O  O280  1  0.86391483  -0.00812798  0.75752322  1
  O  O281  1  0.86841091  0.50853168  0.25927471  1
  O  O282  1  0.87046391  0.50868527  0.74982419  1
  O  O283  1  0.11768298  0.38057723  0.36613129  1
  O  O284  1  0.11673377  0.37761590  0.86366586  1
  O  O285  1  0.12144140  0.87537905  0.35864514  1
  O  O286  1  0.13115235  0.86924678  0.86346364  1
  O  O287  1  0.62132690  0.36901651  0.36993054  1
  O  O288  1  0.62360796  0.36532233  0.86978169  1
  O  O289  1  0.61837729  0.86582592  0.37354922  1
  O  O290  1  0.62652853  0.86652733  0.86765453  1
  O  O291  1  0.37180300  0.14183122  0.12271893  1
  O  O292  1  0.37164671  0.12842302  0.63402819  1
  O  O293  1  0.36374194  0.63571049  0.13516015  1
  O  O294  1  0.38334384  0.61813487  0.63482270  1
  O  O295  1  0.88459345  0.11974020  0.13375504  1
  O  O296  1  0.88316259  0.13308017  0.62401567  1
  O  O297  1  0.87109262  0.62074382  0.14249225  1
  O  O298  1  0.86765957  0.63564378  0.63539832  1
  O  O299  1  0.25590692  0.25591629  0.11467121  1
  O  O300  1  0.25226495  0.25253340  0.61844513  1
  O  O301  1  0.25592231  0.75797138  0.11779387  1
  O  O302  1  0.24281972  0.75566291  0.61175027  1
  O  O303  1  0.75096770  0.25928464  0.12809621  1
  O  O304  1  0.75888491  0.25907827  0.63389993  1
  O  O305  1  0.75385265  0.76065319  0.11618051  1
  O  O306  1  0.76000280  0.75724050  0.62609115  1
  O  O307  1  0.24679565  0.24325094  0.38326759  1
  O  O308  1  0.25409456  0.23971828  0.88737509  1
  O  O309  1  0.24352232  0.74036334  0.38642129  1
  O  O310  1  0.24323803  0.74839762  0.88262741  1
  O  O311  1  0.73887243  0.24136670  0.36983662  1
  O  O312  1  0.74312677  0.24011783  0.86948248  1
  O  O313  1  0.74230135  0.74336704  0.37353412  1
  O  O314  1  0.74494176  0.74484600  0.87752879  1
  O  O315  1  -0.00578221  0.11352401  0.00901861  1
  O  O316  1  0.00430269  0.13041828  0.51396277  1
  O  O317  1  -0.00456328  0.60144986  -0.01347938  1
  O  O318  1  0.01301134  0.62707049  0.49092803  1
  O  O319  1  0.51347840  0.13141746  -0.00500636  1
  O  O320  1  0.51126255  0.12218209  0.49927253  1
  O  O321  1  0.50184568  0.63221568  -0.00651489  1
  O  O322  1  0.49733655  0.62023851  0.50927316  1
  O  O323  1  0.49984018  0.38255959  0.49234991  1
  O  O324  1  0.48193835  0.36225256  0.98574096  1
  O  O325  1  0.48713789  0.87489682  0.49233912  1
  O  O326  1  0.48528563  0.86429275  0.99743284  1
  O  O327  1  0.99988919  0.38006722  0.48871226  1
  O  O328  1  0.99695921  0.37602438  0.99309366  1
  O  O329  1  0.99401122  0.87521853  0.49091779  1
  O  O330  1  0.98656527  0.89242793  1.00421726  1
  O  O331  1  0.50153188  0.49200807  0.38328061  1
  O  O332  1  0.48371323  0.49308355  0.87083689  1
  O  O333  1  0.51032973  0.98445010  0.37132288  1
  O  O334  1  0.48801423  0.99713812  0.87093448  1
  O  O335  1  0.99046037  0.49228470  0.37415188  1
  O  O336  1  1.00163110  0.48524495  0.88422448  1
  O  O337  1  1.00681291  0.97944216  0.36702117  1
  O  O338  1  0.98790864  1.01170120  0.88182522  1
  O  O339  1  0.00807974  0.00920139  0.11718760  1
  O  O340  1  0.00977426  0.00982924  0.63402432  1
  O  O341  1  0.01243955  0.49445452  0.11187823  1
  O  O342  1  0.01094425  0.49412669  0.62594239  1
  O  O343  1  0.51994493  -0.00707961  0.13112766  1
  O  O344  1  0.51292685  0.00255965  0.62463327  1
  O  O345  1  0.50780849  0.46209459  0.11803180  1
  O  O346  1  0.50400280  0.50685281  0.61966953  1
  O  O347  1  0.24315644  0.36894679  0.23852363  1
  O  O348  1  0.24050578  0.37737953  0.74661109  1
  O  O349  1  0.24526091  0.87133994  0.23791226  1
  O  O350  1  0.23293518  0.86568788  0.74537750  1
  O  O351  1  0.74782837  0.38196170  0.24795023  1
  O  O352  1  0.74801686  0.38016510  0.74193122  1
  O  O353  1  0.75342095  0.88297386  0.24412590  1
  O  O354  1  0.74437213  0.88448644  0.74419732  1
  O  O355  1  0.25069273  0.13014047  0.26382908  1
  O  O356  1  0.25897855  0.13528633  0.76603804  1
  O  O357  1  0.25840295  0.63567747  0.26281433  1
  O  O358  1  0.25835719  0.62096906  0.74694584  1
  O  O359  1  0.75661278  0.11975284  0.25646422  1
  O  O360  1  0.74283577  0.11282777  0.75987793  1
  O  O361  1  0.75653843  0.61753648  0.26061663  1
  O  O362  1  0.75763611  0.61991636  0.75546868  1
  O  O363  1  0.36238966  0.13080710  0.37283619  1
  O  O364  1  0.37093642  0.11858994  0.86950215  1
  O  O365  1  0.36684601  0.62639899  0.36899356  1
  O  O366  1  0.37014601  0.61639514  0.86347939  1
  O  O367  1  0.86288368  0.12959773  0.37002121  1
  O  O368  1  0.86230181  0.11506209  0.87960649  1
  O  O369  1  0.86855688  0.62124023  0.36740324  1
  O  O370  1  0.86315802  0.62434813  0.86186769  1
  O  O371  1  0.13156922  0.37902948  0.13206188  1
  O  O372  1  0.12826468  0.38327622  0.63349085  1
  O  O373  1  0.13113767  0.88220593  0.13219308  1
  O  O374  1  0.12081591  0.88608398  0.63352905  1
  O  O375  1  0.64223028  0.37057364  0.14210383  1
  O  O376  1  0.63210651  0.37682547  0.63010408  1
  O  O377  1  0.64237659  0.88985951  0.12676773  1
  O  O378  1  0.62984355  0.88340789  0.62694738  1
  O  O379  1  0.12039188  0.26518740  0.25045644  1
  O  O380  1  0.11503062  0.26174709  0.74005381  1
  O  O381  1  0.12604516  0.76585964  0.24443701  1
  O  O382  1  0.11624166  0.75728842  0.75624359  1
  O  O383  1  0.62000931  0.25854972  0.25925648  1
  O  O384  1  0.61976659  0.25286971  0.75899419  1
  O  O385  1  0.61798799  0.75266147  0.25919180  1
  O  O386  1  0.61913940  0.75565098  0.75580268  1
  O  O387  1  0.38456738  0.24970980  0.24135769  1
  O  O388  1  0.37893908  0.24124519  0.74625216  1
  O  O389  1  0.38072675  0.74343064  0.24284622  1
  O  O390  1  0.38297625  0.74262471  0.75845316  1
  O  O391  1  0.87660594  0.23656788  0.25243281  1
  O  O392  1  0.88753150  0.25575207  0.73823386  1
  O  O393  1  0.87246841  0.73604863  0.24869905  1
  O  O394  1  0.88085229  0.74736039  0.74518504  1
  O  O395  1  0.38671330  0.49751182  0.49918688  1
  O  O396  1  0.36303119  0.48741037  0.98888064  1
  O  O397  1  0.37387905  0.98560786  0.49998772  1
  O  O398  1  0.37396196  0.99031767  0.99310395  1
  O  O399  1  0.87625615  0.50135988  0.48829452  1
  O  O400  1  0.88897988  0.48606978  1.00091044  1
  O  O401  1  0.87215632  0.98988881  0.50656712  1
  O  O402  1  0.87917136  0.99643566  0.99216263  1
  O  O403  1  0.11474748  -0.00995898  0.00840565  1
  O  O404  1  0.12293258  -0.00567881  0.51233767  1
  O  O405  1  0.11503348  0.49157080  0.00904440  1
  O  O406  1  0.12218293  0.50948354  0.51016773  1
  O  O407  1  0.63027733  0.00673483  0.01158061  1
  O  O408  1  0.62300240  0.00796999  0.50857727  1
  O  O409  1  0.61963719  0.49422928  -0.00614205  1
  O  O410  1  0.61216170  0.50366298  0.50637286  1
  O  O411  1  0.36367486  0.36828508  0.11763470  1
  O  O412  1  0.36604157  0.36816141  0.62683189  1
  O  O413  1  0.36770932  0.86486275  0.11890940  1
  O  O414  1  0.37500538  0.87721993  0.61195822  1
  O  O415  1  0.87069527  0.37789744  0.11966448  1
  O  O416  1  0.86700552  0.36821231  0.62210936  1
  O  O417  1  0.86768859  0.87757023  0.11711300  1
  O  O418  1  0.87212155  0.86892138  0.61849590  1
  O  O419  1  0.13388580  0.12670368  0.37433839  1
  O  O420  1  0.14037304  0.11831015  0.87034336  1
  O  O421  1  0.13226221  0.62456092  0.38218476  1
  O  O422  1  0.12871539  0.63877342  0.86734959  1
  O  O423  1  0.63326758  0.13262043  0.38099284  1
  O  O424  1  0.63183630  0.12886033  0.88072282  1
  O  O425  1  0.63277597  0.63410124  0.37469288  1
  O  O426  1  0.64054850  0.63740207  0.86948735  1
