# generated using pymatgen
data_V85Zn86O256
_symmetry_space_group_name_H-M   'P 1'
_cell_length_a   17.02796828
_cell_length_b   17.00126312
_cell_length_c   16.98228249
_cell_angle_alpha   89.88336155
_cell_angle_beta   89.96604411
_cell_angle_gamma   89.83082531
_symmetry_Int_Tables_number   1
_chemical_formula_structural   V85Zn86O256
_chemical_formula_sum   'V85 Zn86 O256'
_cell_volume   4916.28684798
_cell_formula_units_Z   1
loop_
 _symmetry_equiv_pos_site_id
 _symmetry_equiv_pos_as_xyz
  1  'x, y, z'
loop_
 _atom_site_type_symbol
 _atom_site_label
 _atom_site_symmetry_multiplicity
 _atom_site_fract_x
 _atom_site_fract_y
 _atom_site_fract_z
 _atom_site_occupancy
  V  V0  1  0.87368701  0.63231349  0.74858767  1
  V  V1  1  0.87140291  0.00190876  0.87460952  1
  V  V2  1  0.00133071  -0.00108048  0.50529167  1
  V  V3  1  0.89846431  0.12397355  0.24797791  1
  V  V4  1  0.62630781  0.37204914  0.24504312  1
  V  V5  1  0.62611344  0.12512496  0.50013958  1
  V  V6  1  0.12821418  0.87706195  0.74399830  1
  V  V7  1  0.74824756  0.50380728  0.74720811  1
  V  V8  1  0.13023879  0.74312347  0.37688629  1
  V  V9  1  0.25632803  0.76118259  0.50277082  1
  V  V10  1  0.62698454  -0.00473269  0.62663755  1
  V  V11  1  0.12805904  0.25721084  0.87541222  1
  V  V12  1  0.87217934  0.38376520  0.48371516  1
  V  V13  1  -0.00343670  0.75167718  0.74311377  1
  V  V14  1  0.37058538  0.25209054  0.62446758  1
  V  V15  1  0.24775343  0.12399822  0.87426704  1
  V  V16  1  0.24912301  0.24574365  -0.00182814  1
  V  V17  1  0.12680264  0.87557707  0.25077654  1
  V  V18  1  0.62350178  0.37440461  0.74834330  1
  V  V19  1  0.49920887  0.24970105  0.74936729  1
  V  V20  1  0.00384454  0.63015527  0.12123240  1
  V  V21  1  0.12102011  0.13338652  0.49995251  1
  V  V22  1  0.25243737  0.13461030  0.37213958  1
  V  V23  1  0.49401718  0.62651212  0.63062621  1
  V  V24  1  -0.00115367  0.86792332  0.38330395  1
  V  V25  1  0.24482198  0.50788514  0.75135881  1
  V  V26  1  0.26289739  0.61910298  0.37758837  1
  V  V27  1  0.49599697  0.74868710  0.75260478  1
  V  V28  1  0.49792945  0.87638517  0.37502533  1
  V  V29  1  0.49827324  0.00028003  0.49941315  1
  V  V30  1  0.12552795  0.62946806  -0.01143725  1
  V  V31  1  0.49686316  0.38038072  0.37436645  1
  V  V32  1  0.50000948  0.12500756  0.62520655  1
  V  V33  1  0.74809216  0.88732820  0.12298788  1
  V  V34  1  0.37441813  0.24469751  0.12565915  1
  V  V35  1  0.37594112  0.38072318  0.49969429  1
  V  V36  1  -0.00941253  0.50523992  -0.00231324  1
  V  V37  1  0.74613143  0.12557376  0.87734993  1
  V  V38  1  0.87610500  0.12733097  0.74872346  1
  V  V39  1  0.62297127  0.63069461  0.49897999  1
  V  V40  1  0.37482734  0.50440029  0.86729554  1
  V  V41  1  0.13395309  0.62123422  0.51722379  1
  V  V42  1  0.87679878  -0.00838343  0.38207921  1
  V  V43  1  0.75142216  0.00132133  0.25426122  1
  V  V44  1  0.87599186  0.75477371  0.12159229  1
  V  V45  1  0.62433247  0.24547114  0.88162138  1
  V  V46  1  0.00062250  0.74917125  0.24992953  1
  V  V47  1  0.76523990  0.86568910  0.62097649  1
  V  V48  1  0.49731787  0.50143033  0.49836899  1
  V  V49  1  0.37279551  0.12209339  0.75339903  1
  V  V50  1  0.86497612  0.62151949  0.24085150  1
  V  V51  1  0.62997800  0.75076207  0.37875251  1
  V  V52  1  0.62991299  0.49419671  0.12596938  1
  V  V53  1  0.62408804  0.50210742  0.62395814  1
  V  V54  1  0.48477345  0.87671205  0.87907280  1
  V  V55  1  0.62665538  0.87937221  0.24727170  1
  V  V56  1  0.12120636  -0.00106443  0.10741151  1
  V  V57  1  0.00136611  0.87849282  0.87555422  1
  V  V58  1  0.87924390  0.88539899  -0.00242054  1
  V  V59  1  0.50273887  0.11827522  0.12505328  1
  V  V60  1  0.25126787  -0.00156657  0.74679265  1
  V  V61  1  0.25596800  0.00032415  0.25172608  1
  V  V62  1  0.12873482  0.00175127  0.62509611  1
  V  V63  1  -0.00471590  0.37799078  0.87897076  1
  V  V64  1  0.38438715  0.62733333  0.25447045  1
  V  V65  1  0.49867885  0.50084760  0.00122807  1
  V  V66  1  0.25490235  0.50470291  0.23319614  1
  V  V67  1  0.49072816  -0.00405426  -0.00433663  1
  V  V68  1  0.62342662  0.24769526  0.37642754  1
  V  V69  1  0.49170365  0.24214608  0.25081377  1
  V  V70  1  0.49803816  0.37344102  0.87430919  1
  V  V71  1  0.88265758  0.24771440  0.62538564  1
  V  V72  1  0.37608184  0.75968352  0.62485540  1
  V  V73  1  -0.00332201  0.24601668  0.75129537  1
  V  V74  1  0.62263331  0.75376402  0.87599772  1
  V  V75  1  0.74918770  0.24782704  0.50086927  1
  V  V76  1  0.26076041  0.86470804  0.12088952  1
  V  V77  1  0.62738116  0.62626617  0.00211465  1
  V  V78  1  0.50130294  0.63295894  0.12833843  1
  V  V79  1  0.87014983  0.49549490  0.87480079  1
  V  V80  1  0.74756187  0.62863993  0.87655587  1
  V  V81  1  0.74883741  0.75438575  -0.00248611  1
  V  V82  1  0.37062631  0.37741014  0.00519036  1
  V  V83  1  0.75100864  0.37665721  0.62754989  1
  V  V84  1  0.24053693  0.38077127  0.62736057  1
  Zn  Zn85  1  0.76461742  0.62009273  0.38424885  1
  Zn  Zn86  1  0.75065948  -0.00187860  0.74572435  1
  Zn  Zn87  1  0.49766856  0.75526714  0.24662384  1
  Zn  Zn88  1  0.75464722  0.48670186  0.25484326  1
  Zn  Zn89  1  0.86365837  0.26575272  0.10444742  1
  Zn  Zn90  1  0.09106054  0.46957460  0.16046654  1
  Zn  Zn91  1  0.00289491  0.11455155  0.09166995  1
  Zn  Zn92  1  0.26280412  0.63111753  0.87249667  1
  Zn  Zn93  1  0.27400410  0.76479754  -0.01131718  1
  Zn  Zn94  1  0.62524405  0.87591726  0.75264293  1
  Zn  Zn95  1  -0.00635444  0.62350222  0.62414285  1
  Zn  Zn96  1  0.01501939  0.48852996  0.50957382  1
  Zn  Zn97  1  0.20917046  0.34308590  0.16325997  1
  Zn  Zn98  1  0.37054330  0.88336918  0.50233160  1
  Zn  Zn99  1  0.79047051  0.75312053  0.49850769  1
  Zn  Zn100  1  0.37739984  0.00696686  0.36997138  1
  Zn  Zn101  1  0.62666414  0.11748626  0.00788029  1
  Zn  Zn102  1  0.11721393  0.38112646  0.74080856  1
  Zn  Zn103  1  0.75378043  0.12243245  0.37710314  1
  Zn  Zn104  1  0.05911852  0.30604883  0.28997911  1
  Zn  Zn105  1  0.24458670  0.25621390  0.49628619  1
  Zn  Zn106  1  0.13011866  0.75514017  0.87352626  1
  Zn  Zn107  1  0.18106133  0.17607398  0.18669139  1
  Zn  Zn108  1  0.18151769  0.18978369  0.68641939  1
  Zn  Zn109  1  0.18867768  0.68207406  0.18876768  1
  Zn  Zn110  1  0.19546488  0.69637145  0.69268764  1
  Zn  Zn111  1  0.68422920  0.19068050  0.18964387  1
  Zn  Zn112  1  0.69014305  0.18811133  0.69073538  1
  Zn  Zn113  1  0.68345631  0.69583861  0.18090335  1
  Zn  Zn114  1  0.68502574  0.69124456  0.68649604  1
  Zn  Zn115  1  0.31297491  0.31793047  0.31309732  1
  Zn  Zn116  1  0.31157487  0.31931839  0.81167340  1
  Zn  Zn117  1  0.31545614  0.81065343  0.31017105  1
  Zn  Zn118  1  0.31198354  0.81086690  0.80785898  1
  Zn  Zn119  1  0.81255822  0.30090452  0.30698906  1
  Zn  Zn120  1  0.80410137  0.31083417  0.92407121  1
  Zn  Zn121  1  0.81198854  0.80884628  0.31269006  1
  Zn  Zn122  1  0.80959826  0.81647890  0.80814659  1
  Zn  Zn123  1  0.19546061  0.44034372  0.43647262  1
  Zn  Zn124  1  0.16273714  0.42003702  0.97827404  1
  Zn  Zn125  1  0.18691009  0.94139485  0.43466803  1
  Zn  Zn126  1  0.19585297  0.93571947  0.93196839  1
  Zn  Zn127  1  0.68846700  0.44112762  0.43469768  1
  Zn  Zn128  1  0.67826526  0.44227012  0.93125726  1
  Zn  Zn129  1  0.69056766  0.93100933  0.44314145  1
  Zn  Zn130  1  0.67964982  0.94304588  0.93940562  1
  Zn  Zn131  1  0.31188667  0.05856258  0.06414573  1
  Zn  Zn132  1  0.30918354  0.06600856  0.56175653  1
  Zn  Zn133  1  0.32398730  0.58861497  0.05349543  1
  Zn  Zn134  1  0.31249887  0.56571867  0.56756574  1
  Zn  Zn135  1  0.80105279  0.10567063  0.07761494  1
  Zn  Zn136  1  0.81312269  0.06138680  0.56439369  1
  Zn  Zn137  1  0.80828079  0.43656084  0.06249014  1
  Zn  Zn138  1  0.82552206  0.57964927  0.54988567  1
  Zn  Zn139  1  0.43582888  0.44205961  0.18866070  1
  Zn  Zn140  1  0.43582805  0.43876615  0.68626980  1
  Zn  Zn141  1  0.43734915  0.93802525  0.18496449  1
  Zn  Zn142  1  0.43991480  0.93725750  0.69141864  1
  Zn  Zn143  1  0.93085280  0.43105974  0.19527711  1
  Zn  Zn144  1  0.93775279  0.43885319  0.68334530  1
  Zn  Zn145  1  0.93876910  0.94045055  0.18869867  1
  Zn  Zn146  1  0.94131436  0.94115642  0.68930181  1
  Zn  Zn147  1  0.07005838  0.05793914  0.32130362  1
  Zn  Zn148  1  0.04352635  0.08296824  0.87569068  1
  Zn  Zn149  1  0.06054273  0.47969839  0.33200535  1
  Zn  Zn150  1  0.06070231  0.56299277  0.80880069  1
  Zn  Zn151  1  0.56410619  0.06315557  0.31206374  1
  Zn  Zn152  1  0.55868722  0.05927640  0.81446359  1
  Zn  Zn153  1  0.57107943  0.56011433  0.31354131  1
  Zn  Zn154  1  0.56095757  0.56377132  0.81360978  1
  Zn  Zn155  1  0.43518415  0.18931045  0.43831065  1
  Zn  Zn156  1  0.43670327  0.18496143  0.93962924  1
  Zn  Zn157  1  0.44098611  0.69260727  0.43793496  1
  Zn  Zn158  1  0.43929401  0.68800405  0.93983663  1
  Zn  Zn159  1  0.93622840  0.18785183  0.42908193  1
  Zn  Zn160  1  0.95609489  0.20714296  0.96688625  1
  Zn  Zn161  1  0.95397219  0.63713870  0.42455339  1
  Zn  Zn162  1  0.93544204  0.69356842  0.93163946  1
  Zn  Zn163  1  0.06550265  0.29755261  0.09580325  1
  Zn  Zn164  1  0.05698810  0.31590442  0.45271294  1
  Zn  Zn165  1  0.06767661  0.81519761  0.06018773  1
  Zn  Zn166  1  0.06604729  0.80901387  0.56344913  1
  Zn  Zn167  1  0.55928858  0.31069395  0.06218191  1
  Zn  Zn168  1  0.56178559  0.31246847  0.56280460  1
  Zn  Zn169  1  0.56254218  0.81853880  0.06110858  1
  Zn  Zn170  1  0.56278203  0.81435605  0.56358768  1
  O  O171  1  0.12305212  0.10188678  0.12395562  1
  O  O172  1  0.13074128  0.11530942  0.61071425  1
  O  O173  1  0.11088355  0.63183618  0.11362460  1
  O  O174  1  0.14145320  0.63007632  0.61729937  1
  O  O175  1  0.60635760  0.13052548  0.12512993  1
  O  O176  1  0.62035266  0.11731517  0.62025030  1
  O  O177  1  0.61995673  0.61649582  0.12209375  1
  O  O178  1  0.61294845  0.62351832  0.61906535  1
  O  O179  1  0.38572494  0.36677464  0.38892187  1
  O  O180  1  0.38114696  0.38091485  0.88338565  1
  O  O181  1  0.38947594  0.87851703  0.37419214  1
  O  O182  1  0.38571558  0.86686706  0.87669200  1
  O  O183  1  0.86234424  0.36956215  0.38478677  1
  O  O184  1  0.88087435  0.38824009  0.87004269  1
  O  O185  1  0.88778812  0.87836113  0.37196595  1
  O  O186  1  0.87883297  0.88207781  0.87860332  1
  O  O187  1  0.25451243  0.00651065  0.36840337  1
  O  O188  1  0.24309629  0.01367222  0.86099273  1
  O  O189  1  0.25332236  0.51708059  0.37138671  1
  O  O190  1  0.26196659  0.50150412  0.86170117  1
  O  O191  1  0.76122916  -0.00719774  0.37239879  1
  O  O192  1  0.75665685  0.00117974  0.86711903  1
  O  O193  1  0.72728616  0.51579183  0.36107855  1
  O  O194  1  0.75260166  0.50866578  0.86674235  1
  O  O195  1  0.26014774  0.51691598  0.13443984  1
  O  O196  1  0.26290031  0.49348800  0.64224830  1
  O  O197  1  0.24023791  0.99102514  0.13171850  1
  O  O198  1  0.24211344  1.00405846  0.63402259  1
  O  O199  1  0.73159723  0.49804735  0.13141473  1
  O  O200  1  0.74225364  0.49391338  0.62829020  1
  O  O201  1  0.75747315  0.99058805  0.13610840  1
  O  O202  1  0.74145155  0.98887069  0.62103315  1
  O  O203  1  0.02660666  0.40960915  0.24378700  1
  O  O204  1  -0.00098902  0.36847828  0.75987114  1
  O  O205  1  0.01008180  0.86991722  0.26024309  1
  O  O206  1  0.00785887  0.87002651  0.75440246  1
  O  O207  1  0.50245909  0.36579781  0.25824799  1
  O  O208  1  0.50453018  0.36994498  0.75285313  1
  O  O209  1  0.50980673  0.87894731  0.25639207  1
  O  O210  1  0.50199302  0.86730683  0.76050712  1
  O  O211  1  0.50062977  0.13466306  0.24536178  1
  O  O212  1  0.48966078  0.12790285  0.74477379  1
  O  O213  1  0.50066046  0.62609796  0.24653403  1
  O  O214  1  0.50460268  0.63529511  0.74125375  1
  O  O215  1  0.99791693  0.11827944  0.25774602  1
  O  O216  1  0.98827837  0.13923539  0.76982142  1
  O  O217  1  0.98631998  0.63506040  0.23233157  1
  O  O218  1  0.99113805  0.63562004  0.75185701  1
  O  O219  1  0.37024625  0.25750460  0.00546402  1
  O  O220  1  0.37454689  0.25912818  0.51134738  1
  O  O221  1  0.35560977  0.69513865  0.01077831  1
  O  O222  1  0.37214245  0.75645948  0.50656879  1
  O  O223  1  0.85567570  0.23936317  -0.00974745  1
  O  O224  1  0.86845346  0.25297599  0.50734861  1
  O  O225  1  0.86910525  0.76354956  0.00322345  1
  O  O226  1  0.86890683  0.67413620  0.49490228  1
  O  O227  1  0.12513536  0.23545523  0.50587663  1
  O  O228  1  0.14257481  0.25489767  0.98998392  1
  O  O229  1  0.14138423  0.74879897  0.49604797  1
  O  O230  1  0.12536525  0.73762671  0.99644428  1
  O  O231  1  0.62842711  0.24432111  0.49720417  1
  O  O232  1  0.61202334  0.24306437  0.98430153  1
  O  O233  1  0.61777296  0.74400135  0.49160599  1
  O  O234  1  0.62970919  0.74794923  0.99527663  1
  O  O235  1  0.49197705  0.24194411  0.13234829  1
  O  O236  1  0.49132610  0.24504049  0.62914679  1
  O  O237  1  0.51416959  0.73790824  0.12864018  1
  O  O238  1  0.49668892  0.74524703  0.63278746  1
  O  O239  1  0.97976758  0.23117449  0.09134785  1
  O  O240  1  0.98583030  0.25348667  0.63867459  1
  O  O241  1  0.99430640  0.75189523  0.12746103  1
  O  O242  1  1.00402632  0.74854286  0.63952714  1
  O  O243  1  0.00706239  0.25203099  0.37286410  1
  O  O244  1  0.00879472  0.26176006  0.87165210  1
  O  O245  1  0.01248873  0.75342817  0.37087807  1
  O  O246  1  0.00190131  0.76419847  0.86393735  1
  O  O247  1  0.50217289  0.25541901  0.36873070  1
  O  O248  1  0.50305696  0.25293909  0.86718015  1
  O  O249  1  0.50971606  0.76364744  0.37324809  1
  O  O250  1  0.50216934  0.75495542  0.87087531  1
  O  O251  1  0.24064057  0.12883136  0.49130377  1
  O  O252  1  0.26251719  0.13488232  0.98581629  1
  O  O253  1  0.25119515  0.63678440  0.49551148  1
  O  O254  1  0.22486548  0.60923251  0.99282845  1
  O  O255  1  0.74375643  0.12925804  0.49941845  1
  O  O256  1  0.74149672  0.10738918  0.97992960  1
  O  O257  1  0.72480274  0.62144630  0.50249055  1
  O  O258  1  0.74126942  0.63805655  0.99120712  1
  O  O259  1  0.26375090  0.36300527  -0.00700971  1
  O  O260  1  0.26134436  0.37494458  0.50700194  1
  O  O261  1  0.24837694  0.87356757  0.01416670  1
  O  O262  1  0.25319999  0.86562644  0.49232866  1
  O  O263  1  0.74555876  0.37982144  -0.00927607  1
  O  O264  1  0.75132306  0.36777498  0.50845858  1
  O  O265  1  0.75580576  0.87502658  0.00614286  1
  O  O266  1  0.75507850  0.86637774  0.51246275  1
  O  O267  1  0.15040299  0.51419766  0.24856078  1
  O  O268  1  0.14011462  0.49710781  0.75734848  1
  O  O269  1  0.13515126  0.98639013  0.25280452  1
  O  O270  1  0.13337402  0.99462903  0.73833477  1
  O  O271  1  0.61720796  0.48584021  0.23968201  1
  O  O272  1  0.62770399  0.49619884  0.74426634  1
  O  O273  1  0.63642186  0.98700107  0.26093448  1
  O  O274  1  0.62302078  1.00032190  0.73617243  1
  O  O275  1  0.35980338  -0.00124996  0.24861088  1
  O  O276  1  0.36532794  0.01210880  0.73980077  1
  O  O277  1  0.36900896  0.51411374  0.25247681  1
  O  O278  1  0.36701127  0.49051570  0.75987864  1
  O  O279  1  0.87123266  0.00066108  0.26421011  1
  O  O280  1  0.87486597  0.01005815  0.75481352  1
  O  O281  1  0.86735351  0.51908674  0.23705977  1
  O  O282  1  0.86741725  0.50895325  0.75930873  1
  O  O283  1  0.11584152  0.38484636  0.38164870  1
  O  O284  1  0.11768429  0.36750074  0.87647688  1
  O  O285  1  0.12068742  0.86558878  0.36893221  1
  O  O286  1  0.11664485  0.87940957  0.86417861  1
  O  O287  1  0.61258898  0.36648200  0.36946228  1
  O  O288  1  0.61631925  0.36596792  0.86706682  1
  O  O289  1  0.61912623  0.86936808  0.37066584  1
  O  O290  1  0.61395995  0.86793188  0.87477346  1
  O  O291  1  0.38261515  0.13831918  0.12035844  1
  O  O292  1  0.37776665  0.13503893  0.63139166  1
  O  O293  1  0.39602082  0.61796671  0.14044477  1
  O  O294  1  0.38970974  0.63754566  0.61862354  1
  O  O295  1  0.89352841  0.09659584  0.14557335  1
  O  O296  1  0.86856235  0.13385540  0.63644418  1
  O  O297  1  0.88328915  0.64693675  0.12506098  1
  O  O298  1  0.86890243  0.62180757  0.64809388  1
  O  O299  1  0.25934614  0.24454962  0.11548379  1
  O  O300  1  0.25893331  0.25904465  0.62618784  1
  O  O301  1  0.24331594  0.76454028  0.12889728  1
  O  O302  1  0.26621269  0.74811516  0.61686476  1
  O  O303  1  0.76540223  0.20583729  0.11945792  1
  O  O304  1  0.75552773  0.25851764  0.62174602  1
  O  O305  1  0.75838515  0.76563325  0.11804236  1
  O  O306  1  0.74925571  0.76219616  0.62324240  1
  O  O307  1  0.25000589  0.23931606  0.37279636  1
  O  O308  1  0.24604079  0.24630345  0.87710655  1
  O  O309  1  0.24861791  0.74541636  0.38240409  1
  O  O310  1  0.24790568  0.74604192  0.87522088  1
  O  O311  1  0.74036943  0.24387094  0.38212800  1
  O  O312  1  0.73321375  0.23770519  0.86746345  1
  O  O313  1  0.74091800  0.74770613  0.38173354  1
  O  O314  1  0.74251906  0.74966928  0.87810530  1
  O  O315  1  0.00265348  0.10794890  -0.02349790  1
  O  O316  1  0.01530601  0.11311141  0.49016308  1
  O  O317  1  0.00075007  0.62601777  0.00270254  1
  O  O318  1  0.03275039  0.64410050  0.51225760  1
  O  O319  1  0.49938076  0.11500177  0.00570880  1
  O  O320  1  0.50456296  0.11830790  0.50504432  1
  O  O321  1  0.50964826  0.62039085  0.00908300  1
  O  O322  1  0.50539471  0.62137775  0.50795444  1
  O  O323  1  0.49450316  0.37945271  0.49435616  1
  O  O324  1  0.49083626  0.38003803  0.99381938  1
  O  O325  1  0.50223525  0.88587068  0.49078105  1
  O  O326  1  0.49939622  0.88624385  0.99537665  1
  O  O327  1  0.97438322  0.37636328  0.50388692  1
  O  O328  1  1.00098452  0.39079915  0.98317998  1
  O  O329  1  1.00917357  0.88079064  0.49058986  1
  O  O330  1  0.99043488  0.86844209  0.98753617  1
  O  O331  1  0.50608481  0.48647047  0.38088076  1
  O  O332  1  0.49568851  0.49332518  0.87979600  1
  O  O333  1  0.49950790  0.99530837  0.38260675  1
  O  O334  1  0.49669750  0.99158554  0.88387874  1
  O  O335  1  0.99611206  0.53129889  0.40540147  1
  O  O336  1  0.98745643  0.49738726  0.87470864  1
  O  O337  1  0.99697737  0.98690446  0.38453221  1
  O  O338  1  0.98548604  0.98531486  0.86366389  1
  O  O339  1  0.01924763  -0.01072471  0.12531185  1
  O  O340  1  0.01021651  -0.00425154  0.61309323  1
  O  O341  1  -0.00767249  0.51534419  0.11176337  1
  O  O342  1  -0.00548197  0.50967128  0.61866694  1
  O  O343  1  0.49322335  0.00910505  0.11615554  1
  O  O344  1  0.50728019  0.00430838  0.61783388  1
  O  O345  1  0.50854025  0.50740705  0.11937276  1
  O  O346  1  0.50374202  0.50886554  0.62183720  1
  O  O347  1  0.26405862  0.39684311  0.24633087  1
  O  O348  1  0.24601509  0.38363886  0.74284805  1
  O  O349  1  0.24339892  0.87945611  0.24488624  1
  O  O350  1  0.24095548  0.88728302  0.75743074  1
  O  O351  1  0.72923346  0.36695127  0.25673578  1
  O  O352  1  0.74034848  0.38430923  0.73650243  1
  O  O353  1  0.74676526  0.88204870  0.24378807  1
  O  O354  1  0.74397750  0.87758782  0.73560118  1
  O  O355  1  0.23913559  0.11602331  0.26555027  1
  O  O356  1  0.25523657  0.12059919  0.75322872  1
  O  O357  1  0.26350834  0.62263834  0.25729629  1
  O  O358  1  0.24895101  0.61216567  0.75191485  1
  O  O359  1  0.74924225  0.10644167  0.25551592  1
  O  O360  1  0.75804238  0.12120153  0.75678504  1
  O  O361  1  0.76307529  0.63543684  0.23615162  1
  O  O362  1  0.75213725  0.62436526  0.75703512  1
  O  O363  1  0.35766910  0.12432032  0.38281738  1
  O  O364  1  0.36494440  0.13498564  0.85943660  1
  O  O365  1  0.37206628  0.62988239  0.37180266  1
  O  O366  1  0.38181832  0.60739155  0.87325358  1
  O  O367  1  0.87506366  0.10903532  0.36504018  1
  O  O368  1  0.86176968  0.11377869  0.86475156  1
  O  O369  1  0.87281600  0.64164183  0.34132022  1
  O  O370  1  0.86728010  0.61907197  0.86817492  1
  O  O371  1  0.13305897  0.39014584  0.09020536  1
  O  O372  1  0.14215343  0.37715672  0.62038245  1
  O  O373  1  0.13314622  0.88117786  0.13486915  1
  O  O374  1  0.12297014  0.88432274  0.63546004  1
  O  O375  1  0.61277192  0.38043335  0.13424987  1
  O  O376  1  0.63084115  0.38036367  0.62726399  1
  O  O377  1  0.63679966  0.87031922  0.13619196  1
  O  O378  1  0.62931429  0.88505376  0.62447255  1
  O  O379  1  0.12331666  0.27065035  0.20351314  1
  O  O380  1  0.11476344  0.25540249  0.75606867  1
  O  O381  1  0.12313023  0.75578861  0.25819412  1
  O  O382  1  0.11983838  0.76205818  0.75079820  1
  O  O383  1  0.61164975  0.25423041  0.25474408  1
  O  O384  1  0.61633735  0.25487377  0.75364048  1
  O  O385  1  0.62728398  0.76363006  0.26054098  1
  O  O386  1  0.61135997  0.75159038  0.75656560  1
  O  O387  1  0.38333402  0.25813256  0.23973465  1
  O  O388  1  0.37848893  0.24508195  0.74077044  1
  O  O389  1  0.38114442  0.73516527  0.25437862  1
  O  O390  1  0.38774922  0.75394983  0.74071404  1
  O  O391  1  0.87403399  0.22276080  0.25126096  1
  O  O392  1  0.88075790  0.24121442  0.74353072  1
  O  O393  1  0.88098884  0.75620585  0.23517367  1
  O  O394  1  0.88447722  0.74343934  0.75999792  1
  O  O395  1  0.38165164  0.48801427  0.50934329  1
  O  O396  1  0.37950454  0.49366365  0.99286031  1
  O  O397  1  0.38824330  1.00189210  0.50243691  1
  O  O398  1  0.38967400  1.00407128  1.00094547  1
  O  O399  1  0.85606270  0.48180820  0.49895102  1
  O  O400  1  0.88085606  0.50484641  0.98640633  1
  O  O401  1  0.88741450  1.00794427  0.49109416  1
  O  O402  1  0.86986653  0.98865379  0.98772364  1
  O  O403  1  0.12963421  -0.00900098  0.00867951  1
  O  O404  1  0.12061942  0.00361096  0.50766475  1
  O  O405  1  0.10052184  0.51736089  -0.01081907  1
  O  O406  1  0.13811090  0.52005429  0.50327642  1
  O  O407  1  0.60422776  0.00317834  -0.00153715  1
  O  O408  1  0.61644357  0.00376378  0.50639050  1
  O  O409  1  0.61733986  0.50633548  0.00639082  1
  O  O410  1  0.61446746  0.50734358  0.50594811  1
  O  O411  1  0.38261084  0.36490613  0.11335695  1
  O  O412  1  0.37254511  0.36679433  0.61792062  1
  O  O413  1  0.35937835  0.87333167  0.13263092  1
  O  O414  1  0.38592636  0.86425574  0.62104949  1
  O  O415  1  0.85852857  0.37300546  0.13989792  1
  O  O416  1  0.86227541  0.36671789  0.62156084  1
  O  O417  1  0.87097718  0.87286248  0.11662711  1
  O  O418  1  0.86332879  0.87952923  0.63039577  1
  O  O419  1  0.13939807  0.11722891  0.39114280  1
  O  O420  1  0.13931150  0.14351567  0.86760428  1
  O  O421  1  0.14177222  0.64017835  0.38595858  1
  O  O422  1  0.11733889  0.63241564  0.88278978  1
  O  O423  1  0.62516140  0.13037720  0.38316914  1
  O  O424  1  0.62964932  0.13165369  0.86770770  1
  O  O425  1  0.61543781  0.64011376  0.38340013  1
  O  O426  1  0.62717546  0.63254336  0.88131850  1
