# generated using pymatgen
data_V85Zn86O256
_symmetry_space_group_name_H-M   'P 1'
_cell_length_a   16.95614064
_cell_length_b   16.94792896
_cell_length_c   16.93354165
_cell_angle_alpha   90.02759952
_cell_angle_beta   90.14816703
_cell_angle_gamma   89.92980668
_symmetry_Int_Tables_number   1
_chemical_formula_structural   V85Zn86O256
_chemical_formula_sum   'V85 Zn86 O256'
_cell_volume   4866.19622500
_cell_formula_units_Z   1
loop_
 _symmetry_equiv_pos_site_id
 _symmetry_equiv_pos_as_xyz
  1  'x, y, z'
loop_
 _atom_site_type_symbol
 _atom_site_label
 _atom_site_symmetry_multiplicity
 _atom_site_fract_x
 _atom_site_fract_y
 _atom_site_fract_z
 _atom_site_occupancy
  V  V0  1  0.50515588  0.36911492  0.87659068  1
  V  V1  1  0.74407357  0.00176926  0.24222339  1
  V  V2  1  0.62440177  0.49927277  0.62422909  1
  V  V3  1  0.74388695  0.12895468  0.87379471  1
  V  V4  1  0.37878048  0.24909639  0.13171228  1
  V  V5  1  0.00190573  0.37755282  0.87731619  1
  V  V6  1  0.50190256  0.24858083  0.75249227  1
  V  V7  1  0.87025383  0.50424392  0.86946438  1
  V  V8  1  0.49757984  0.12195712  0.62088362  1
  V  V9  1  0.37377154  0.62882602  0.24457287  1
  V  V10  1  0.62808031  0.62187782  0.00538360  1
  V  V11  1  0.87895553  0.63475238  0.23608300  1
  V  V12  1  0.24004497  0.24693733  -0.00292005  1
  V  V13  1  -0.00010771  0.74683752  0.74949770  1
  V  V14  1  0.74964724  0.12638123  0.37424329  1
  V  V15  1  0.49530070  0.75165043  0.24243877  1
  V  V16  1  0.62806747  0.74091915  0.87407356  1
  V  V17  1  0.62366827  0.11902767  0.00361287  1
  V  V18  1  -0.00000831  0.37357481  0.37535772  1
  V  V19  1  0.87246445  0.50167222  0.37247679  1
  V  V20  1  0.62231031  0.12348882  0.49810791  1
  V  V21  1  0.61920748  -0.00012338  0.61973621  1
  V  V22  1  0.50556822  0.49846700  0.00673095  1
  V  V23  1  0.25165918  0.11873721  0.37402462  1
  V  V24  1  0.75227147  -0.00019453  0.75463579  1
  V  V25  1  0.37907049  0.87964032  0.50285143  1
  V  V26  1  0.87591491  0.12666802  0.24852135  1
  V  V27  1  0.49525452  0.62896741  0.62554212  1
  V  V28  1  0.25218659  0.62727071  0.87723166  1
  V  V29  1  0.13289052  0.25063545  0.38031982  1
  V  V30  1  0.14400382  0.00325965  0.11972391  1
  V  V31  1  0.37986693  0.87204772  0.01207218  1
  V  V32  1  0.61664693  0.37960145  0.24578187  1
  V  V33  1  0.49706030  0.75278177  0.75448270  1
  V  V34  1  0.36787810  0.37202126  0.49943587  1
  V  V35  1  0.24174648  0.12588385  0.88147050  1
  V  V36  1  -0.01422563  0.87932694  0.87756627  1
  V  V37  1  0.62227117  0.87942731  0.24268244  1
  V  V38  1  0.62058179  0.75202350  0.37257557  1
  V  V39  1  0.75517323  0.74989115  -0.00054759  1
  V  V40  1  0.49715453  0.49954311  0.49834704  1
  V  V41  1  0.24869755  0.50539481  0.24840884  1
  V  V42  1  0.61796935  0.25086932  0.36881315  1
  V  V43  1  0.24812166  0.87287010  0.62304407  1
  V  V44  1  0.50290405  0.12052835  0.12839263  1
  V  V45  1  0.37364663  0.11846619  0.25054603  1
  V  V46  1  0.37396686  0.62827247  0.74770472  1
  V  V47  1  0.87835857  0.37919678  -0.00110354  1
  V  V48  1  0.24932922  0.49914592  0.75064072  1
  V  V49  1  0.25907189  0.75188700  0.01448175  1
  V  V50  1  0.00426301  0.50835076  0.49839972  1
  V  V51  1  0.11205818  0.50295193  0.12290746  1
  V  V52  1  0.11583070  0.62534824  0.00528262  1
  V  V53  1  0.87525576  0.12169801  0.75559731  1
  V  V54  1  0.87610086  0.24968535  0.12501146  1
  V  V55  1  0.36918483  0.50650716  0.37492853  1
  V  V56  1  0.00057816  0.24813676  0.25061764  1
  V  V57  1  0.37443752  0.37213468  -0.00079404  1
  V  V58  1  0.12440238  0.87773374  0.74935595  1
  V  V59  1  0.62243903  0.62529847  0.49847829  1
  V  V60  1  0.13070796  0.12237613  0.50311868  1
  V  V61  1  0.62650424  0.37212611  0.75166279  1
  V  V62  1  0.12642857  0.73825795  0.37668259  1
  V  V63  1  0.12677031  0.37121294  0.75544032  1
  V  V64  1  0.12305322  0.50493323  0.62269847  1
  V  V65  1  0.14388887  0.88349675  0.24921519  1
  V  V66  1  0.75555764  0.87348582  0.12059630  1
  V  V67  1  0.74660765  0.38172270  0.12518712  1
  V  V68  1  0.00558929  0.11778504  0.62558320  1
  V  V69  1  0.75086508  0.87468767  0.62250029  1
  V  V70  1  0.00407798  0.24853891  0.75601798  1
  V  V71  1  0.36885965  0.25030799  0.62199060  1
  V  V72  1  0.00166922  0.87530933  0.36981190  1
  V  V73  1  0.87613683  -0.00023474  0.37750420  1
  V  V74  1  0.74941432  0.25059379  0.50017221  1
  V  V75  1  0.74912203  0.62562924  0.37313918  1
  V  V76  1  0.74941482  0.75203851  0.49881070  1
  V  V77  1  0.24956062  0.73683120  0.49990059  1
  V  V78  1  0.38455323  -0.00844377  0.87400946  1
  V  V79  1  0.61907746  0.87595217  0.75764234  1
  V  V80  1  0.24580774  -0.00046932  0.74747061  1
  V  V81  1  0.87440617  0.25011681  0.62466593  1
  V  V82  1  0.74900780  0.37572153  0.62574889  1
  V  V83  1  -0.01430080  0.00349077  0.00098301  1
  V  V84  1  0.74406817  0.25087824  -0.00453491  1
  Zn  Zn85  1  0.49469514  0.37155982  0.37016276  1
  Zn  Zn86  1  0.12730910  0.37382848  0.24788809  1
  Zn  Zn87  1  0.37524429  0.12477557  0.75349060  1
  Zn  Zn88  1  0.00977467  0.12701630  0.11776538  1
  Zn  Zn89  1  0.87997060  0.87317012  0.49968938  1
  Zn  Zn90  1  0.12574118  0.75300864  0.87724654  1
  Zn  Zn91  1  0.74153352  0.51502781  0.75418845  1
  Zn  Zn92  1  0.87355871  0.37641552  0.50084415  1
  Zn  Zn93  1  0.92229461  0.81221435  0.06216891  1
  Zn  Zn94  1  0.50227580  0.88651670  0.38064806  1
  Zn  Zn95  1  0.50129311  0.62368798  0.12492712  1
  Zn  Zn96  1  0.86462369  0.62942824  0.74697947  1
  Zn  Zn97  1  0.51163900  -0.01103048  0.00092537  1
  Zn  Zn98  1  0.00708853  -0.00306805  0.50508473  1
  Zn  Zn99  1  0.24831223  0.37386983  0.12416748  1
  Zn  Zn100  1  0.87667767  0.74613637  0.62169486  1
  Zn  Zn101  1  0.24486882  0.36968674  0.62181737  1
  Zn  Zn102  1  0.37647413  0.49892383  0.87591325  1
  Zn  Zn103  1  0.74436801  0.50641781  0.24143875  1
  Zn  Zn104  1  0.00347711  0.75121569  0.22715721  1
  Zn  Zn105  1  -0.00041942  0.62831445  0.62135870  1
  Zn  Zn106  1  0.38213766  0.00328810  0.37925020  1
  Zn  Zn107  1  0.19083170  0.18694818  0.18814314  1
  Zn  Zn108  1  0.18747028  0.18391964  0.69196107  1
  Zn  Zn109  1  0.18544891  0.68898347  0.19183946  1
  Zn  Zn110  1  0.18533143  0.68990457  0.68617110  1
  Zn  Zn111  1  0.68666952  0.19229831  0.18557293  1
  Zn  Zn112  1  0.68559049  0.18803262  0.68599139  1
  Zn  Zn113  1  0.69014970  0.69055340  0.18432153  1
  Zn  Zn114  1  0.68621911  0.68726215  0.68629410  1
  Zn  Zn115  1  0.31019313  0.31518973  0.31113014  1
  Zn  Zn116  1  0.31464295  0.30943308  0.81311392  1
  Zn  Zn117  1  0.31465532  0.80975096  0.32228035  1
  Zn  Zn118  1  0.31263716  0.81217207  0.81567157  1
  Zn  Zn119  1  0.80858707  0.31446584  0.31075440  1
  Zn  Zn120  1  0.81463418  0.31227807  0.81208407  1
  Zn  Zn121  1  0.81120417  0.81404420  0.30930961  1
  Zn  Zn122  1  0.81013578  0.80878478  0.81165396  1
  Zn  Zn123  1  0.18765342  0.44011890  0.43594230  1
  Zn  Zn124  1  0.18775785  0.43993837  0.93912677  1
  Zn  Zn125  1  0.18960471  0.93796697  0.43689943  1
  Zn  Zn126  1  0.18825972  0.93791212  0.93673380  1
  Zn  Zn127  1  0.68616856  0.43655834  0.43549909  1
  Zn  Zn128  1  0.68826539  0.43802322  0.93637086  1
  Zn  Zn129  1  0.68682654  0.93893029  0.43392332  1
  Zn  Zn130  1  0.69291755  0.93647253  0.93615097  1
  Zn  Zn131  1  0.31978450  0.06237593  0.05912231  1
  Zn  Zn132  1  0.30907514  0.06342438  0.56202733  1
  Zn  Zn133  1  0.31268735  0.55974613  0.06535479  1
  Zn  Zn134  1  0.31061181  0.55787565  0.56569343  1
  Zn  Zn135  1  0.81268693  0.06354213  0.06297108  1
  Zn  Zn136  1  0.81210994  0.06364259  0.56477517  1
  Zn  Zn137  1  0.81233944  0.56414830  0.05432688  1
  Zn  Zn138  1  0.81370867  0.56343942  0.56348072  1
  Zn  Zn139  1  0.43460086  0.43854364  0.18617714  1
  Zn  Zn140  1  0.43641693  0.43789803  0.68677932  1
  Zn  Zn141  1  0.43683590  0.94022387  0.18781028  1
  Zn  Zn142  1  0.43203667  0.93439476  0.68424611  1
  Zn  Zn143  1  0.93405070  0.43809463  0.18970615  1
  Zn  Zn144  1  0.93836969  0.43788720  0.68734241  1
  Zn  Zn145  1  0.94190341  0.94341279  0.18956786  1
  Zn  Zn146  1  0.93649057  0.93515782  0.69064146  1
  Zn  Zn147  1  0.06588840  0.06314428  0.31040543  1
  Zn  Zn148  1  0.06224243  0.05980576  0.81886802  1
  Zn  Zn149  1  0.05593078  0.56270913  0.30588414  1
  Zn  Zn150  1  0.06305757  0.56013632  0.81661035  1
  Zn  Zn151  1  0.55596190  0.06386755  0.31217129  1
  Zn  Zn152  1  0.56449894  0.06358785  0.81203546  1
  Zn  Zn153  1  0.55779160  0.56105269  0.31183379  1
  Zn  Zn154  1  0.56075056  0.55936209  0.81664177  1
  Zn  Zn155  1  0.43639582  0.18782115  0.43818579  1
  Zn  Zn156  1  0.43421059  0.18295053  0.93900805  1
  Zn  Zn157  1  0.43282640  0.69161977  0.43568267  1
  Zn  Zn158  1  0.44037236  0.68781832  0.93633693  1
  Zn  Zn159  1  0.93984170  0.18630124  0.43980722  1
  Zn  Zn160  1  0.93628884  0.18742369  0.93840034  1
  Zn  Zn161  1  0.93650461  0.68998827  0.43194630  1
  Zn  Zn162  1  0.93953245  0.68913444  0.93035027  1
  Zn  Zn163  1  0.06169999  0.31525835  0.06487609  1
  Zn  Zn164  1  0.06182826  0.31167285  0.56381327  1
  Zn  Zn165  1  0.08312686  0.82224137  0.05996279  1
  Zn  Zn166  1  0.06564875  0.81304102  0.56076415  1
  Zn  Zn167  1  0.56210176  0.30668592  0.06481270  1
  Zn  Zn168  1  0.55852325  0.31100928  0.56068470  1
  Zn  Zn169  1  0.56540339  0.81054506  0.06132237  1
  Zn  Zn170  1  0.56306944  0.81040209  0.56744753  1
  O  O171  1  0.12456118  0.10797592  0.13512539  1
  O  O172  1  0.11651687  0.13286642  0.61721879  1
  O  O173  1  0.12898482  0.61717954  0.11496371  1
  O  O174  1  0.12007463  0.60896053  0.63317577  1
  O  O175  1  0.61636050  0.13188606  0.11675630  1
  O  O176  1  0.61792431  0.11788812  0.62072533  1
  O  O177  1  0.62206707  0.63019831  0.11080089  1
  O  O178  1  0.61498096  0.61942845  0.61832324  1
  O  O179  1  0.37600136  0.38216393  0.38144284  1
  O  O180  1  0.38502450  0.37399834  0.88394551  1
  O  O181  1  0.37572692  0.87911509  0.39068022  1
  O  O182  1  0.37146482  0.88704869  0.88050788  1
  O  O183  1  0.88212608  0.38392992  0.37311195  1
  O  O184  1  0.88207818  0.38018240  0.88012960  1
  O  O185  1  0.88177400  0.88323289  0.37314948  1
  O  O186  1  0.88664180  0.87855002  0.86500235  1
  O  O187  1  0.25618520  0.01518631  0.37886438  1
  O  O188  1  0.25837531  0.00772585  0.86948952  1
  O  O189  1  0.25860903  0.49693502  0.36427995  1
  O  O190  1  0.25217226  0.51130502  0.87060832  1
  O  O191  1  0.75675667  0.00520463  0.36559232  1
  O  O192  1  0.74671243  0.00877615  0.86123851  1
  O  O193  1  0.75922471  0.50566110  0.37543592  1
  O  O194  1  0.76554857  0.49137118  0.87110642  1
  O  O195  1  0.24293524  0.49751392  0.13365309  1
  O  O196  1  0.24023674  0.49540088  0.63258800  1
  O  O197  1  0.24299420  1.00379396  0.12017538  1
  O  O198  1  0.25593759  0.99210422  0.63993756  1
  O  O199  1  0.75265636  0.48508937  0.11968239  1
  O  O200  1  0.74170633  0.49330047  0.62640247  1
  O  O201  1  0.75201997  0.99505660  0.13629807  1
  O  O202  1  0.74013958  0.99521523  0.63373940  1
  O  O203  1  0.00102431  0.36995670  0.26085431  1
  O  O204  1  0.00663326  0.36667469  0.75636010  1
  O  O205  1  0.00473946  0.87240410  0.25970327  1
  O  O206  1  0.00736222  0.87171822  0.75563905  1
  O  O207  1  0.51274745  0.37698936  0.24754347  1
  O  O208  1  0.50562860  0.36892000  0.75619468  1
  O  O209  1  0.50609508  0.86972895  0.25069577  1
  O  O210  1  0.50788623  0.86390886  0.73840751  1
  O  O211  1  0.49084118  0.12650875  0.23906646  1
  O  O212  1  0.50133053  0.13325487  0.74140583  1
  O  O213  1  0.49406084  0.63334997  0.24831572  1
  O  O214  1  0.49335277  0.62957805  0.74550145  1
  O  O215  1  0.99237535  0.13152047  0.24971375  1
  O  O216  1  0.99554026  0.12873288  0.74856590  1
  O  O217  1  0.98370816  0.63169578  0.25046930  1
  O  O218  1  1.00207979  0.63920768  0.75567444  1
  O  O219  1  0.36823465  0.25702885  0.00620403  1
  O  O220  1  0.38192190  0.26012072  0.51064140  1
  O  O221  1  0.36971951  0.75939331  -0.00385282  1
  O  O222  1  0.35576290  0.76006187  0.49037290  1
  O  O223  1  0.86582327  0.25835267  0.00373451  1
  O  O224  1  0.86823173  0.25055633  0.50607370  1
  O  O225  1  0.86106987  0.74785372  -0.01050761  1
  O  O226  1  0.86519044  0.75367991  0.49911733  1
  O  O227  1  0.11682313  0.24026179  0.48905161  1
  O  O228  1  0.14098119  0.25757909  1.00461898  1
  O  O229  1  0.13389702  0.75328030  0.48678083  1
  O  O230  1  0.14294747  0.73906103  0.99862514  1
  O  O231  1  0.63005397  0.24473693  0.49263160  1
  O  O232  1  0.63819640  0.24114699  1.00258660  1
  O  O233  1  0.62724759  0.74620516  0.49109580  1
  O  O234  1  0.62831039  0.74260405  0.99083536  1
  O  O235  1  0.48700675  0.23718050  0.11567683  1
  O  O236  1  0.49210591  0.24200447  0.63285247  1
  O  O237  1  0.50312439  0.74941164  0.13947046  1
  O  O238  1  0.50697629  0.73586266  0.63774789  1
  O  O239  1  0.99481955  0.24850260  0.13112162  1
  O  O240  1  0.99477534  0.24126500  0.63622835  1
  O  O241  1  1.00624366  0.76076924  0.11543983  1
  O  O242  1  1.00116467  0.75088368  0.63436779  1
  O  O243  1  0.00533605  0.25709430  0.37097592  1
  O  O244  1  -0.00734194  0.25852308  0.86323785  1
  O  O245  1  0.01277716  0.76062711  0.37731672  1
  O  O246  1  0.00415949  0.76173452  0.86746892  1
  O  O247  1  0.51387584  0.25158104  0.37943881  1
  O  O248  1  0.49322707  0.25772297  0.86561139  1
  O  O249  1  0.51033429  0.75323787  0.36814132  1
  O  O250  1  0.51051365  0.74728660  0.86260426  1
  O  O251  1  0.24207033  0.12715820  0.49253917  1
  O  O252  1  0.25655356  0.13090666  0.98850138  1
  O  O253  1  0.25389953  0.63775050  0.50542044  1
  O  O254  1  0.25472434  0.63444550  0.99408057  1
  O  O255  1  0.74287430  0.12991086  0.49497368  1
  O  O256  1  0.74575653  0.13073151  0.99352243  1
  O  O257  1  0.74186908  0.63125269  0.49412431  1
  O  O258  1  0.74068406  0.63719091  1.00268441  1
  O  O259  1  0.26074869  0.36795563  -0.00388420  1
  O  O260  1  0.26335496  0.37968807  0.50184941  1
  O  O261  1  0.25844462  0.85729790  -0.00677731  1
  O  O262  1  0.25405688  0.87113221  0.50810956  1
  O  O263  1  0.75510206  0.36753190  0.00397705  1
  O  O264  1  0.74993939  0.36905202  0.50696794  1
  O  O265  1  0.74154502  0.86645440  0.01028395  1
  O  O266  1  0.74751729  0.87182386  0.50853732  1
  O  O267  1  0.13068718  0.50535551  0.23805661  1
  O  O268  1  0.12771876  0.49038297  0.74430689  1
  O  O269  1  0.12493082  0.98917722  0.24318609  1
  O  O270  1  0.13584248  0.99131663  0.75662795  1
  O  O271  1  0.62751674  0.48517112  0.25646981  1
  O  O272  1  0.62182623  0.48840576  0.74484253  1
  O  O273  1  0.63505555  0.99168941  0.25772419  1
  O  O274  1  0.63135464  0.99426318  0.74212167  1
  O  O275  1  0.37552428  0.01515885  0.25146143  1
  O  O276  1  0.36722130  -0.00366608  0.76125228  1
  O  O277  1  0.36914298  0.50600568  0.25585147  1
  O  O278  1  0.36939315  0.50947812  0.75184365  1
  O  O279  1  0.86571642  0.00599468  0.25889752  1
  O  O280  1  0.86286120  0.01041598  0.74225499  1
  O  O281  1  0.87331914  0.51015694  0.25943377  1
  O  O282  1  0.87335627  0.49883579  0.76123856  1
  O  O283  1  0.11616606  0.36859347  0.37457291  1
  O  O284  1  0.11594921  0.38296648  0.86615754  1
  O  O285  1  0.11916208  0.87555628  0.36458060  1
  O  O286  1  0.12075776  0.87375009  0.86355812  1
  O  O287  1  0.62386844  0.36828353  0.36392816  1
  O  O288  1  0.61560483  0.37666548  0.86556210  1
  O  O289  1  0.62548230  0.86662156  0.36506005  1
  O  O290  1  0.62586569  0.87088365  0.86171294  1
  O  O291  1  0.38007670  0.13097932  0.13107188  1
  O  O292  1  0.38236723  0.13031005  0.62726600  1
  O  O293  1  0.38026627  0.61944059  0.13971849  1
  O  O294  1  0.38367710  0.61958915  0.63558481  1
  O  O295  1  0.87588372  0.13333307  0.13145225  1
  O  O296  1  0.88160916  0.13036589  0.63485765  1
  O  O297  1  0.86797701  0.61946104  0.13764516  1
  O  O298  1  0.88193150  0.62745320  0.62850972  1
  O  O299  1  0.25979346  0.25056790  0.11553072  1
  O  O300  1  0.26490620  0.24956094  0.63526876  1
  O  O301  1  0.25207506  0.74516424  0.11291721  1
  O  O302  1  0.24005981  0.75808921  0.60982292  1
  O  O303  1  0.75665824  0.25968285  0.11593563  1
  O  O304  1  0.75389528  0.25425566  0.62016264  1
  O  O305  1  0.74708235  0.76052242  0.11254136  1
  O  O306  1  0.74540757  0.76186170  0.61800270  1
  O  O307  1  0.23780837  0.24573521  0.37237367  1
  O  O308  1  0.25886295  0.23346297  0.88024524  1
  O  O309  1  0.23552638  0.75127698  0.38549913  1
  O  O310  1  0.24887031  0.73704871  0.87891024  1
  O  O311  1  0.74269502  0.24538042  0.38012788  1
  O  O312  1  0.75572805  0.24158347  0.88417259  1
  O  O313  1  0.73825698  0.74723485  0.37744807  1
  O  O314  1  0.73657741  0.75989498  0.88488447  1
  O  O315  1  -0.00258684  0.11065145  -0.00229806  1
  O  O316  1  0.00696686  0.12274519  0.51003041  1
  O  O317  1  0.01837222  0.63188588  -0.00497797  1
  O  O318  1  -0.00183730  0.61159712  0.49574668  1
  O  O319  1  0.51057171  0.12365447  0.00413315  1
  O  O320  1  0.50547082  0.13014596  0.51431540  1
  O  O321  1  0.50582532  0.61574815  0.00009146  1
  O  O322  1  0.50058221  0.62280820  0.50700944  1
  O  O323  1  0.48862565  0.38281981  0.49994279  1
  O  O324  1  0.49730772  0.37638001  0.99408325  1
  O  O325  1  0.48201616  0.86246580  0.50611764  1
  O  O326  1  0.48659473  0.87260407  1.00328746  1
  O  O327  1  0.99707120  0.38173792  0.48872470  1
  O  O328  1  0.98887314  0.36498286  0.98978496  1
  O  O329  1  1.00078366  0.88011342  0.48853996  1
  O  O330  1  0.99940658  0.88121354  0.99260239  1
  O  O331  1  0.48804287  0.49652336  0.38060079  1
  O  O332  1  0.49733263  0.48680819  0.88453873  1
  O  O333  1  0.49736504  0.99983889  0.38119015  1
  O  O334  1  0.48778176  1.00296345  0.87554361  1
  O  O335  1  0.99476961  0.49302006  0.37855439  1
  O  O336  1  0.98904361  0.48524353  0.87012190  1
  O  O337  1  0.99029754  0.99403901  0.37253086  1
  O  O338  1  1.00780186  0.99180189  0.89180736  1
  O  O339  1  0.00516789  0.00009157  0.11175104  1
  O  O340  1  -0.00530896  0.01372210  0.62713173  1
  O  O341  1  0.01300503  0.49899889  0.12955366  1
  O  O342  1  0.00598008  0.49798706  0.61504310  1
  O  O343  1  0.49333516  0.01496497  0.11752300  1
  O  O344  1  0.50895752  0.00916078  0.63513069  1
  O  O345  1  0.49999718  0.49739978  0.11029658  1
  O  O346  1  0.50394335  0.50960445  0.62024286  1
  O  O347  1  0.24671170  0.38853874  0.24626064  1
  O  O348  1  0.24106030  0.37898719  0.75470511  1
  O  O349  1  0.24195767  0.87523101  0.25996451  1
  O  O350  1  0.24442179  0.87799919  0.74463354  1
  O  O351  1  0.74289789  0.37946441  0.24028705  1
  O  O352  1  0.73794956  0.37073525  0.74525970  1
  O  O353  1  0.74176137  0.88185560  0.24276267  1
  O  O354  1  0.74110443  0.88146755  0.74270865  1
  O  O355  1  0.26103462  0.13131348  0.26181395  1
  O  O356  1  0.25322557  0.11661303  0.76063180  1
  O  O357  1  0.25881568  0.61599345  0.24627695  1
  O  O358  1  0.25564029  0.62240068  0.75583914  1
  O  O359  1  0.75352330  0.11964203  0.25313407  1
  O  O360  1  0.75396624  0.12094033  0.75441527  1
  O  O361  1  0.75667538  0.62434906  0.25434569  1
  O  O362  1  0.75010333  0.62803442  0.75407716  1
  O  O363  1  0.36829513  0.12956661  0.36854782  1
  O  O364  1  0.36846310  0.10949131  0.87455261  1
  O  O365  1  0.37942022  0.61320210  0.36548475  1
  O  O366  1  0.36914931  0.62246613  0.86606526  1
  O  O367  1  0.86990730  0.11895580  0.36996498  1
  O  O368  1  0.86456481  0.12847837  0.86211047  1
  O  O369  1  0.86852000  0.61822967  0.36735894  1
  O  O370  1  0.88254520  0.60549158  0.87703149  1
  O  O371  1  0.12675537  0.39124480  0.12419554  1
  O  O372  1  0.12472122  0.38077545  0.63678354  1
  O  O373  1  0.13235313  0.88656749  0.14147812  1
  O  O374  1  0.13431292  0.87485311  0.63687910  1
  O  O375  1  0.63188648  0.36604161  0.13755196  1
  O  O376  1  0.62671033  0.37937062  0.63189774  1
  O  O377  1  0.63295465  0.87228190  0.13691495  1
  O  O378  1  0.63126959  0.88202040  0.63246948  1
  O  O379  1  0.11859148  0.25136175  0.25960662  1
  O  O380  1  0.11562826  0.25883623  0.74712434  1
  O  O381  1  0.12566256  0.76268000  0.26031413  1
  O  O382  1  0.11782067  0.75942917  0.75237523  1
  O  O383  1  0.63259210  0.26301287  0.25993260  1
  O  O384  1  0.61276769  0.25967431  0.74238085  1
  O  O385  1  0.61822922  0.75769337  0.25605004  1
  O  O386  1  0.61824590  0.75705612  0.75621062  1
  O  O387  1  0.37048720  0.24574518  0.23755239  1
  O  O388  1  0.38709600  0.24976470  0.74158784  1
  O  O389  1  0.38427407  0.74067174  0.26254611  1
  O  O390  1  0.38313961  0.73930964  0.75637297  1
  O  O391  1  0.87932036  0.24670193  0.24568954  1
  O  O392  1  0.88276950  0.24129912  0.74489839  1
  O  O393  1  0.87365008  0.73827341  0.25079721  1
  O  O394  1  0.88667132  0.75098199  0.74749580  1
  O  O395  1  0.37679288  0.49471439  0.49313241  1
  O  O396  1  0.38285019  0.48749122  0.99985781  1
  O  O397  1  0.37089218  0.98364817  0.50440860  1
  O  O398  1  0.37352728  0.98650849  0.98849641  1
  O  O399  1  0.88322879  0.49864605  0.48812608  1
  O  O400  1  0.87070855  0.48634013  0.98889537  1
  O  O401  1  0.87337544  0.99989739  0.48678636  1
  O  O402  1  0.88594616  0.99812695  1.00275007  1
  O  O403  1  0.12260699  -0.01047699  0.01688026  1
  O  O404  1  0.12394677  0.01642808  0.49379306  1
  O  O405  1  0.13092182  0.51303371  0.01191446  1
  O  O406  1  0.11659497  0.49167167  0.51017473  1
  O  O407  1  0.62783388  0.01323116  -0.00515792  1
  O  O408  1  0.63045508  0.00469714  0.51276744  1
  O  O409  1  0.61810026  0.50978395  -0.00872025  1
  O  O410  1  0.61760768  0.50587621  0.50257999  1
  O  O411  1  0.37608063  0.36655209  0.11484827  1
  O  O412  1  0.37361834  0.36806786  0.61842158  1
  O  O413  1  0.37078189  0.88257116  0.11041829  1
  O  O414  1  0.36145880  0.87179782  0.61611765  1
  O  O415  1  0.86913136  0.37102078  0.11743583  1
  O  O416  1  0.86833471  0.36807702  0.62535544  1
  O  O417  1  0.86046849  0.87941842  0.13192422  1
  O  O418  1  0.86071341  0.87598297  0.62328046  1
  O  O419  1  0.13229315  0.13200437  0.38004844  1
  O  O420  1  0.14268372  0.12062934  0.87435264  1
  O  O421  1  0.11840544  0.64028140  0.36621981  1
  O  O422  1  0.13518732  0.62196489  0.88903344  1
  O  O423  1  0.63024667  0.13251752  0.37725571  1
  O  O424  1  0.63712746  0.12546118  0.88104450  1
  O  O425  1  0.62760653  0.63314843  0.37770880  1
  O  O426  1  0.62162503  0.63415051  0.88311536  1
