# generated using pymatgen
data_V85Zn86O256
_symmetry_space_group_name_H-M   'P 1'
_cell_length_a   16.99153943
_cell_length_b   16.95589154
_cell_length_c   16.98765440
_cell_angle_alpha   89.88279471
_cell_angle_beta   90.02535376
_cell_angle_gamma   90.10599396
_symmetry_Int_Tables_number   1
_chemical_formula_structural   V85Zn86O256
_chemical_formula_sum   'V85 Zn86 O256'
_cell_volume   4894.23795612
_cell_formula_units_Z   1
loop_
 _symmetry_equiv_pos_site_id
 _symmetry_equiv_pos_as_xyz
  1  'x, y, z'
loop_
 _atom_site_type_symbol
 _atom_site_label
 _atom_site_symmetry_multiplicity
 _atom_site_fract_x
 _atom_site_fract_y
 _atom_site_fract_z
 _atom_site_occupancy
  V  V0  1  0.75859240  0.12080311  0.37710722  1
  V  V1  1  0.87222729  0.62225283  0.74989944  1
  V  V2  1  0.50074409  0.76148744  0.25060852  1
  V  V3  1  0.37294530  0.62483719  0.74924083  1
  V  V4  1  0.49944493  0.62730010  0.62247831  1
  V  V5  1  0.50355025  0.36776373  0.37080838  1
  V  V6  1  -0.00087651  0.62699341  0.62430666  1
  V  V7  1  0.75962768  -0.00594949  0.24790866  1
  V  V8  1  0.37679451  0.37437913  0.00131470  1
  V  V9  1  0.62321859  0.75059917  0.87831991  1
  V  V10  1  0.62586120  -0.00276451  0.12851622  1
  V  V11  1  0.12610870  0.62428290  0.00020539  1
  V  V12  1  0.00358842  0.74721516  0.25687306  1
  V  V13  1  0.49569458  0.12116354  0.11679708  1
  V  V14  1  0.50336078  0.49821017  0.00113775  1
  V  V15  1  0.25384280  0.50043226  0.25432645  1
  V  V16  1  0.62842121  0.87594953  0.74670735  1
  V  V17  1  0.63200348  0.63165244  0.49779848  1
  V  V18  1  0.37042229  0.38455513  0.49399966  1
  V  V19  1  0.25397808  0.87763746  0.62127076  1
  V  V20  1  0.37462095  0.74868942  0.12202339  1
  V  V21  1  0.87495332  0.37387988  0.50119220  1
  V  V22  1  0.12607608  0.49728233  0.12678925  1
  V  V23  1  0.24854357  0.13040505  0.37328150  1
  V  V24  1  0.37693065  0.50065352  0.87393618  1
  V  V25  1  0.62977987  0.48171846  0.12854657  1
  V  V26  1  0.25142554  -0.00212256  0.25794505  1
  V  V27  1  0.00629976  0.36776685  0.37624608  1
  V  V28  1  0.24986358  0.62656493  0.37575236  1
  V  V29  1  0.37764660  0.62326915  0.25645923  1
  V  V30  1  0.62214016  0.25314827  0.85767497  1
  V  V31  1  0.87167891  0.36413909  0.00946526  1
  V  V32  1  -0.00185860  -0.00389757  0.49518881  1
  V  V33  1  0.62451672  0.12356013  0.49444989  1
  V  V34  1  0.63070394  0.62808980  0.00404144  1
  V  V35  1  0.00129215  0.87307775  0.87470468  1
  V  V36  1  0.37614801  0.13964131  0.73932980  1
  V  V37  1  0.24891943  0.75493617  0.49613361  1
  V  V38  1  0.25108029  0.37248026  0.63242081  1
  V  V39  1  -0.00099493  0.50140157  0.49849679  1
  V  V40  1  0.74733702  0.48288275  0.24923268  1
  V  V41  1  0.12375157  0.00669874  0.62647510  1
  V  V42  1  0.87521145  -0.00039405  0.87343618  1
  V  V43  1  0.49481726  0.50501814  0.48979156  1
  V  V44  1  0.74960084  0.62711584  0.87743128  1
  V  V45  1  0.87242882  0.49914445  0.37432974  1
  V  V46  1  0.00121720  0.75089748  0.74976382  1
  V  V47  1  0.12564050  0.49849552  0.63099524  1
  V  V48  1  0.87317286  0.62040445  0.24837416  1
  V  V49  1  0.88254202  0.24418149  0.62563398  1
  V  V50  1  0.37560711  0.75440360  0.61988007  1
  V  V51  1  0.12746628  0.25394256  0.86873597  1
  V  V52  1  0.49692779  0.88883985  0.88232943  1
  V  V53  1  0.48554918  0.00073246  0.49987650  1
  V  V54  1  0.87803752  0.13060707  0.24943073  1
  V  V55  1  0.24769236  0.25597034  0.49301926  1
  V  V56  1  -0.00082852  0.49677408  0.00007400  1
  V  V57  1  0.37665043  0.12235110  0.25563002  1
  V  V58  1  0.00313842  0.37445763  0.86771379  1
  V  V59  1  0.61803613  0.12115656  -0.00456821  1
  V  V60  1  0.12312400  0.13001878  0.50034460  1
  V  V61  1  0.86769316  0.87102584  -0.00061539  1
  V  V62  1  0.62868077  0.75815758  0.37222258  1
  V  V63  1  0.25172091  0.74973535  -0.00159948  1
  V  V64  1  0.12407166  0.12412698  -0.00076922  1
  V  V65  1  0.62447443  0.49844468  0.62743763  1
  V  V66  1  0.12350481  0.63197841  0.49547944  1
  V  V67  1  0.88547819  0.12636926  0.74656844  1
  V  V68  1  0.12627745  0.74930961  0.87484004  1
  V  V69  1  0.74884983  0.37484505  0.63116047  1
  V  V70  1  0.86222148  0.75971651  0.62140831  1
  V  V71  1  0.12294201  0.86955799  0.26208583  1
  V  V72  1  0.62518141  -0.00301981  0.62439187  1
  V  V73  1  0.25953676  0.12077313  0.87720563  1
  V  V74  1  0.00965018  0.24863291  0.24647780  1
  V  V75  1  0.75006681  0.12612903  0.87305238  1
  V  V76  1  -0.00169256  -0.00213101  0.00188944  1
  V  V77  1  0.25994527  -0.00091020  0.75366054  1
  V  V78  1  0.25272186  0.37550846  0.12634200  1
  V  V79  1  -0.00067740  0.62227096  0.12439785  1
  V  V80  1  0.86762367  0.74697811  0.11975452  1
  V  V81  1  0.50336176  0.37254734  0.85780628  1
  V  V82  1  0.48406497  0.88416036  0.37694329  1
  V  V83  1  0.24533486  0.87364399  0.12569695  1
  V  V84  1  0.38001627  0.24972324  0.13171929  1
  Zn  Zn85  1  0.63286294  0.25995232  0.36530147  1
  Zn  Zn86  1  0.25101551  0.24960603  0.00158045  1
  Zn  Zn87  1  0.13420029  0.36770386  0.25731299  1
  Zn  Zn88  1  0.51703542  0.16176589  0.64938049  1
  Zn  Zn89  1  0.12025730  0.00152113  0.13091624  1
  Zn  Zn90  1  0.74189241  0.26059819  0.00638543  1
  Zn  Zn91  1  0.25127389  0.62373652  0.87510283  1
  Zn  Zn92  1  0.75250929  0.24678969  0.49990345  1
  Zn  Zn93  1  0.75550695  -0.00494606  0.74630167  1
  Zn  Zn94  1  0.74205191  0.49593123  0.75268714  1
  Zn  Zn95  1  0.00907058  0.25125088  0.74344861  1
  Zn  Zn96  1  -0.00277805  0.13179489  0.11714466  1
  Zn  Zn97  1  0.50419102  0.62550847  0.12916680  1
  Zn  Zn98  1  -0.00878691  0.87573084  0.37652441  1
  Zn  Zn99  1  0.49833262  0.75442048  0.74905913  1
  Zn  Zn100  1  0.37185957  0.90239791  -0.01497528  1
  Zn  Zn101  1  0.24501644  0.49739095  0.75417784  1
  Zn  Zn102  1  0.12741349  0.87674235  0.75097784  1
  Zn  Zn103  1  0.74518945  0.86753501  0.12134926  1
  Zn  Zn104  1  0.87049378  0.49458177  0.87619463  1
  Zn  Zn105  1  0.74918092  0.62631377  0.37379117  1
  Zn  Zn106  1  0.83567441  -0.14869500  0.47627098  1
  Zn  Zn107  1  0.18860053  0.18789656  0.18505307  1
  Zn  Zn108  1  0.19389845  0.18809500  0.68662305  1
  Zn  Zn109  1  0.18617210  0.68618029  0.18710469  1
  Zn  Zn110  1  0.18747242  0.68773315  0.68612359  1
  Zn  Zn111  1  0.68177735  0.22048873  0.18563662  1
  Zn  Zn112  1  0.69726811  0.18046895  0.68053107  1
  Zn  Zn113  1  0.68671102  0.67998549  0.19222137  1
  Zn  Zn114  1  0.68478938  0.68830409  0.69027399  1
  Zn  Zn115  1  0.32014808  0.31159064  0.31606061  1
  Zn  Zn116  1  0.31353432  0.31239902  0.81711116  1
  Zn  Zn117  1  0.31250854  0.81031820  0.31064112  1
  Zn  Zn118  1  0.31460528  0.81335702  0.81101253  1
  Zn  Zn119  1  0.81866004  0.30702196  0.31532629  1
  Zn  Zn120  1  0.81567238  0.31021538  0.81465650  1
  Zn  Zn121  1  0.81459558  0.81062580  0.30255250  1
  Zn  Zn122  1  0.81158909  0.80917328  0.81207948  1
  Zn  Zn123  1  0.18488590  0.44466082  0.43882761  1
  Zn  Zn124  1  0.18901542  0.43773819  0.93865678  1
  Zn  Zn125  1  0.18550382  0.94051101  0.43870827  1
  Zn  Zn126  1  0.18733925  0.93668488  0.93808114  1
  Zn  Zn127  1  0.68673888  0.43982019  0.44184971  1
  Zn  Zn128  1  0.68768402  0.43617240  0.93571426  1
  Zn  Zn129  1  0.67569689  0.94101935  0.42664056  1
  Zn  Zn130  1  0.68690813  0.94086165  0.93562152  1
  Zn  Zn131  1  0.30580079  0.06183930  0.06612973  1
  Zn  Zn132  1  0.30854412  0.06847425  0.56322967  1
  Zn  Zn133  1  0.31383952  0.56325734  0.06399003  1
  Zn  Zn134  1  0.31040409  0.56342203  0.56338010  1
  Zn  Zn135  1  0.78493102  0.10966157  0.08933365  1
  Zn  Zn136  1  0.79207935  0.01686081  0.53811435  1
  Zn  Zn137  1  0.81189445  0.55374899  0.06279488  1
  Zn  Zn138  1  0.81158732  0.56345341  0.56365722  1
  Zn  Zn139  1  0.44040996  0.43792325  0.18947330  1
  Zn  Zn140  1  0.43402820  0.44023142  0.67947442  1
  Zn  Zn141  1  0.42197100  0.95295503  0.15845000  1
  Zn  Zn142  1  0.44237412  0.94008828  0.68962603  1
  Zn  Zn143  1  0.93706820  0.43247680  0.18915244  1
  Zn  Zn144  1  0.93652895  0.43702342  0.68617479  1
  Zn  Zn145  1  0.93603090  0.93493752  0.18643643  1
  Zn  Zn146  1  0.94032716  0.93880555  0.68608954  1
  Zn  Zn147  1  0.06622978  0.06165184  0.31687307  1
  Zn  Zn148  1  0.06766813  0.06184052  0.81409067  1
  Zn  Zn149  1  0.06333722  0.56034816  0.31295677  1
  Zn  Zn150  1  0.05976586  0.56368280  0.81459535  1
  Zn  Zn151  1  0.58433908  0.10703893  0.28485905  1
  Zn  Zn152  1  0.55910996  0.06264458  0.80993127  1
  Zn  Zn153  1  0.56584716  0.56398819  0.31080927  1
  Zn  Zn154  1  0.55890288  0.56521098  0.81181121  1
  Zn  Zn155  1  0.45289771  0.20907959  0.48252764  1
  Zn  Zn156  1  0.43864087  0.19102289  0.93599502  1
  Zn  Zn157  1  0.43817902  0.69144671  0.43602983  1
  Zn  Zn158  1  0.44121860  0.68821333  0.93775540  1
  Zn  Zn159  1  0.93901667  0.18439257  0.43826285  1
  Zn  Zn160  1  0.93927127  0.18920573  0.93228379  1
  Zn  Zn161  1  0.93217654  0.68824194  0.43722361  1
  Zn  Zn162  1  0.93820313  0.68613261  0.93736215  1
  Zn  Zn163  1  0.06345762  0.31372911  0.06096899  1
  Zn  Zn164  1  0.06558323  0.31458999  0.56237637  1
  Zn  Zn165  1  0.05975651  0.80889909  0.06459207  1
  Zn  Zn166  1  0.06309727  0.81563669  0.56736500  1
  Zn  Zn167  1  0.55964516  0.30517292  0.05494709  1
  Zn  Zn168  1  0.56752710  0.31747838  0.55700718  1
  Zn  Zn169  1  0.56108882  0.81435589  0.06209558  1
  Zn  Zn170  1  0.56285999  0.81671480  0.55708461  1
  O  O171  1  0.12257916  0.12373825  0.11147193  1
  O  O172  1  0.13922036  0.11686076  0.61391246  1
  O  O173  1  0.11943043  0.61805718  0.11959395  1
  O  O174  1  0.12035001  0.61983892  0.61533568  1
  O  O175  1  0.61172350  0.11955903  0.11228341  1
  O  O176  1  0.62045242  0.11867517  0.61631173  1
  O  O177  1  0.62382096  0.61838971  0.11551021  1
  O  O178  1  0.61937295  0.62371459  0.61584364  1
  O  O179  1  0.38291220  0.37890395  0.38714443  1
  O  O180  1  0.38469591  0.37973426  0.88097054  1
  O  O181  1  0.38492273  0.87069186  0.37521382  1
  O  O182  1  0.39024863  0.87250570  0.87410769  1
  O  O183  1  0.88434369  0.37987285  0.38186430  1
  O  O184  1  0.88614750  0.37565974  0.88214801  1
  O  O185  1  0.87981123  0.86160646  0.37587831  1
  O  O186  1  0.88074284  0.87625530  0.88040530  1
  O  O187  1  0.24678977  0.00746341  0.36434857  1
  O  O188  1  0.24543615  0.00829865  0.86634107  1
  O  O189  1  0.24745083  0.51302547  0.36572419  1
  O  O190  1  0.25968795  0.50107319  0.87235356  1
  O  O191  1  0.74231740  0.00758248  0.35343149  1
  O  O192  1  0.75672757  0.00866792  0.87005260  1
  O  O193  1  0.75438463  0.49910463  0.36672102  1
  O  O194  1  0.74821518  0.51131278  0.86971665  1
  O  O195  1  0.24679397  0.49597311  0.13399089  1
  O  O196  1  0.24141160  0.49334887  0.62562447  1
  O  O197  1  0.24131316  0.98850142  0.13763657  1
  O  O198  1  0.24562241  0.99353600  0.63012834  1
  O  O199  1  0.73631602  0.49735316  0.13127688  1
  O  O200  1  0.74200545  0.49377621  0.62603902  1
  O  O201  1  0.74374904  1.00886326  0.13340327  1
  O  O202  1  0.72946661  1.00896987  0.63401616  1
  O  O203  1  0.00074463  0.36178048  0.25715501  1
  O  O204  1  -0.00286572  0.37616365  0.76343174  1
  O  O205  1  0.00733238  0.86579081  0.24918363  1
  O  O206  1  0.00362358  0.86917444  0.75759610  1
  O  O207  1  0.49169036  0.38103864  0.27186608  1
  O  O208  1  0.49414281  0.38148738  0.75920941  1
  O  O209  1  0.49244829  0.86514246  0.25941907  1
  O  O210  1  0.50811629  0.87441158  0.76287747  1
  O  O211  1  0.48279469  0.11377637  0.23251640  1
  O  O212  1  0.48138104  0.12015109  0.74934189  1
  O  O213  1  0.49043653  0.63174186  0.25090276  1
  O  O214  1  0.48895742  0.62869453  0.74184124  1
  O  O215  1  0.99573153  0.13423039  0.25794491  1
  O  O216  1  0.98934396  0.12732715  0.75898952  1
  O  O217  1  0.99526632  0.62715031  0.24359764  1
  O  O218  1  0.99082940  0.63064419  0.74575344  1
  O  O219  1  0.37430484  0.25678705  0.01001128  1
  O  O220  1  0.35383560  0.26616904  0.49772153  1
  O  O221  1  0.37114277  0.74506844  0.01157487  1
  O  O222  1  0.36261420  0.74315376  0.51106079  1
  O  O223  1  0.87613905  0.26116980  -0.00496455  1
  O  O224  1  0.87630602  0.25406355  0.50898400  1
  O  O225  1  0.88194530  0.75770255  0.00879972  1
  O  O226  1  0.87523359  0.74875632  0.51567685  1
  O  O227  1  0.13557239  0.24261476  0.50503726  1
  O  O228  1  0.12557991  0.23887844  0.99211744  1
  O  O229  1  0.13482926  0.74037368  0.50871199  1
  O  O230  1  0.13067543  0.74439956  0.99562722  1
  O  O231  1  0.63171104  0.23327523  0.49495053  1
  O  O232  1  0.62427582  0.23663635  0.98814369  1
  O  O233  1  0.61774171  0.74385670  0.48427848  1
  O  O234  1  0.61995744  0.73786703  0.99350015  1
  O  O235  1  0.48888521  0.23747505  0.11897416  1
  O  O236  1  0.48833152  0.24652058  0.58756137  1
  O  O237  1  0.49224125  0.75083253  0.13262863  1
  O  O238  1  0.48946422  0.74749355  0.62140124  1
  O  O239  1  1.00437876  0.24982606  0.14178401  1
  O  O240  1  0.98881648  0.26018253  0.62792011  1
  O  O241  1  0.99062798  0.74127224  0.13202898  1
  O  O242  1  0.99421106  0.74464966  0.63122811  1
  O  O243  1  -0.00386011  0.26045413  0.36759641  1
  O  O244  1  0.01110609  0.25770721  0.87192517  1
  O  O245  1  -0.00217274  0.74389698  0.35894834  1
  O  O246  1  0.00581241  0.75343892  0.86984123  1
  O  O247  1  0.49577456  0.26666849  0.38778824  1
  O  O248  1  0.51270362  0.25808655  0.87564880  1
  O  O249  1  0.50382020  0.75954395  0.36904254  1
  O  O250  1  0.51236914  0.75332502  0.87246872  1
  O  O251  1  0.24664643  0.13541748  0.49153815  1
  O  O252  1  0.24119589  0.12209920  0.99317234  1
  O  O253  1  0.24313011  0.63199115  0.49425574  1
  O  O254  1  0.24412545  0.63052356  0.99928404  1
  O  O255  1  0.74445674  0.11435971  0.49024906  1
  O  O256  1  0.74088532  0.12586861  0.98056303  1
  O  O257  1  0.73622940  0.62089544  0.49613917  1
  O  O258  1  0.74037068  0.61619807  0.99069857  1
  O  O259  1  0.25998403  0.37641455  0.00879762  1
  O  O260  1  0.25240989  0.37529402  0.50080891  1
  O  O261  1  0.25430776  0.87081267  0.00917187  1
  O  O262  1  0.24361025  0.86672092  0.50844239  1
  O  O263  1  0.76656798  0.37562850  -0.00697976  1
  O  O264  1  0.75879697  0.37479742  0.50940677  1
  O  O265  1  0.76446274  0.87964485  -0.00104967  1
  O  O266  1  0.75242767  0.91407189  0.50339763  1
  O  O267  1  0.13830175  0.50038218  0.24470100  1
  O  O268  1  0.12558979  0.51036524  0.73540056  1
  O  O269  1  0.13047413  0.98910509  0.24953458  1
  O  O270  1  0.13841241  1.00321651  0.74237656  1
  O  O271  1  0.63002841  0.50092465  0.23547027  1
  O  O272  1  0.62196733  0.51040317  0.73158577  1
  O  O273  1  0.64100104  1.01458795  0.23353583  1
  O  O274  1  0.61956103  0.99251903  0.74091699  1
  O  O275  1  0.35977935  0.00885657  0.24114001  1
  O  O276  1  0.36306468  0.00839509  0.74414758  1
  O  O277  1  0.36427174  0.51240536  0.24156972  1
  O  O278  1  0.37498320  0.51069241  0.75392981  1
  O  O279  1  0.86641847  0.00698122  0.24725029  1
  O  O280  1  0.87674333  0.00741113  0.75458667  1
  O  O281  1  0.86757764  0.50067885  0.25320638  1
  O  O282  1  0.87479842  0.51440949  0.75066528  1
  O  O283  1  0.11110116  0.38453789  0.37374196  1
  O  O284  1  0.11816489  0.36431935  0.88407687  1
  O  O285  1  0.12262471  0.87469904  0.36406611  1
  O  O286  1  0.11948072  0.86731309  0.87425544  1
  O  O287  1  0.61006704  0.37349523  0.38710066  1
  O  O288  1  0.61968430  0.36168788  0.87494134  1
  O  O289  1  0.61183971  0.86150621  0.37335875  1
  O  O290  1  0.61648715  0.86917209  0.87227744  1
  O  O291  1  0.37644030  0.13378211  0.13122642  1
  O  O292  1  0.36636531  0.13140949  0.63890194  1
  O  O293  1  0.37667495  0.63425958  0.13506769  1
  O  O294  1  0.37818647  0.63304107  0.63061191  1
  O  O295  1  0.88576722  0.11999974  0.14559582  1
  O  O296  1  0.86915746  0.13784600  0.63799934  1
  O  O297  1  0.87903120  0.62751550  0.12686796  1
  O  O298  1  0.87926202  0.63258037  0.63203164  1
  O  O299  1  0.26005365  0.25651023  0.12316554  1
  O  O300  1  0.24296831  0.26870676  0.61632372  1
  O  O301  1  0.25472124  0.75363586  0.11939363  1
  O  O302  1  0.25571222  0.75790764  0.61765574  1
  O  O303  1  0.75588249  0.21966442  0.11085225  1
  O  O304  1  0.76000953  0.25844336  0.62164897  1
  O  O305  1  0.76310485  0.74833035  0.13363277  1
  O  O306  1  0.76356372  0.74742110  0.63111584  1
  O  O307  1  0.24856394  0.24394413  0.38007813  1
  O  O308  1  0.24343655  0.24224431  0.88024677  1
  O  O309  1  0.25307789  0.74073796  0.38520984  1
  O  O310  1  0.24544798  0.74972667  0.88124608  1
  O  O311  1  0.75196598  0.23639373  0.37902572  1
  O  O312  1  0.73630670  0.24503703  0.87474620  1
  O  O313  1  0.73179929  0.75132312  0.36368348  1
  O  O314  1  0.73668669  0.73827322  0.87151874  1
  O  O315  1  0.00637832  0.11630671  -0.00371763  1
  O  O316  1  0.01689215  0.11779596  0.49392215  1
  O  O317  1  0.00555563  0.61778628  0.00484511  1
  O  O318  1  0.00639079  0.62254520  0.50303943  1
  O  O319  1  0.50449078  0.12376942  0.00502004  1
  O  O320  1  0.50995182  0.10816215  0.48690636  1
  O  O321  1  0.51048509  0.61193646  -0.00030541  1
  O  O322  1  0.50590737  0.62201313  0.50287007  1
  O  O323  1  0.48898790  0.38879648  0.49408222  1
  O  O324  1  0.49699401  0.38471236  0.99278027  1
  O  O325  1  0.49965151  0.88667537  0.48830178  1
  O  O326  1  0.49854926  0.87018069  0.98476798  1
  O  O327  1  0.99591031  0.38105741  0.49387746  1
  O  O328  1  0.99244174  0.37751624  0.99196544  1
  O  O329  1  1.01028052  0.88955650  0.49838630  1
  O  O330  1  0.99454382  0.87986587  0.99495709  1
  O  O331  1  0.50739100  0.49567995  0.38603759  1
  O  O332  1  0.49935377  0.49223479  0.88250141  1
  O  O333  1  0.49920003  0.98621359  0.38299103  1
  O  O334  1  0.50527298  0.98797830  0.87848138  1
  O  O335  1  0.99226559  0.49306340  0.37864313  1
  O  O336  1  1.00097124  0.49142422  0.88268881  1
  O  O337  1  1.00567639  0.99813177  0.39097533  1
  O  O338  1  0.99700136  0.99344800  0.88177985  1
  O  O339  1  0.00187172  -0.00019727  0.11240486  1
  O  O340  1  0.01916320  -0.00564197  0.61955286  1
  O  O341  1  0.00605306  0.50275046  0.12151261  1
  O  O342  1  0.00577654  0.50550502  0.61864551  1
  O  O343  1  0.52030759  0.00619936  0.13200982  1
  O  O344  1  0.50592982  -0.00271645  0.60989667  1
  O  O345  1  0.51190483  0.50027787  0.11816556  1
  O  O346  1  0.50613478  0.50660664  0.61337223  1
  O  O347  1  0.25423590  0.38458523  0.24795582  1
  O  O348  1  0.25642326  0.37626820  0.73548389  1
  O  O349  1  0.24152667  0.87747017  0.24686733  1
  O  O350  1  0.24992798  0.88317507  0.74237680  1
  O  O351  1  0.75487396  0.38275182  0.25439555  1
  O  O352  1  0.75749726  0.37740301  0.73595523  1
  O  O353  1  0.75516801  0.89080793  0.24074723  1
  O  O354  1  0.73323682  0.87719699  0.76076372  1
  O  O355  1  0.25160548  0.11742752  0.25411214  1
  O  O356  1  0.25968588  0.11954821  0.75797423  1
  O  O357  1  0.25578520  0.62192181  0.25718262  1
  O  O358  1  0.26233708  0.62435136  0.75021845  1
  O  O359  1  0.76909023  0.12019856  0.25720108  1
  O  O360  1  0.76024017  0.12383412  0.76116383  1
  O  O361  1  0.75695990  0.61022902  0.25198413  1
  O  O362  1  0.75682647  0.62382233  0.75874218  1
  O  O363  1  0.36005086  0.12935555  0.36017744  1
  O  O364  1  0.36331126  0.12993885  0.87074096  1
  O  O365  1  0.36510200  0.63063415  0.36557406  1
  O  O366  1  0.37755644  0.62051656  0.86574713  1
  O  O367  1  0.86872346  0.12284106  0.36814960  1
  O  O368  1  0.86799547  0.12134070  0.86849976  1
  O  O369  1  0.87164266  0.61733766  0.36803512  1
  O  O370  1  0.86596707  0.62649750  0.86802586  1
  O  O371  1  0.13419491  0.37953809  0.12898018  1
  O  O372  1  0.13791783  0.38793945  0.61708970  1
  O  O373  1  0.13568234  0.87153577  0.13168194  1
  O  O374  1  0.13910090  0.88387117  0.62921551  1
  O  O375  1  0.62119672  0.38287281  0.11860236  1
  O  O376  1  0.63596058  0.38689537  0.61456429  1
  O  O377  1  0.63016165  0.89197159  0.11510528  1
  O  O378  1  0.61531910  0.88169495  0.63624070  1
  O  O379  1  0.11430323  0.24763570  0.25326170  1
  O  O380  1  0.12681862  0.24128481  0.76369134  1
  O  O381  1  0.11489947  0.75654219  0.24285803  1
  O  O382  1  0.11911297  0.74969541  0.75571871  1
  O  O383  1  0.61037879  0.21933005  0.26289274  1
  O  O384  1  0.62581307  0.24043875  0.75896724  1
  O  O385  1  0.61150874  0.74034456  0.26100523  1
  O  O386  1  0.62074298  0.75728035  0.75849082  1
  O  O387  1  0.36988086  0.24003580  0.23934119  1
  O  O388  1  0.37087810  0.23859055  0.75231532  1
  O  O389  1  0.38077659  0.74015521  0.24346382  1
  O  O390  1  0.37517799  0.74241613  0.73821605  1
  O  O391  1  0.88786812  0.23686745  0.25414631  1
  O  O392  1  0.87926075  0.24290301  0.74393341  1
  O  O393  1  0.88387810  0.74015577  0.23816592  1
  O  O394  1  0.87976384  0.74064925  0.74313160  1
  O  O395  1  0.38365290  0.49938133  0.50190016  1
  O  O396  1  0.38607551  0.49712274  0.99704408  1
  O  O397  1  0.38697530  1.00795891  0.50509392  1
  O  O398  1  0.38738299  0.98997292  1.04923456  1
  O  O399  1  0.88070535  0.49612968  0.49567288  1
  O  O400  1  0.88266743  0.48973530  0.99722770  1
  O  O401  1  0.90200042  1.00960494  0.51529001  1
  O  O402  1  0.88786902  0.98908424  0.99110565  1
  O  O403  1  0.11500069  0.00741952  -0.00224692  1
  O  O404  1  0.12361069  0.01026123  0.50850812  1
  O  O405  1  0.11998139  0.50388435  0.00720950  1
  O  O406  1  0.11881713  0.51266830  0.50879725  1
  O  O407  1  0.63503237  0.01373646  0.01089424  1
  O  O408  1  0.61535930  0.00680296  0.50713519  1
  O  O409  1  0.62099877  0.50355785  0.00996797  1
  O  O410  1  0.61618882  0.51202460  0.50808320  1
  O  O411  1  0.37427620  0.36836955  0.12252982  1
  O  O412  1  0.35728838  0.38597529  0.61103177  1
  O  O413  1  0.35871491  0.85675911  0.13781802  1
  O  O414  1  0.36488032  0.86657319  0.63141022  1
  O  O415  1  0.88139015  0.37477794  0.10855379  1
  O  O416  1  0.86862185  0.36929613  0.61968200  1
  O  O417  1  0.87379915  0.86451477  0.11585414  1
  O  O418  1  0.87717768  0.85985733  0.63101958  1
  O  O419  1  0.13959721  0.12140128  0.38577983  1
  O  O420  1  0.13459213  0.13154000  0.88327582  1
  O  O421  1  0.13347172  0.62111357  0.38659349  1
  O  O422  1  0.12683176  0.63102616  0.88240909  1
  O  O423  1  0.63969366  0.11768073  0.38509426  1
  O  O424  1  0.62752890  0.13242756  0.87579521  1
  O  O425  1  0.62389821  0.63564555  0.38211936  1
  O  O426  1  0.62948181  0.63007579  0.88197441  1
