# generated using pymatgen
data_V85Zn86O256
_symmetry_space_group_name_H-M   'P 1'
_cell_length_a   16.96056587
_cell_length_b   16.96869592
_cell_length_c   16.96823260
_cell_angle_alpha   89.98226429
_cell_angle_beta   89.93430329
_cell_angle_gamma   89.88472291
_symmetry_Int_Tables_number   1
_chemical_formula_structural   V85Zn86O256
_chemical_formula_sum   'V85 Zn86 O256'
_cell_volume   4883.42170014
_cell_formula_units_Z   1
loop_
 _symmetry_equiv_pos_site_id
 _symmetry_equiv_pos_as_xyz
  1  'x, y, z'
loop_
 _atom_site_type_symbol
 _atom_site_label
 _atom_site_symmetry_multiplicity
 _atom_site_fract_x
 _atom_site_fract_y
 _atom_site_fract_z
 _atom_site_occupancy
  V  V0  1  0.62440555  0.12845285  0.49942563  1
  V  V1  1  0.13256965  0.24502230  0.36731939  1
  V  V2  1  0.74909818  0.24908744  0.49501777  1
  V  V3  1  0.25174220  0.50191440  0.76063671  1
  V  V4  1  0.88144075  0.24558684  0.62596477  1
  V  V5  1  0.38134333  0.37886488  -0.01283549  1
  V  V6  1  0.74454308  0.74357681  0.00052485  1
  V  V7  1  0.75012508  0.61858379  0.87672002  1
  V  V8  1  -0.00212748  0.00447870  0.49771223  1
  V  V9  1  0.87546758  0.61766245  0.75427891  1
  V  V10  1  0.37602497  -0.00003811  0.87161249  1
  V  V11  1  0.49793709  -0.00013089  0.00116504  1
  V  V12  1  0.12070718  0.61737291  0.50019143  1
  V  V13  1  0.12075146  0.00377525  0.62190825  1
  V  V14  1  0.49482708  0.13606721  0.13500503  1
  V  V15  1  0.50695800  0.62714581  0.12186345  1
  V  V16  1  0.49213494  0.75064433  0.74396213  1
  V  V17  1  0.25031696  0.00002251  0.74847993  1
  V  V18  1  0.25073751  0.62485966  0.37583195  1
  V  V19  1  0.74501996  -0.00500093  0.73788264  1
  V  V20  1  -0.00454031  0.87472680  0.37500300  1
  V  V21  1  0.25333200  0.24581204  0.49348862  1
  V  V22  1  0.38393367  0.24653726  0.62507982  1
  V  V23  1  -0.00144136  0.74617510  0.75043335  1
  V  V24  1  0.51066095  0.26304051  0.26475022  1
  V  V25  1  0.37472702  0.75270051  0.12481629  1
  V  V26  1  0.74998086  0.49409512  0.75255163  1
  V  V27  1  0.62507765  0.74640662  0.87555154  1
  V  V28  1  0.87978223  0.74505525  0.12675486  1
  V  V29  1  0.62706479  0.50125513  0.11815576  1
  V  V30  1  0.12670538  0.12494631  0.49558808  1
  V  V31  1  0.38263091  0.12443858  0.74608659  1
  V  V32  1  0.12301898  0.75018920  0.37610266  1
  V  V33  1  0.25200256  0.50454735  0.24965277  1
  V  V34  1  0.87516061  0.38179338  -0.00606229  1
  V  V35  1  0.87883316  0.62209425  0.24843635  1
  V  V36  1  0.48980126  0.62462997  0.62483324  1
  V  V37  1  0.87300022  0.12400173  0.24988944  1
  V  V38  1  0.49519187  0.50509112  -0.01027247  1
  V  V39  1  0.25279708  0.87145516  0.62180505  1
  V  V40  1  -0.00147446  0.12439250  0.11621933  1
  V  V41  1  0.69128071  0.44169543  0.29999266  1
  V  V42  1  0.74884814  0.87393906  0.12472993  1
  V  V43  1  0.24786889  0.37198729  0.62863320  1
  V  V44  1  0.36921925  0.01431097  0.36850785  1
  V  V45  1  0.49967233  0.75444488  0.25175785  1
  V  V46  1  0.11961305  -0.00275501  0.12503201  1
  V  V47  1  0.12858923  0.37711466  0.24697990  1
  V  V48  1  0.62012162  0.87628701  0.25468685  1
  V  V49  1  0.37437101  0.87455751  0.48949483  1
  V  V50  1  0.00604618  0.37601015  0.37733240  1
  V  V51  1  0.74449774  0.37747001  0.12247299  1
  V  V52  1  0.60500642  0.25077536  0.86964753  1
  V  V53  1  0.88202907  0.49699219  0.37208652  1
  V  V54  1  0.61763985  0.49782916  0.62808417  1
  V  V55  1  0.12357162  0.87381714  0.74812089  1
  V  V56  1  0.11977612  0.50771204  0.12605006  1
  V  V57  1  -0.00579266  -0.00038539  -0.00152618  1
  V  V58  1  0.62852073  0.87516168  0.73512702  1
  V  V59  1  0.25050053  0.74576477  -0.00541495  1
  V  V60  1  0.62304346  0.12777455  -0.00115994  1
  V  V61  1  0.12540032  0.49467931  0.62551225  1
  V  V62  1  0.37134382  0.62312639  0.76398538  1
  V  V63  1  0.88201792  0.37919300  0.50285149  1
  V  V64  1  0.60637347  0.37031611  0.75407745  1
  V  V65  1  0.62017036  0.75445151  0.37737403  1
  V  V66  1  0.74833455  0.62873226  0.37137419  1
  V  V67  1  -0.00120056  0.87311702  0.87402784  1
  V  V68  1  0.00023503  0.61922109  0.62601579  1
  V  V69  1  0.87080571  -0.00023630  0.37705446  1
  V  V70  1  0.11832695  0.62697633  -0.00404525  1
  V  V71  1  0.38373506  0.37845851  0.49872526  1
  V  V72  1  0.00451981  0.38035404  0.87294755  1
  V  V73  1  0.87314107  0.25115035  0.12107397  1
  V  V74  1  0.26602143  0.37481458  0.12578716  1
  V  V75  1  0.24792331  0.87708343  0.12406330  1
  V  V76  1  0.50321005  0.87498044  0.87422358  1
  V  V77  1  0.37503661  0.62753858  0.25026460  1
  V  V78  1  0.38347376  0.49986301  0.38039474  1
  V  V79  1  0.87516834  0.12416611  0.74966460  1
  V  V80  1  0.61753744  0.62152356  0.50102220  1
  V  V81  1  0.25251676  0.74853133  0.50348504  1
  V  V82  1  0.50345352  -0.00369699  0.49953787  1
  V  V83  1  0.62323807  0.00026179  0.12548241  1
  V  V84  1  0.00963483  0.24479235  0.75469302  1
  Zn  Zn85  1  0.74637557  0.25257957  -0.00782316  1
  Zn  Zn86  1  0.74667718  0.12461545  0.87217376  1
  Zn  Zn87  1  0.87172422  0.87148099  -0.00288695  1
  Zn  Zn88  1  0.75039145  0.37233860  0.63077613  1
  Zn  Zn89  1  0.23800046  0.01990253  0.25712726  1
  Zn  Zn90  1  0.74662755  0.00148445  0.25131231  1
  Zn  Zn91  1  0.23905923  0.13865834  0.87920503  1
  Zn  Zn92  1  0.85527799  0.77592267  0.62518775  1
  Zn  Zn93  1  0.73936062  0.13116672  0.36892273  1
  Zn  Zn94  1  0.00381859  0.25009573  0.24557245  1
  Zn  Zn95  1  0.17374084  0.31593176  0.80959138  1
  Zn  Zn96  1  0.24225153  0.25284993  -0.00751126  1
  Zn  Zn97  1  0.75444219  0.77888596  0.50377602  1
  Zn  Zn98  1  0.00211627  0.74715022  0.24568549  1
  Zn  Zn99  1  0.86854088  -0.00190670  0.87510290  1
  Zn  Zn100  1  0.35341492  0.15027815  0.24399814  1
  Zn  Zn101  1  0.52007998  0.37988585  0.38113226  1
  Zn  Zn102  1  0.12602565  0.87387117  0.25132262  1
  Zn  Zn103  1  -0.00604536  0.50752929  0.00103102  1
  Zn  Zn104  1  0.13127507  0.74390690  0.87084016  1
  Zn  Zn105  1  0.51041095  0.12079271  0.62689260  1
  Zn  Zn106  1  0.37115735  0.87670021  -0.00242072  1
  Zn  Zn107  1  0.18243279  0.19646943  0.15638665  1
  Zn  Zn108  1  0.19557353  0.17985866  0.68183825  1
  Zn  Zn109  1  0.18712591  0.68774647  0.18412804  1
  Zn  Zn110  1  0.18630824  0.68484865  0.68773569  1
  Zn  Zn111  1  0.68489954  0.19094330  0.18589725  1
  Zn  Zn112  1  0.68924159  0.18764083  0.68527415  1
  Zn  Zn113  1  0.68930157  0.68722933  0.19085111  1
  Zn  Zn114  1  0.68178294  0.68586151  0.69081865  1
  Zn  Zn115  1  0.32083233  0.31578726  0.30898783  1
  Zn  Zn116  1  0.33914978  0.30907413  0.81671343  1
  Zn  Zn117  1  0.30928917  0.81634376  0.31032929  1
  Zn  Zn118  1  0.31286396  0.81583091  0.81197525  1
  Zn  Zn119  1  0.81953509  0.30766282  0.31255381  1
  Zn  Zn120  1  0.80895258  0.30756652  0.81653263  1
  Zn  Zn121  1  0.81033613  0.81178402  0.31305643  1
  Zn  Zn122  1  0.81342167  0.80904083  0.80902700  1
  Zn  Zn123  1  0.19471947  0.43471827  0.43807451  1
  Zn  Zn124  1  0.18732642  0.44005645  0.94596780  1
  Zn  Zn125  1  0.18793052  0.93719458  0.43396784  1
  Zn  Zn126  1  0.17148179  0.96670398  0.92396034  1
  Zn  Zn127  1  0.70940435  0.45665662  0.46714513  1
  Zn  Zn128  1  0.67945014  0.43383566  0.93735545  1
  Zn  Zn129  1  0.68968389  0.93992594  0.44164344  1
  Zn  Zn130  1  0.68735666  0.93814557  0.93231980  1
  Zn  Zn131  1  0.30430468  0.06933692  0.06731838  1
  Zn  Zn132  1  0.31317857  0.06002040  0.56003750  1
  Zn  Zn133  1  0.31258439  0.56509496  0.06148288  1
  Zn  Zn134  1  0.30988978  0.56003393  0.56556786  1
  Zn  Zn135  1  0.80990423  0.06074680  0.06137248  1
  Zn  Zn136  1  0.81054890  0.06293991  0.56168765  1
  Zn  Zn137  1  0.81074158  0.56215406  0.06395335  1
  Zn  Zn138  1  0.80860479  0.62975815  0.56344329  1
  Zn  Zn139  1  0.44496232  0.44149712  0.19281586  1
  Zn  Zn140  1  0.43136057  0.43956991  0.68809223  1
  Zn  Zn141  1  0.43528483  0.94058104  0.18702796  1
  Zn  Zn142  1  0.43840198  0.93547769  0.68202477  1
  Zn  Zn143  1  0.93813679  0.43567249  0.18845952  1
  Zn  Zn144  1  0.93811655  0.43555712  0.69156384  1
  Zn  Zn145  1  0.93508592  0.93338943  0.19141172  1
  Zn  Zn146  1  0.93334524  0.94113451  0.68794728  1
  Zn  Zn147  1  0.05861004  0.06491303  0.30796450  1
  Zn  Zn148  1  0.06323362  0.06490503  0.81495877  1
  Zn  Zn149  1  0.06148590  0.56223442  0.31213594  1
  Zn  Zn150  1  0.06817547  0.55790936  0.81274369  1
  Zn  Zn151  1  0.55702450  0.06089280  0.31817422  1
  Zn  Zn152  1  0.56385356  0.06110745  0.81093608  1
  Zn  Zn153  1  0.55774791  0.56940594  0.31144770  1
  Zn  Zn154  1  0.56319757  0.56463260  0.80824142  1
  Zn  Zn155  1  0.44243275  0.18796648  0.43402408  1
  Zn  Zn156  1  0.40998115  0.17502807  0.95749578  1
  Zn  Zn157  1  0.43700265  0.68901803  0.43812147  1
  Zn  Zn158  1  0.43764166  0.68925863  0.93860684  1
  Zn  Zn159  1  0.94050899  0.18900836  0.43568778  1
  Zn  Zn160  1  0.93747011  0.19113980  0.93283009  1
  Zn  Zn161  1  0.93733780  0.68746378  0.43940303  1
  Zn  Zn162  1  0.93502856  0.68887417  0.93739831  1
  Zn  Zn163  1  0.06722365  0.31426395  0.05612301  1
  Zn  Zn164  1  0.06316913  0.30801171  0.56313139  1
  Zn  Zn165  1  0.06328601  0.81453932  0.05866459  1
  Zn  Zn166  1  0.02856215  0.82960637  0.57988165  1
  Zn  Zn167  1  0.55749687  0.31476999  0.06020830  1
  Zn  Zn168  1  0.56652031  0.31199642  0.56307445  1
  Zn  Zn169  1  0.56278799  0.81418494  0.06199737  1
  Zn  Zn170  1  0.55977768  0.80976826  0.55816635  1
  O  O171  1  0.10329010  0.10908118  0.13030410  1
  O  O172  1  0.13246348  0.11366136  0.61061874  1
  O  O173  1  0.12663594  0.61782312  0.11579797  1
  O  O174  1  0.12214032  0.61346145  0.61829887  1
  O  O175  1  0.61557163  0.12073316  0.11764393  1
  O  O176  1  0.62562573  0.12903548  0.60861588  1
  O  O177  1  0.61707746  0.61766908  0.13234031  1
  O  O178  1  0.61349292  0.61756298  0.62055565  1
  O  O179  1  0.37357277  0.38644472  0.38486994  1
  O  O180  1  0.37596402  0.38729054  0.88746875  1
  O  O181  1  0.36890015  0.88226969  0.38528658  1
  O  O182  1  0.38792596  0.88147361  0.87338981  1
  O  O183  1  0.88679698  0.37706075  0.37854168  1
  O  O184  1  0.88598486  0.36557560  0.88642656  1
  O  O185  1  0.88243202  0.88727175  0.36744739  1
  O  O186  1  0.88645391  0.87275733  0.87332922  1
  O  O187  1  0.26140200  -0.00013646  0.37196884  1
  O  O188  1  0.27059876  -0.01754989  0.86495011  1
  O  O189  1  0.25870884  0.50626311  0.36957886  1
  O  O190  1  0.24113394  0.49230735  0.85832605  1
  O  O191  1  0.76101298  0.00735842  0.37202052  1
  O  O192  1  0.75170030  0.00439459  0.86444492  1
  O  O193  1  0.75428996  0.50075147  0.36298694  1
  O  O194  1  0.73618754  0.51004087  0.86817106  1
  O  O195  1  0.24253781  0.50082740  0.13215913  1
  O  O196  1  0.24495317  0.48827157  0.63147227  1
  O  O197  1  0.23444294  0.99167242  0.11524987  1
  O  O198  1  0.24048504  0.99088605  0.62578052  1
  O  O199  1  0.73960379  0.49133108  0.12244718  1
  O  O200  1  0.73184679  0.50050779  0.64100111  1
  O  O201  1  0.74323934  0.98883879  0.12596548  1
  O  O202  1  0.75540748  0.99952500  0.63923234  1
  O  O203  1  0.00846177  0.37199324  0.25921280  1
  O  O204  1  -0.00375760  0.36355671  0.76486355  1
  O  O205  1  0.00273918  0.86991639  0.26242707  1
  O  O206  1  0.00501044  0.86902545  0.75770105  1
  O  O207  1  0.50546134  0.36806201  0.25565484  1
  O  O208  1  0.50700245  0.37752430  0.74932478  1
  O  O209  1  0.51288471  0.86987688  0.24165936  1
  O  O210  1  0.50620034  0.86825131  0.75166932  1
  O  O211  1  0.50329273  0.13180948  0.24090731  1
  O  O212  1  0.48813019  0.11315847  0.74150064  1
  O  O213  1  0.49460406  0.63432138  0.24062021  1
  O  O214  1  0.49166685  0.63169426  0.74426381  1
  O  O215  1  0.98727352  0.12727973  0.23734110  1
  O  O216  1  0.99317973  0.13676327  0.75590791  1
  O  O217  1  0.98421701  0.62876212  0.25816470  1
  O  O218  1  0.99422561  0.62415727  0.74928960  1
  O  O219  1  0.38723745  0.27931136  0.00186411  1
  O  O220  1  0.36863183  0.25563191  0.50266739  1
  O  O221  1  0.36776247  0.75237935  0.00612241  1
  O  O222  1  0.36121307  0.75727989  0.49273902  1
  O  O223  1  0.87195982  0.25766850  0.00895926  1
  O  O224  1  0.87462134  0.25529086  0.50795615  1
  O  O225  1  0.86229524  0.74961902  0.00859806  1
  O  O226  1  0.86076158  0.72363214  0.51066107  1
  O  O227  1  0.13286099  0.24368519  0.49105804  1
  O  O228  1  0.14650801  0.23831840  1.05030063  1
  O  O229  1  0.13443047  0.73776078  0.48833472  1
  O  O230  1  0.12976043  0.73912975  1.00027365  1
  O  O231  1  0.63918537  0.24619931  0.50301388  1
  O  O232  1  0.62033116  0.24417440  0.98939446  1
  O  O233  1  0.62627779  0.74072155  0.49138017  1
  O  O234  1  0.63357265  0.75428804  0.98894514  1
  O  O235  1  0.50287324  0.23909896  0.13008519  1
  O  O236  1  0.48617242  0.24574720  0.61576817  1
  O  O237  1  0.49708371  0.74470448  0.12896084  1
  O  O238  1  0.50481935  0.73966766  0.63629724  1
  O  O239  1  0.98786931  0.24242655  0.12204737  1
  O  O240  1  0.99181099  0.25802756  0.64025981  1
  O  O241  1  0.98305167  0.75770595  0.12419793  1
  O  O242  1  1.01116378  0.72672342  0.63473116  1
  O  O243  1  0.01336198  0.25881162  0.37140587  1
  O  O244  1  0.00298821  0.25593497  0.86192233  1
  O  O245  1  0.00660811  0.75805290  0.37960126  1
  O  O246  1  0.00294823  0.75719383  0.86964836  1
  O  O247  1  0.50830548  0.25796397  0.36998042  1
  O  O248  1  0.50775177  0.24305869  0.87709707  1
  O  O249  1  0.51188458  0.74472900  0.36858965  1
  O  O250  1  0.50775722  0.75313577  0.86729321  1
  O  O251  1  0.24293754  0.13737799  0.50069657  1
  O  O252  1  0.29419145  0.14694646  0.98652541  1
  O  O253  1  0.24420825  0.63141887  0.49751052  1
  O  O254  1  0.24034178  0.63749481  1.00618130  1
  O  O255  1  0.74400640  0.13316799  0.49834364  1
  O  O256  1  0.73233138  0.12563116  1.00312338  1
  O  O257  1  0.73199594  0.60714984  0.48124812  1
  O  O258  1  0.75331992  0.63326537  0.99062313  1
  O  O259  1  0.26434465  0.38190730  0.01121898  1
  O  O260  1  0.25990743  0.36467860  0.50797035  1
  O  O261  1  0.24785232  0.86482261  0.01354852  1
  O  O262  1  0.25277066  0.86715050  0.50368394  1
  O  O263  1  0.75681647  0.37544206  0.00660367  1
  O  O264  1  0.76433976  0.36621997  0.50644913  1
  O  O265  1  0.74783815  0.86530514  0.00874225  1
  O  O266  1  0.75802418  0.88783952  0.50718758  1
  O  O267  1  0.13152680  0.49843442  0.24521088  1
  O  O268  1  0.14035963  0.50409091  0.73765153  1
  O  O269  1  0.12177291  0.99585994  0.23942275  1
  O  O270  1  0.12779663  0.99460158  0.73696015  1
  O  O271  1  0.62739868  0.49935743  0.24361607  1
  O  O272  1  0.62810627  0.48962831  0.74839974  1
  O  O273  1  0.62439567  0.99200637  0.24696243  1
  O  O274  1  0.63685308  0.99158455  0.75137373  1
  O  O275  1  0.37616231  -0.00013811  0.26503310  1
  O  O276  1  0.37108665  0.00305972  0.75136229  1
  O  O277  1  0.37187024  0.50861715  0.25971160  1
  O  O278  1  0.36011961  0.50666756  0.74754364  1
  O  O279  1  0.87238819  0.00854307  0.25683483  1
  O  O280  1  0.86689532  0.00725591  0.75060332  1
  O  O281  1  0.87828278  0.50510276  0.26104887  1
  O  O282  1  0.86213156  0.50438790  0.75030409  1
  O  O283  1  0.12270104  0.36942448  0.37040443  1
  O  O284  1  0.11098711  0.37267401  0.88614478  1
  O  O285  1  0.11955296  0.86500533  0.37268041  1
  O  O286  1  0.11264253  0.87864369  0.86733362  1
  O  O287  1  0.63792147  0.39653844  0.37272642  1
  O  O288  1  0.62208563  0.35961506  0.86975369  1
  O  O289  1  0.63172274  0.86571484  0.36531817  1
  O  O290  1  0.62093988  0.86461212  0.86479045  1
  O  O291  1  0.39460211  0.11663441  0.12793216  1
  O  O292  1  0.37093918  0.13239008  0.62957075  1
  O  O293  1  0.38418117  0.63224949  0.13157668  1
  O  O294  1  0.38541678  0.61888998  0.63122007  1
  O  O295  1  0.87719700  0.13120675  0.12900898  1
  O  O296  1  0.87411840  0.13457587  0.63608926  1
  O  O297  1  0.86406516  0.63289232  0.13693481  1
  O  O298  1  0.89039225  0.60990783  0.64003434  1
  O  O299  1  0.27138052  0.27659633  0.13450119  1
  O  O300  1  0.25759210  0.25619217  0.61545053  1
  O  O301  1  0.25527234  0.75691998  0.11934529  1
  O  O302  1  0.23924385  0.75891096  0.61315529  1
  O  O303  1  0.75607675  0.26058970  0.12173579  1
  O  O304  1  0.76442764  0.25226349  0.61788223  1
  O  O305  1  0.75197782  0.75450104  0.11789340  1
  O  O306  1  0.75334478  0.72531296  0.61574849  1
  O  O307  1  0.24245375  0.26001723  0.38191431  1
  O  O308  1  0.25004350  0.25681399  0.87225685  1
  O  O309  1  0.24248243  0.74505928  0.38163532  1
  O  O310  1  0.24780511  0.76117814  0.88907212  1
  O  O311  1  0.76204722  0.24750374  0.38972070  1
  O  O312  1  0.73711622  0.24219297  0.87703950  1
  O  O313  1  0.73940057  0.74198214  0.37778766  1
  O  O314  1  0.74426227  0.74287429  0.88083328  1
  O  O315  1  -0.01246574  0.11452110  0.00704476  1
  O  O316  1  0.01529681  0.11775724  0.49261714  1
  O  O317  1  0.01170880  0.62579247  -0.00153426  1
  O  O318  1  0.01308001  0.62440162  0.50924106  1
  O  O319  1  0.50526749  0.12076436  0.01092590  1
  O  O320  1  0.50500678  0.11608200  0.50070534  1
  O  O321  1  0.49555185  0.61797579  0.01270467  1
  O  O322  1  0.50841273  0.63155745  0.50925811  1
  O  O323  1  0.48808421  0.37076625  0.49797158  1
  O  O324  1  0.49099968  0.39482311  1.00837491  1
  O  O325  1  0.48827938  0.88459346  0.50446528  1
  O  O326  1  0.50071720  0.88233395  0.99278246  1
  O  O327  1  0.99339551  0.36773894  0.48993580  1
  O  O328  1  0.99347808  0.37344558  0.98991278  1
  O  O329  1  1.01035556  0.89224984  0.48255132  1
  O  O330  1  0.99435138  0.87944359  0.99067479  1
  O  O331  1  0.48810546  0.49912044  0.37062596  1
  O  O332  1  0.50805905  0.51069118  0.89195317  1
  O  O333  1  0.48279808  1.00234892  0.38804739  1
  O  O334  1  0.49543460  0.99375115  0.87879313  1
  O  O335  1  0.99540020  0.48731790  0.37359685  1
  O  O336  1  1.00134459  0.48405813  0.87458146  1
  O  O337  1  0.99274054  0.99558666  0.37779981  1
  O  O338  1  0.99406425  0.99107103  0.88260683  1
  O  O339  1  -0.00297272  0.00287072  0.11883867  1
  O  O340  1  0.01295864  -0.00241802  0.61206809  1
  O  O341  1  0.01562169  0.49003886  0.12249660  1
  O  O342  1  0.01492168  0.50477669  0.63540413  1
  O  O343  1  0.50648088  0.00678859  0.12058260  1
  O  O344  1  0.48694039  0.00394168  0.60417637  1
  O  O345  1  0.50994339  0.51108258  0.12432269  1
  O  O346  1  0.50892988  0.50987091  0.63591428  1
  O  O347  1  0.25012344  0.38558865  0.24242966  1
  O  O348  1  0.25345171  0.38109450  0.74171056  1
  O  O349  1  0.24774546  0.87873696  0.23474045  1
  O  O350  1  0.24510917  0.87773477  0.73860734  1
  O  O351  1  0.74943138  0.37559721  0.24448270  1
  O  O352  1  0.74379293  0.38258660  0.75253549  1
  O  O353  1  0.73825219  0.87336079  0.24028240  1
  O  O354  1  0.74481962  0.88463857  0.75209222  1
  O  O355  1  0.25060340  0.12338801  0.21318619  1
  O  O356  1  0.26204370  0.11582644  0.75187998  1
  O  O357  1  0.25622313  0.62382303  0.25623259  1
  O  O358  1  0.25754333  0.61283165  0.74400777  1
  O  O359  1  0.76017994  0.12586068  0.24827257  1
  O  O360  1  0.75566182  0.11230763  0.74831000  1
  O  O361  1  0.75798607  0.62721653  0.26370653  1
  O  O362  1  0.75585021  0.61570145  0.75810333  1
  O  O363  1  0.37311934  0.11738922  0.37007134  1
  O  O364  1  0.38120803  0.11060987  0.86062758  1
  O  O365  1  0.37087580  0.61936885  0.37195030  1
  O  O366  1  0.37820869  0.62577877  0.86329286  1
  O  O367  1  0.87977745  0.11925866  0.36261529  1
  O  O368  1  0.87200859  0.12571516  0.86102681  1
  O  O369  1  0.86729252  0.61516667  0.37052490  1
  O  O370  1  0.86376539  0.62749565  0.86575536  1
  O  O371  1  0.14149091  0.38820025  0.12931795  1
  O  O372  1  0.13757734  0.38008396  0.61600255  1
  O  O373  1  0.12829108  0.87896403  0.12945611  1
  O  O374  1  0.12983701  0.88330330  0.62662430  1
  O  O375  1  0.63548045  0.38263809  0.11975257  1
  O  O376  1  0.62541236  0.38046934  0.63530616  1
  O  O377  1  0.63203061  0.87806155  0.13234093  1
  O  O378  1  0.62200812  0.86742734  0.63649034  1
  O  O379  1  0.12788275  0.25756717  0.25427518  1
  O  O380  1  0.11448047  0.24346290  0.74110061  1
  O  O381  1  0.12293504  0.74455929  0.26473061  1
  O  O382  1  0.11980666  0.75448715  0.75282516  1
  O  O383  1  0.61025656  0.24761135  0.24764720  1
  O  O384  1  0.62464170  0.25433828  0.76037833  1
  O  O385  1  0.62057146  0.75665689  0.25761061  1
  O  O386  1  0.61637230  0.75619045  0.75742776  1
  O  O387  1  0.39827553  0.25166859  0.25708405  1
  O  O388  1  0.37286174  0.23791027  0.73719654  1
  O  O389  1  0.37990311  0.74745757  0.24619302  1
  O  O390  1  0.38555939  0.74369643  0.75380896  1
  O  O391  1  0.87708196  0.24263496  0.23742834  1
  O  O392  1  0.88189935  0.24343136  0.74398929  1
  O  O393  1  0.87354982  0.74093905  0.24351937  1
  O  O394  1  0.87979063  0.73504234  0.74532770  1
  O  O395  1  0.36750479  0.49097421  0.49212067  1
  O  O396  1  0.38852316  0.50055641  1.00203551  1
  O  O397  1  0.37634241  0.99496684  0.48751240  1
  O  O398  1  0.38210745  0.99923416  0.98833831  1
  O  O399  1  0.86552947  0.48568453  0.48108684  1
  O  O400  1  0.87820892  0.48740225  1.00814922  1
  O  O401  1  0.88825654  1.01619863  0.48843660  1
  O  O402  1  0.88126109  0.99338184  0.99922657  1
  O  O403  1  0.10392779  -0.01140753  0.01575891  1
  O  O404  1  0.12182629  0.00824207  0.50056872  1
  O  O405  1  0.12514171  0.51385191  0.00796117  1
  O  O406  1  0.13721565  0.50862106  0.50936316  1
  O  O407  1  0.61744365  0.00756662  0.00290896  1
  O  O408  1  0.60690854  0.00332382  0.49442242  1
  O  O409  1  0.61184550  0.49769418  0.01099117  1
  O  O410  1  0.62100925  0.50728194  0.51509490  1
  O  O411  1  0.36641416  0.39782051  0.12110737  1
  O  O412  1  0.36786071  0.36774025  0.61862069  1
  O  O413  1  0.36692964  0.87141604  0.12248375  1
  O  O414  1  0.35882097  0.88045059  0.61201785  1
  O  O415  1  0.86670267  0.36859218  0.12023912  1
  O  O416  1  0.87761435  0.36909042  0.61690640  1
  O  O417  1  0.86123372  0.86501424  0.12878096  1
  O  O418  1  0.92178333  0.86124050  0.61428533  1
  O  O419  1  0.12349966  0.13607197  0.37772438  1
  O  O420  1  0.14670692  0.07653810  0.88600230  1
  O  O421  1  0.12930807  0.62762562  0.38249273  1
  O  O422  1  0.12582268  0.62312479  0.89077959  1
  O  O423  1  0.62494830  0.11978872  0.39100468  1
  O  O424  1  0.62010551  0.13374303  0.88255251  1
  O  O425  1  0.62824795  0.63172125  0.37918549  1
  O  O426  1  0.63525393  0.63883620  0.86465407  1
