# generated using pymatgen
data_V85Zn86O256
_symmetry_space_group_name_H-M   'P 1'
_cell_length_a   16.97434934
_cell_length_b   16.97234775
_cell_length_c   16.96127586
_cell_angle_alpha   90.03808634
_cell_angle_beta   90.18960171
_cell_angle_gamma   89.82806313
_symmetry_Int_Tables_number   1
_chemical_formula_structural   V85Zn86O256
_chemical_formula_sum   'V85 Zn86 O256'
_cell_volume   4886.40149954
_cell_formula_units_Z   1
loop_
 _symmetry_equiv_pos_site_id
 _symmetry_equiv_pos_as_xyz
  1  'x, y, z'
loop_
 _atom_site_type_symbol
 _atom_site_label
 _atom_site_symmetry_multiplicity
 _atom_site_fract_x
 _atom_site_fract_y
 _atom_site_fract_z
 _atom_site_occupancy
  V  V0  1  0.62424262  -0.00178380  0.62537493  1
  V  V1  1  -0.00368655  0.13981927  0.12844376  1
  V  V2  1  0.37535155  -0.00290139  0.87503866  1
  V  V3  1  -0.00226424  0.49746831  0.49858122  1
  V  V4  1  0.50485149  0.37509008  0.87276929  1
  V  V5  1  0.37656704  0.14124179  0.24603099  1
  V  V6  1  0.49822378  0.74570190  0.73186648  1
  V  V7  1  0.87182002  0.87429189  0.49825516  1
  V  V8  1  0.87402780  0.62640529  0.75126894  1
  V  V9  1  0.50230215  0.86271965  0.87858646  1
  V  V10  1  0.62415576  0.37987224  0.24253121  1
  V  V11  1  0.24325534  0.25448536  0.50317172  1
  V  V12  1  0.37536254  0.63007859  0.24427153  1
  V  V13  1  0.37268348  0.37598937  0.50423888  1
  V  V14  1  0.25530427  0.74841642  0.00576257  1
  V  V15  1  0.75705749  0.11858402  0.87318432  1
  V  V16  1  0.75144245  0.26416979  0.50296432  1
  V  V17  1  0.75799559  0.25563296  0.01191142  1
  V  V18  1  0.24647051  0.50235282  0.25394953  1
  V  V19  1  0.12464844  0.87571726  0.25097523  1
  V  V20  1  0.50109717  0.00066118  0.00217970  1
  V  V21  1  0.12119430  0.36314474  0.25214680  1
  V  V22  1  0.38001615  0.50111682  0.87238747  1
  V  V23  1  0.37459326  0.00245288  0.37344899  1
  V  V24  1  0.87106027  -0.00200470  0.36254368  1
  V  V25  1  0.12773694  0.49195309  0.63679830  1
  V  V26  1  0.37449594  0.62720585  0.74071993  1
  V  V27  1  0.87994882  0.49822791  0.87813912  1
  V  V28  1  0.37445647  0.87347774  0.00459602  1
  V  V29  1  0.74880888  0.87300421  0.62078654  1
  V  V30  1  0.49908406  0.00037896  0.50030455  1
  V  V31  1  0.50044601  0.12294768  0.62533677  1
  V  V32  1  0.00049692  0.36965879  0.85958144  1
  V  V33  1  0.87582982  0.14485635  0.24744627  1
  V  V34  1  0.62873195  0.88289016  0.24946929  1
  V  V35  1  0.87488915  0.75038388  0.12231264  1
  V  V36  1  0.87440567  0.87794134  -0.00862008  1
  V  V37  1  0.50720807  0.63107817  0.12293574  1
  V  V38  1  0.25062108  -0.00519997  0.74712963  1
  V  V39  1  0.12764139  0.75066051  0.37802112  1
  V  V40  1  0.49990847  0.87730845  0.37177048  1
  V  V41  1  0.63044599  0.24903746  0.87278720  1
  V  V42  1  0.51483067  0.50411411  -0.00156731  1
  V  V43  1  0.49562005  0.13921312  0.12713460  1
  V  V44  1  0.25094160  0.25724253  0.00031798  1
  V  V45  1  0.62710333  0.12512911  0.00288817  1
  V  V46  1  0.88143397  0.11883705  0.74620588  1
  V  V47  1  0.24475571  0.13204254  0.37364288  1
  V  V48  1  0.37719783  0.50137179  0.37633916  1
  V  V49  1  0.37289016  0.25078636  0.62755318  1
  V  V50  1  0.12029510  0.24651565  0.85991615  1
  V  V51  1  0.73662585  0.62735162  0.87805713  1
  V  V52  1  -0.00101476  0.75057215  0.75133660  1
  V  V53  1  -0.00073998  0.87633850  0.37436128  1
  V  V54  1  0.74744565  0.49276087  0.74277306  1
  V  V55  1  0.12386203  0.75008723  0.87541143  1
  V  V56  1  0.25344280  0.62128354  0.87618245  1
  V  V57  1  0.87345701  0.74993885  0.62127191  1
  V  V58  1  -0.00006900  0.62282139  0.11885343  1
  V  V59  1  0.12166352  0.12765194  0.49731086  1
  V  V60  1  0.12170382  0.00073283  0.12265944  1
  V  V61  1  0.36808428  0.86975398  0.50886098  1
  V  V62  1  0.87529221  0.49768439  0.37767537  1
  V  V63  1  0.87385581  0.26298595  0.62537308  1
  V  V64  1  0.12463043  0.61869868  0.00010282  1
  V  V65  1  0.12368172  0.49942694  0.12422113  1
  V  V66  1  0.12519435  -0.00164814  0.62301281  1
  V  V67  1  0.37566381  0.12031672  0.75086683  1
  V  V68  1  0.87407275  0.62585685  0.24867872  1
  V  V69  1  0.12954135  0.87088520  0.74419344  1
  V  V70  1  -0.00524539  0.00066494  -0.00468947  1
  V  V71  1  0.88289134  0.37405180  0.01130516  1
  V  V72  1  0.24986774  0.00266977  0.24874128  1
  V  V73  1  0.62787886  0.75131695  0.37468402  1
  V  V74  1  0.12556932  0.62485223  0.50050781  1
  V  V75  1  0.50227327  0.24680174  0.75056750  1
  V  V76  1  0.61635974  0.25298172  0.37156281  1
  V  V77  1  0.62019525  0.62707846  0.50552211  1
  V  V78  1  0.00158632  0.36480877  0.37260317  1
  V  V79  1  0.73804167  0.74710942  -0.00473198  1
  V  V80  1  0.25314500  0.87404092  0.12488462  1
  V  V81  1  0.74944337  0.12202940  0.37316444  1
  V  V82  1  0.62478349  0.86922449  0.75546027  1
  V  V83  1  0.75105170  0.62926194  0.37889049  1
  V  V84  1  0.74991842  0.88264922  0.12653458  1
  Zn  Zn85  1  -0.00301821  0.88042803  0.87129800  1
  Zn  Zn86  1  0.49090928  0.51118150  0.51156103  1
  Zn  Zn87  1  -0.00057001  0.62244606  0.62642293  1
  Zn  Zn88  1  0.62635012  0.12542197  0.50033157  1
  Zn  Zn89  1  0.38590835  0.36427486  0.00762292  1
  Zn  Zn90  1  0.62680855  0.00632522  0.13180592  1
  Zn  Zn91  1  0.75540477  -0.00542441  0.75512120  1
  Zn  Zn92  1  0.00128234  0.13270882  0.62720722  1
  Zn  Zn93  1  0.49333080  0.75613899  0.24412509  1
  Zn  Zn94  1  0.63567045  0.50414831  0.11721283  1
  Zn  Zn95  1  0.24473285  0.37764348  0.66462484  1
  Zn  Zn96  1  0.24779751  0.12266300  0.87876313  1
  Zn  Zn97  1  0.25484237  0.75079269  0.52271122  1
  Zn  Zn98  1  0.49341418  0.37116342  0.37044937  1
  Zn  Zn99  1  0.63342491  0.36597492  0.73482155  1
  Zn  Zn100  1  0.75497893  0.49068616  0.24155747  1
  Zn  Zn101  1  0.00198572  0.75066886  0.24835440  1
  Zn  Zn102  1  0.25748017  0.36898485  0.13254928  1
  Zn  Zn103  1  0.62130911  0.48736656  0.61689246  1
  Zn  Zn104  1  -0.00346029  0.00313579  0.50020445  1
  Zn  Zn105  1  0.25385395  0.63110825  0.37816554  1
  Zn  Zn106  1  0.12236408  0.12920643  0.00054434  1
  Zn  Zn107  1  0.18918394  0.18622271  0.18104526  1
  Zn  Zn108  1  0.19125148  0.18257544  0.68475546  1
  Zn  Zn109  1  0.18818764  0.68809218  0.18865461  1
  Zn  Zn110  1  0.18861647  0.68178889  0.68514081  1
  Zn  Zn111  1  0.68661286  0.18967996  0.19122922  1
  Zn  Zn112  1  0.69295904  0.18398824  0.68567135  1
  Zn  Zn113  1  0.68936394  0.69315834  0.18851608  1
  Zn  Zn114  1  0.69023707  0.68824028  0.69107251  1
  Zn  Zn115  1  0.30567100  0.31640152  0.31741771  1
  Zn  Zn116  1  0.31874692  0.30447699  0.81863911  1
  Zn  Zn117  1  0.31120036  0.81449589  0.31625740  1
  Zn  Zn118  1  0.31350028  0.80816775  0.81166891  1
  Zn  Zn119  1  0.80751595  0.31491643  0.31784239  1
  Zn  Zn120  1  0.81837318  0.30748848  0.81169595  1
  Zn  Zn121  1  0.81119707  0.81080479  0.30931850  1
  Zn  Zn122  1  0.80998071  0.80962739  0.81266894  1
  Zn  Zn123  1  0.18339200  0.43778165  0.43714677  1
  Zn  Zn124  1  0.20864820  0.41441817  0.87872325  1
  Zn  Zn125  1  0.18913883  0.94089323  0.43622200  1
  Zn  Zn126  1  0.18570049  0.93622730  0.93529068  1
  Zn  Zn127  1  0.68623046  0.44246040  0.43168578  1
  Zn  Zn128  1  0.69577643  0.43594872  0.93137445  1
  Zn  Zn129  1  0.68813837  0.93922053  0.43750744  1
  Zn  Zn130  1  0.68644124  0.93679623  0.94066725  1
  Zn  Zn131  1  0.31280269  0.06701560  0.06105364  1
  Zn  Zn132  1  0.31130501  0.06062005  0.56194252  1
  Zn  Zn133  1  0.33466916  0.52701852  0.07826517  1
  Zn  Zn134  1  0.30344629  0.55894595  0.56453093  1
  Zn  Zn135  1  0.81508970  0.06577206  0.06371552  1
  Zn  Zn136  1  0.81034783  0.06244912  0.56067276  1
  Zn  Zn137  1  0.80927950  0.56114921  0.05935216  1
  Zn  Zn138  1  0.81011267  0.56409837  0.56024286  1
  Zn  Zn139  1  0.44540008  0.43547995  0.18658172  1
  Zn  Zn140  1  0.44192430  0.43789428  0.68438809  1
  Zn  Zn141  1  0.43797888  0.94633382  0.18679689  1
  Zn  Zn142  1  0.43941153  0.93397902  0.68822677  1
  Zn  Zn143  1  0.94084715  0.43853234  0.19166601  1
  Zn  Zn144  1  0.93626923  0.43987217  0.68603089  1
  Zn  Zn145  1  0.93774190  0.93816094  0.18394779  1
  Zn  Zn146  1  0.94143927  0.93949595  0.68566205  1
  Zn  Zn147  1  0.05740564  0.06446691  0.31179849  1
  Zn  Zn148  1  0.06216077  0.06230837  0.81093088  1
  Zn  Zn149  1  0.06029901  0.56286611  0.31188637  1
  Zn  Zn150  1  0.05866126  0.56327847  0.81626057  1
  Zn  Zn151  1  0.55907511  0.06671331  0.31072993  1
  Zn  Zn152  1  0.56470716  0.05764706  0.81517775  1
  Zn  Zn153  1  0.55992472  0.56199523  0.31354174  1
  Zn  Zn154  1  0.56226062  0.56258764  0.80367680  1
  Zn  Zn155  1  0.43242064  0.18613089  0.44024190  1
  Zn  Zn156  1  0.43760395  0.18429470  0.93807024  1
  Zn  Zn157  1  0.43988377  0.69183130  0.43267112  1
  Zn  Zn158  1  0.43821017  0.68471820  0.94137439  1
  Zn  Zn159  1  0.93187034  0.18756624  0.44052255  1
  Zn  Zn160  1  0.93870373  0.18740591  0.93680414  1
  Zn  Zn161  1  0.94101211  0.68837729  0.43768475  1
  Zn  Zn162  1  0.93414255  0.68921196  0.93713829  1
  Zn  Zn163  1  0.06900877  0.31847221  0.05325397  1
  Zn  Zn164  1  0.05770256  0.31506262  0.56444928  1
  Zn  Zn165  1  0.06259495  0.81103737  0.06098331  1
  Zn  Zn166  1  0.05973280  0.81243513  0.56248015  1
  Zn  Zn167  1  0.56890988  0.31390703  0.05936207  1
  Zn  Zn168  1  0.56167248  0.31177011  0.56057569  1
  Zn  Zn169  1  0.56200481  0.81316543  0.06642116  1
  Zn  Zn170  1  0.56202662  0.81256460  0.55669128  1
  O  O171  1  0.11486027  0.11414061  0.12693577  1
  O  O172  1  0.12279495  0.11779836  0.61604836  1
  O  O173  1  0.11810742  0.62148683  0.12064670  1
  O  O174  1  0.12093508  0.61273016  0.61619458  1
  O  O175  1  0.61798888  0.12572140  0.12222190  1
  O  O176  1  0.61868032  0.11653053  0.62489877  1
  O  O177  1  0.61014506  0.62442406  0.13733581  1
  O  O178  1  0.63634109  0.63216764  0.60563614  1
  O  O179  1  0.37303310  0.38389220  0.38283603  1
  O  O180  1  0.39240375  0.38269358  0.87714170  1
  O  O181  1  0.38127715  0.88446108  0.37745410  1
  O  O182  1  0.38310843  0.87807390  0.88170395  1
  O  O183  1  0.88757715  0.38859869  0.36575573  1
  O  O184  1  0.88532423  0.37731714  0.87794093  1
  O  O185  1  0.87558956  0.87892976  0.37954082  1
  O  O186  1  0.87485974  0.87272149  0.88701750  1
  O  O187  1  0.25410535  0.01238467  0.36872613  1
  O  O188  1  0.25494202  0.00008268  0.86548032  1
  O  O189  1  0.25548833  0.50269128  0.36726085  1
  O  O190  1  0.26516157  0.51378113  0.88527986  1
  O  O191  1  0.75812476  0.01074531  0.37938840  1
  O  O192  1  0.74628068  0.01445077  0.87726130  1
  O  O193  1  0.76158169  0.51009333  0.37077983  1
  O  O194  1  0.76038200  0.50826798  0.86615758  1
  O  O195  1  0.23666711  0.50335338  0.13799245  1
  O  O196  1  0.23206177  0.49426390  0.62548254  1
  O  O197  1  0.23908446  0.99681006  0.12814243  1
  O  O198  1  0.23882915  1.00506192  0.63587630  1
  O  O199  1  0.74634346  0.50583576  0.12984054  1
  O  O200  1  0.75266963  0.50511382  0.64036042  1
  O  O201  1  0.74764219  0.98664821  0.11675335  1
  O  O202  1  0.74381695  0.98727435  0.62681676  1
  O  O203  1  0.00800960  0.37940366  0.26266327  1
  O  O204  1  -0.00663652  0.37104880  0.76082913  1
  O  O205  1  0.00658932  0.87417224  0.25521017  1
  O  O206  1  0.00933591  0.87015512  0.75146145  1
  O  O207  1  0.51437036  0.37778230  0.25569617  1
  O  O208  1  0.50310685  0.36597643  0.76004720  1
  O  O209  1  0.50748499  0.87637103  0.25291563  1
  O  O210  1  0.50319693  0.86177350  0.75684102  1
  O  O211  1  0.48890992  0.12362760  0.24022782  1
  O  O212  1  0.49612607  0.12674418  0.74590334  1
  O  O213  1  0.49193813  0.62419368  0.24080154  1
  O  O214  1  0.49238818  0.63947580  0.75316135  1
  O  O215  1  0.98516123  0.12409294  0.24450794  1
  O  O216  1  0.98527664  0.12388500  0.74952440  1
  O  O217  1  0.99019317  0.62745584  0.24095186  1
  O  O218  1  0.99136865  0.63217285  0.74877170  1
  O  O219  1  0.35830234  0.25097605  -0.01393816  1
  O  O220  1  0.36345789  0.25529548  0.50737303  1
  O  O221  1  0.36210048  0.75616793  -0.00460412  1
  O  O222  1  0.37345879  0.76575108  0.49076947  1
  O  O223  1  0.86567009  0.25881652  -0.00295130  1
  O  O224  1  0.85942751  0.24585430  0.50878090  1
  O  O225  1  0.86962237  0.75998575  0.00523812  1
  O  O226  1  0.88098400  0.76097390  0.50899927  1
  O  O227  1  0.13375508  0.24067035  0.50974350  1
  O  O228  1  0.13446563  0.24870455  0.98829638  1
  O  O229  1  0.12059302  0.74132049  0.49388428  1
  O  O230  1  0.13271873  0.74259600  0.99474992  1
  O  O231  1  0.63512753  0.24674689  0.48970362  1
  O  O232  1  0.63891853  0.24660919  0.99094361  1
  O  O233  1  0.62223319  0.74208797  0.48527879  1
  O  O234  1  0.63918740  0.75668005  1.00231371  1
  O  O235  1  0.50122775  0.23843592  0.11363000  1
  O  O236  1  0.49297663  0.24292817  0.63087340  1
  O  O237  1  0.49865415  0.73607941  0.12476436  1
  O  O238  1  0.49783090  0.75231250  0.63352023  1
  O  O239  1  1.00865462  0.23705223  0.11597494  1
  O  O240  1  0.97931647  0.24802925  0.61288951  1
  O  O241  1  0.99518700  0.73988301  0.12568973  1
  O  O242  1  0.98848803  0.74953877  0.63199299  1
  O  O243  1  -0.00804924  0.26719085  0.38239573  1
  O  O244  1  0.00886022  0.25756469  0.87530895  1
  O  O245  1  0.01029132  0.75726184  0.37296854  1
  O  O246  1  0.00592372  0.75142670  0.86874967  1
  O  O247  1  0.51411242  0.24580991  0.38267730  1
  O  O248  1  0.51079275  0.25465092  0.87261496  1
  O  O249  1  0.51067669  0.75911147  0.36811352  1
  O  O250  1  0.49861344  0.76104116  0.87663203  1
  O  O251  1  0.24313916  0.13289942  0.49425641  1
  O  O252  1  0.24509233  0.13541141  0.99732398  1
  O  O253  1  0.23747168  0.62849071  0.49826846  1
  O  O254  1  0.24240022  0.63473815  0.99312553  1
  O  O255  1  0.74788995  0.13024330  0.48730916  1
  O  O256  1  0.75121740  0.13683871  0.99353431  1
  O  O257  1  0.74176490  0.62329925  0.48520360  1
  O  O258  1  0.75749106  0.63558238  0.98927020  1
  O  O259  1  0.24913817  0.36160919  -0.01355835  1
  O  O260  1  0.25639800  0.36450322  0.49299496  1
  O  O261  1  0.25328838  0.86749729  0.00378755  1
  O  O262  1  0.26527853  0.87843761  0.49486866  1
  O  O263  1  0.76117696  0.36117111  -0.00717669  1
  O  O264  1  0.74911039  0.36257094  0.49018519  1
  O  O265  1  0.75672480  0.86837817  0.00492671  1
  O  O266  1  0.75915403  0.87724434  0.50904252  1
  O  O267  1  0.13065675  0.49748826  0.24431317  1
  O  O268  1  0.11529728  0.50514082  0.73532772  1
  O  O269  1  0.12844670  0.99664294  0.24208098  1
  O  O270  1  0.13098955  0.99273714  0.74385102  1
  O  O271  1  0.62712137  0.48705342  0.25634335  1
  O  O272  1  0.64088331  0.49939060  0.74761217  1
  O  O273  1  0.62348732  0.98737666  0.25289307  1
  O  O274  1  0.62268877  0.98474027  0.74313573  1
  O  O275  1  0.36706963  0.01019638  0.25588265  1
  O  O276  1  0.36816635  -0.00106849  0.75344439  1
  O  O277  1  0.36577005  0.50604643  0.25924329  1
  O  O278  1  0.38939644  0.51635025  0.76323780  1
  O  O279  1  0.87449628  0.00034317  0.26046225  1
  O  O280  1  0.87357434  0.01273919  0.74547984  1
  O  O281  1  0.87710480  0.51127120  0.25880556  1
  O  O282  1  0.86672840  0.50526474  0.75671130  1
  O  O283  1  0.11128961  0.38000217  0.36661901  1
  O  O284  1  0.10750717  0.36300776  0.87704120  1
  O  O285  1  0.11991653  0.87100751  0.37203617  1
  O  O286  1  0.12299248  0.86846854  0.86298484  1
  O  O287  1  0.61919712  0.36259274  0.37556950  1
  O  O288  1  0.62096102  0.36356770  0.87137106  1
  O  O289  1  0.62306216  0.87031929  0.36956656  1
  O  O290  1  0.61645247  0.87978844  0.86448396  1
  O  O291  1  0.38251342  0.12178862  0.13460531  1
  O  O292  1  0.37929999  0.12893942  0.63102612  1
  O  O293  1  0.38772654  0.61295607  0.13606791  1
  O  O294  1  0.36639138  0.61767821  0.64276360  1
  O  O295  1  0.87923273  0.12395290  0.14098490  1
  O  O296  1  0.87436381  0.12740433  0.63422074  1
  O  O297  1  0.88272220  0.62837877  0.12857740  1
  O  O298  1  0.87334775  0.63600063  0.62931297  1
  O  O299  1  0.24423245  0.25530433  0.10655824  1
  O  O300  1  0.25430583  0.25550043  0.62020656  1
  O  O301  1  0.24210230  0.75787355  0.11429056  1
  O  O302  1  0.24158415  0.75956817  0.63121415  1
  O  O303  1  0.74701156  0.24818068  0.11001099  1
  O  O304  1  0.75462796  0.24618727  0.60987081  1
  O  O305  1  0.75620327  0.75731322  0.11543483  1
  O  O306  1  0.76174869  0.76230936  0.63204867  1
  O  O307  1  0.25133682  0.23929401  0.38695657  1
  O  O308  1  0.23513633  0.24500645  0.87998579  1
  O  O309  1  0.23523435  0.75210639  0.38102468  1
  O  O310  1  0.24447342  0.74190990  0.88354532  1
  O  O311  1  0.74387296  0.24204367  0.38606609  1
  O  O312  1  0.74350262  0.24093496  0.87760121  1
  O  O313  1  0.74068096  0.74164342  0.36919896  1
  O  O314  1  0.75523683  0.73906427  0.88238546  1
  O  O315  1  -0.00422401  0.11626563  0.01002443  1
  O  O316  1  0.01165976  0.12439046  0.49664555  1
  O  O317  1  0.01022867  0.63136652  0.00848214  1
  O  O318  1  0.00845190  0.61628576  0.50122783  1
  O  O319  1  0.50596411  0.12038268  0.00571320  1
  O  O320  1  0.49973836  0.11817288  0.50783544  1
  O  O321  1  0.49949466  0.61933119  0.01383400  1
  O  O322  1  0.51574523  0.62851275  0.49341504  1
  O  O323  1  0.47876163  0.37079012  0.49792284  1
  O  O324  1  0.50460441  0.38198059  0.98930179  1
  O  O325  1  0.49143045  0.88105463  0.49145909  1
  O  O326  1  0.49591221  0.87908037  0.99608065  1
  O  O327  1  1.00686956  0.38783719  0.48457101  1
  O  O328  1  0.98503819  0.36872245  0.98959387  1
  O  O329  1  0.98906151  0.87841205  0.49340000  1
  O  O330  1  0.99127248  0.88196008  1.00034891  1
  O  O331  1  0.48486734  0.49967348  0.38216395  1
  O  O332  1  0.50191156  0.49345571  0.87714077  1
  O  O333  1  0.49480671  0.99769499  0.38028935  1
  O  O334  1  0.49503679  0.98866988  0.88111987  1
  O  O335  1  0.99238732  0.49860284  0.38129999  1
  O  O336  1  0.98997612  0.48594145  0.87018912  1
  O  O337  1  0.98907194  0.99393974  0.37669463  1
  O  O338  1  1.00706354  0.99971151  0.89105126  1
  O  O339  1  0.00727374  0.00573969  0.11806134  1
  O  O340  1  0.01317522  0.00606516  0.62183474  1
  O  O341  1  0.01111265  0.51287030  0.13051408  1
  O  O342  1  0.00505660  0.49901350  0.61419204  1
  O  O343  1  0.50397286  0.01092269  0.11668339  1
  O  O344  1  0.50489782  0.00352293  0.62109053  1
  O  O345  1  0.50976036  0.50820359  0.11407664  1
  O  O346  1  0.50709585  0.50330317  0.62307965  1
  O  O347  1  0.24015635  0.38640197  0.25166161  1
  O  O348  1  0.25197944  0.38263323  0.77613943  1
  O  O349  1  0.24470044  0.88260754  0.24557931  1
  O  O350  1  0.24146546  0.88347267  0.75575762  1
  O  O351  1  0.73177706  0.37558209  0.26082729  1
  O  O352  1  0.75218259  0.39019108  0.75920274  1
  O  O353  1  0.74206755  0.86891887  0.23737773  1
  O  O354  1  0.74105136  0.87482218  0.74414436  1
  O  O355  1  0.25428314  0.12292361  0.25553058  1
  O  O356  1  0.25690267  0.11186820  0.75308782  1
  O  O357  1  0.25573644  0.61711440  0.25245405  1
  O  O358  1  0.26481213  0.63290919  0.76472795  1
  O  O359  1  0.76373458  0.13258567  0.26004290  1
  O  O360  1  0.75756931  0.11836836  0.75700530  1
  O  O361  1  0.76241665  0.62738538  0.25772871  1
  O  O362  1  0.75601107  0.61895870  0.75906453  1
  O  O363  1  0.36544863  0.12210633  0.36829688  1
  O  O364  1  0.37686036  0.11421398  0.86693807  1
  O  O365  1  0.37355565  0.61676837  0.36857927  1
  O  O366  1  0.37104641  0.62032429  0.87079985  1
  O  O367  1  0.87092823  0.11909993  0.36458091  1
  O  O368  1  0.86732818  0.13670990  0.85856059  1
  O  O369  1  0.87113992  0.62257415  0.36826181  1
  O  O370  1  0.87358178  0.61422640  0.87073115  1
  O  O371  1  0.12366030  0.38706678  0.13161586  1
  O  O372  1  0.12379002  0.38738365  0.62348006  1
  O  O373  1  0.12950050  0.88317336  0.12978127  1
  O  O374  1  0.11843692  0.88460956  0.63451715  1
  O  O375  1  0.62243151  0.37543850  0.13956375  1
  O  O376  1  0.62898984  0.37341597  0.62318562  1
  O  O377  1  0.63233635  0.87714674  0.13328790  1
  O  O378  1  0.63136825  0.87593714  0.63028148  1
  O  O379  1  0.13351835  0.26468323  0.24442611  1
  O  O380  1  0.12795716  0.24358315  0.76078759  1
  O  O381  1  0.12518754  0.75644960  0.25992105  1
  O  O382  1  0.11904493  0.75440293  0.75487829  1
  O  O383  1  0.62955518  0.25953883  0.26546651  1
  O  O384  1  0.62240773  0.24584971  0.75875279  1
  O  O385  1  0.62198782  0.76236701  0.25834542  1
  O  O386  1  0.61151471  0.75833617  0.74443036  1
  O  O387  1  0.36619376  0.24056048  0.25454885  1
  O  O388  1  0.38281086  0.24049216  0.74743502  1
  O  O389  1  0.37305573  0.73527905  0.25800250  1
  O  O390  1  0.38823202  0.74021485  0.75338396  1
  O  O391  1  0.87567648  0.24293845  0.25528167  1
  O  O392  1  0.86317758  0.23765357  0.73160961  1
  O  O393  1  0.87750723  0.74123852  0.24206662  1
  O  O394  1  0.87964294  0.74739119  0.74210488  1
  O  O395  1  0.36807452  0.49303656  0.49374572  1
  O  O396  1  0.39588702  0.50313531  0.98271462  1
  O  O397  1  0.37912974  0.99375185  0.49326496  1
  O  O398  1  0.38030026  0.99416977  0.99415809  1
  O  O399  1  0.88465696  0.50930425  0.48931786  1
  O  O400  1  0.86624945  0.48412687  0.98735872  1
  O  O401  1  0.87517885  0.98966260  0.49087431  1
  O  O402  1  0.88394445  0.99021099  1.00781586  1
  O  O403  1  0.11729535  -0.00069219  0.01004279  1
  O  O404  1  0.12741273  0.00911700  0.50780467  1
  O  O405  1  0.13180888  0.51567008  0.01162214  1
  O  O406  1  0.11680831  0.50811641  0.50362632  1
  O  O407  1  0.61843302  0.00849158  0.00152165  1
  O  O408  1  0.61709283  0.00005312  0.50686905  1
  O  O409  1  0.61854705  0.49470156  -0.00515183  1
  O  O410  1  0.62502756  0.51674489  0.49595426  1
  O  O411  1  0.36361381  0.40923786  0.11118617  1
  O  O412  1  0.36651369  0.37064195  0.62089688  1
  O  O413  1  0.36554222  0.88447683  0.11802570  1
  O  O414  1  0.38033196  0.87910644  0.60771796  1
  O  O415  1  0.88383528  0.38209254  0.11020496  1
  O  O416  1  0.87223107  0.36210032  0.62989362  1
  O  O417  1  0.86771330  0.87015813  0.11795906  1
  O  O418  1  0.86913625  0.87108097  0.61838907  1
  O  O419  1  0.13459084  0.11798617  0.38339622  1
  O  O420  1  0.12040399  0.13687759  0.87735938  1
  O  O421  1  0.12384864  0.63324650  0.38240493  1
  O  O422  1  0.13223284  0.62679087  0.88137623  1
  O  O423  1  0.63273278  0.13543849  0.37109111  1
  O  O424  1  0.63211678  0.13251306  0.88066534  1
  O  O425  1  0.63247329  0.63281528  0.37613696  1
  O  O426  1  0.63808140  0.62051813  0.87017030  1
