# generated using pymatgen
data_V85Zn86O256
_symmetry_space_group_name_H-M   'P 1'
_cell_length_a   16.98794242
_cell_length_b   16.96747738
_cell_length_c   16.96740098
_cell_angle_alpha   89.82448728
_cell_angle_beta   90.10426262
_cell_angle_gamma   89.95166760
_symmetry_Int_Tables_number   1
_chemical_formula_structural   V85Zn86O256
_chemical_formula_sum   'V85 Zn86 O256'
_cell_volume   4890.69375792
_cell_formula_units_Z   1
loop_
 _symmetry_equiv_pos_site_id
 _symmetry_equiv_pos_as_xyz
  1  'x, y, z'
loop_
 _atom_site_type_symbol
 _atom_site_label
 _atom_site_symmetry_multiplicity
 _atom_site_fract_x
 _atom_site_fract_y
 _atom_site_fract_z
 _atom_site_occupancy
  V  V0  1  0.12502552  0.25293181  0.36017631  1
  V  V1  1  0.37421463  0.75026149  0.12568241  1
  V  V2  1  0.37543708  0.49414893  0.88551755  1
  V  V3  1  0.37341003  0.62321926  0.25283992  1
  V  V4  1  0.12481410  0.49354929  0.62925840  1
  V  V5  1  0.49476510  0.62222141  0.62707494  1
  V  V6  1  0.62435151  0.11939101  0.50895384  1
  V  V7  1  0.24819212  0.37298748  0.10884735  1
  V  V8  1  0.24008749  0.62665796  0.37387930  1
  V  V9  1  0.49487293  0.25011690  0.74256780  1
  V  V10  1  0.24482253  0.48927653  0.25116926  1
  V  V11  1  0.37173169  0.12967707  0.74319782  1
  V  V12  1  0.62714914  0.88093748  0.25066760  1
  V  V13  1  0.00277939  0.37531152  0.87214765  1
  V  V14  1  0.00212566  0.49635954  0.50035593  1
  V  V15  1  -0.00523110  0.12603555  0.62480117  1
  V  V16  1  0.00105986  0.62703536  0.62914891  1
  V  V17  1  0.00769346  0.62504007  0.11970773  1
  V  V18  1  0.75155233  0.62607083  0.87829982  1
  V  V19  1  0.50555748  0.00388816  0.00278796  1
  V  V20  1  0.87293018  0.62355054  0.24948535  1
  V  V21  1  0.74906971  0.26133626  0.50306666  1
  V  V22  1  0.00766901  0.74907337  0.25680374  1
  V  V23  1  0.00644861  0.50427882  -0.00167295  1
  V  V24  1  0.37413062  0.62368244  0.75242646  1
  V  V25  1  0.49970368  0.87407724  0.87545254  1
  V  V26  1  0.62451004  0.36659379  0.75508214  1
  V  V27  1  0.75080147  0.88283802  0.12565451  1
  V  V28  1  0.62407155  0.62418353  0.50034513  1
  V  V29  1  0.12615745  0.87628401  0.24867641  1
  V  V30  1  0.75124102  0.62341727  0.37444692  1
  V  V31  1  0.50026248  0.75117099  0.25093659  1
  V  V32  1  0.87391802  0.50037438  0.87313838  1
  V  V33  1  0.87345673  0.49650895  0.37000676  1
  V  V34  1  0.51073933  0.49951750  0.00055601  1
  V  V35  1  0.37636664  0.25834059  0.10852308  1
  V  V36  1  0.73974235  0.11606407  0.87990856  1
  V  V37  1  0.00234722  0.25412886  0.74960216  1
  V  V38  1  0.87252188  0.86655612  0.51020289  1
  V  V39  1  0.24115782  0.74925506  0.49516520  1
  V  V40  1  0.37782146  0.13197031  0.25189710  1
  V  V41  1  0.25303426  0.36848672  0.62650655  1
  V  V42  1  0.73450810  0.25026211  -0.00380386  1
  V  V43  1  0.74818434  0.74749545  0.00178962  1
  V  V44  1  0.82417013  0.67864284  0.69187896  1
  V  V45  1  0.24599725  0.74314422  0.00306120  1
  V  V46  1  0.12421199  0.87428910  0.74891675  1
  V  V47  1  0.01866558  0.00504131  0.00568635  1
  V  V48  1  0.24788611  0.00027006  0.24306066  1
  V  V49  1  0.87607692  0.75041582  0.12549410  1
  V  V50  1  0.87548354  0.88482431  -0.00215716  1
  V  V51  1  0.87019660  0.25832982  0.62672775  1
  V  V52  1  0.50700101  0.62471644  0.12147008  1
  V  V53  1  0.24768662  0.00067017  0.75142585  1
  V  V54  1  0.37637081  0.00023655  0.37717191  1
  V  V55  1  0.12335478  0.12730206  0.49890780  1
  V  V56  1  0.12621209  0.24605738  0.88429460  1
  V  V57  1  0.24685657  0.49405312  0.75184617  1
  V  V58  1  0.37414248  0.87276979  0.00178096  1
  V  V59  1  0.01682771  0.13434711  0.12522788  1
  V  V60  1  0.00705266  0.37229805  0.36109143  1
  V  V61  1  0.37225393  0.87418340  0.49987766  1
  V  V62  1  0.37650788  0.36407453  0.50658201  1
  V  V63  1  0.50029088  0.36736441  0.87969670  1
  V  V64  1  0.50334687  0.37507557  0.37107191  1
  V  V65  1  0.49825206  0.49825095  0.50142621  1
  V  V66  1  0.62745197  0.75089419  0.37809910  1
  V  V67  1  0.62798193  0.88371305  0.74173466  1
  V  V68  1  0.62575177  0.25290784  0.37025117  1
  V  V69  1  0.75672279  0.11966486  0.37391114  1
  V  V70  1  0.12226529  0.74316379  0.88081956  1
  V  V71  1  0.24729900  0.62210627  0.87893432  1
  V  V72  1  0.63291493  0.49534931  0.13928546  1
  V  V73  1  0.50021904  0.87636742  0.37643653  1
  V  V74  1  -0.00902998  0.00208002  0.49227063  1
  V  V75  1  -0.00512986  0.87817046  0.37144680  1
  V  V76  1  0.24959966  0.12649420  0.37533036  1
  V  V77  1  0.50464532  0.12573377  0.12346489  1
  V  V78  1  0.37364918  0.00355800  0.87619139  1
  V  V79  1  -0.00180725  0.74749725  0.74860463  1
  V  V80  1  0.75184116  0.48826867  0.74722005  1
  V  V81  1  0.62625036  0.49129879  0.62541303  1
  V  V82  1  -0.00504054  0.88216744  0.87476702  1
  V  V83  1  0.37066211  0.74783185  0.62584109  1
  V  V84  1  0.62253040  0.74624865  0.88121490  1
  Zn  Zn85  1  0.50362810  -0.00512951  0.50967308  1
  Zn  Zn86  1  0.77036450  -0.00913142  0.26865626  1
  Zn  Zn87  1  0.75668971  -0.00054984  0.73768633  1
  Zn  Zn88  1  0.23821870  0.12688338  0.88910520  1
  Zn  Zn89  1  0.75139997  0.36707863  0.14145361  1
  Zn  Zn90  1  0.87849616  0.11075401  0.77090415  1
  Zn  Zn91  1  0.12320848  0.00081212  0.62284282  1
  Zn  Zn92  1  0.24721118  0.87303668  0.62296970  1
  Zn  Zn93  1  0.12423960  0.49420368  0.12486925  1
  Zn  Zn94  1  0.87153970  0.37556418  0.49999447  1
  Zn  Zn95  1  0.63180005  0.00998173  0.12396935  1
  Zn  Zn96  1  0.49546267  0.75029196  0.75201231  1
  Zn  Zn97  1  0.24368808  0.87942281  0.12144528  1
  Zn  Zn98  1  0.25159500  0.24674985  0.50555092  1
  Zn  Zn99  1  0.88824446  0.12120027  0.24507853  1
  Zn  Zn100  1  0.50103662  0.11898817  0.62799407  1
  Zn  Zn101  1  0.75309568  0.75064563  0.51203938  1
  Zn  Zn102  1  0.12155189  0.62827845  0.49723235  1
  Zn  Zn103  1  0.87128099  0.37209199  0.00520925  1
  Zn  Zn104  1  0.87654774  0.24934591  0.12831230  1
  Zn  Zn105  1  0.37242783  0.49675026  0.37709027  1
  Zn  Zn106  1  0.50378559  0.25769039  0.24766266  1
  Zn  Zn107  1  0.19264847  0.18799031  0.17726552  1
  Zn  Zn108  1  0.18360503  0.18620879  0.69436143  1
  Zn  Zn109  1  0.18656812  0.68715557  0.18882418  1
  Zn  Zn110  1  0.18583720  0.68418964  0.68793553  1
  Zn  Zn111  1  0.69332026  0.19057532  0.19022154  1
  Zn  Zn112  1  0.69314863  0.18327971  0.69247183  1
  Zn  Zn113  1  0.68748519  0.68966934  0.18940113  1
  Zn  Zn114  1  0.66154067  0.68815517  0.69303696  1
  Zn  Zn115  1  0.31396494  0.31232811  0.31876406  1
  Zn  Zn116  1  0.31328713  0.31263477  0.81603282  1
  Zn  Zn117  1  0.31077531  0.81237882  0.31395043  1
  Zn  Zn118  1  0.31030715  0.81138674  0.81450675  1
  Zn  Zn119  1  0.82029642  0.30128907  0.30805346  1
  Zn  Zn120  1  0.81658755  0.30363793  0.81990524  1
  Zn  Zn121  1  0.81647618  0.80947114  0.31605478  1
  Zn  Zn122  1  0.80909540  0.82198689  0.81498172  1
  Zn  Zn123  1  0.18825782  0.43791783  0.43951166  1
  Zn  Zn124  1  0.18322675  0.43243944  0.93530341  1
  Zn  Zn125  1  0.18362195  0.93770317  0.43114361  1
  Zn  Zn126  1  0.18885904  0.93058044  0.93457467  1
  Zn  Zn127  1  0.68766785  0.43360646  0.31781176  1
  Zn  Zn128  1  0.68608975  0.43400894  0.93987729  1
  Zn  Zn129  1  0.69041933  0.93741886  0.44740094  1
  Zn  Zn130  1  0.68572750  0.93681255  0.93594903  1
  Zn  Zn131  1  0.31254229  0.06613605  0.06137561  1
  Zn  Zn132  1  0.31089386  0.05887344  0.56414396  1
  Zn  Zn133  1  0.31522746  0.56020350  0.06571536  1
  Zn  Zn134  1  0.31015811  0.56119567  0.56183162  1
  Zn  Zn135  1  0.82316245  0.07633447  0.05260250  1
  Zn  Zn136  1  0.81084686  0.06305211  0.56216941  1
  Zn  Zn137  1  0.81559189  0.56093788  0.06150307  1
  Zn  Zn138  1  0.80708362  0.55163862  0.55460779  1
  Zn  Zn139  1  0.43557698  0.44022198  0.18504931  1
  Zn  Zn140  1  0.43444112  0.43638727  0.69203422  1
  Zn  Zn141  1  0.43485720  0.93987412  0.18848302  1
  Zn  Zn142  1  0.43634398  0.93718170  0.68560288  1
  Zn  Zn143  1  0.93453279  0.43604448  0.18399158  1
  Zn  Zn144  1  0.93593132  0.43712962  0.68905990  1
  Zn  Zn145  1  0.93945977  0.94509092  0.18395175  1
  Zn  Zn146  1  0.93509996  0.94132807  0.68387139  1
  Zn  Zn147  1  0.06503716  0.06143239  0.31001924  1
  Zn  Zn148  1  0.05897780  0.06478944  0.81327818  1
  Zn  Zn149  1  0.06241188  0.55884375  0.30752767  1
  Zn  Zn150  1  0.06160198  0.56198733  0.81019202  1
  Zn  Zn151  1  0.56468093  0.06499961  0.31742031  1
  Zn  Zn152  1  0.56281595  0.06710974  0.81333623  1
  Zn  Zn153  1  0.55857998  0.56539507  0.31507312  1
  Zn  Zn154  1  0.56331594  0.55902283  0.81320571  1
  Zn  Zn155  1  0.44106696  0.18761843  0.43875429  1
  Zn  Zn156  1  0.43739740  0.18478639  0.93512341  1
  Zn  Zn157  1  0.43370853  0.68893706  0.43823035  1
  Zn  Zn158  1  0.43428581  0.68334886  0.94043725  1
  Zn  Zn159  1  0.93628537  0.19378295  0.43654254  1
  Zn  Zn160  1  0.92881992  0.18722069  0.94456301  1
  Zn  Zn161  1  0.93894097  0.68743670  0.43839422  1
  Zn  Zn162  1  0.93329146  0.68927238  0.93684571  1
  Zn  Zn163  1  0.06196909  0.31620218  0.05951830  1
  Zn  Zn164  1  0.06320488  0.31164159  0.56132318  1
  Zn  Zn165  1  0.06156127  0.81495407  0.06544691  1
  Zn  Zn166  1  0.05837663  0.81362222  0.56138408  1
  Zn  Zn167  1  0.56339322  0.31691396  0.06566126  1
  Zn  Zn168  1  0.56523795  0.30948149  0.56177315  1
  Zn  Zn169  1  0.56301906  0.81467403  0.06435691  1
  Zn  Zn170  1  0.55818187  0.80914616  0.56264621  1
  O  O171  1  0.11808409  0.12928253  0.11693074  1
  O  O172  1  0.11329616  0.12740479  0.61646011  1
  O  O173  1  0.11039452  0.62345305  0.12834240  1
  O  O174  1  0.11657731  0.61272253  0.62359043  1
  O  O175  1  0.60786159  0.12558323  0.13690058  1
  O  O176  1  0.62534993  0.13537470  0.61070808  1
  O  O177  1  0.61263005  0.61774686  0.13615387  1
  O  O178  1  0.61499010  0.61381935  0.62175624  1
  O  O179  1  0.38321800  0.37722778  0.38963296  1
  O  O180  1  0.38526478  0.38657945  0.87036286  1
  O  O181  1  0.38082586  0.87921321  0.37890624  1
  O  O182  1  0.38178380  0.88147252  0.87909117  1
  O  O183  1  0.89098559  0.38244194  0.37595736  1
  O  O184  1  0.88328249  0.38593485  0.87667905  1
  O  O185  1  0.88881001  0.87289435  0.38165180  1
  O  O186  1  0.88656275  0.86519135  0.88555159  1
  O  O187  1  0.25629219  0.00719230  0.36586303  1
  O  O188  1  0.25859149  -0.00273722  0.86806440  1
  O  O189  1  0.25242587  0.50732307  0.36862066  1
  O  O190  1  0.25490732  0.50032060  0.87127738  1
  O  O191  1  0.74505919  0.01536339  0.38188123  1
  O  O192  1  0.74613577  0.01178564  0.87875104  1
  O  O193  1  0.76148725  0.51244666  0.37367568  1
  O  O194  1  0.75303372  0.50801524  0.86723874  1
  O  O195  1  0.25306364  0.48702297  0.13029780  1
  O  O196  1  0.24295519  0.49442668  0.63247717  1
  O  O197  1  0.26382227  0.99767735  0.13878410  1
  O  O198  1  0.24415610  0.99630686  0.63951271  1
  O  O199  1  0.73242807  0.50799844  0.12063180  1
  O  O200  1  0.73980562  0.50395952  0.63553896  1
  O  O201  1  0.75004583  0.98678178  0.11824684  1
  O  O202  1  0.74187400  1.00889284  0.62653701  1
  O  O203  1  0.00506721  0.38521201  0.26328906  1
  O  O204  1  -0.00687295  0.36772680  0.76072823  1
  O  O205  1  0.00462148  0.86848157  0.25293279  1
  O  O206  1  0.00561418  0.86881691  0.75670393  1
  O  O207  1  0.48851160  0.37719445  0.26717685  1
  O  O208  1  0.50417056  0.36904048  0.75797887  1
  O  O209  1  0.50763644  0.87080480  0.25470887  1
  O  O210  1  0.50224517  0.87301322  0.76433501  1
  O  O211  1  0.48959729  0.12342996  0.24440977  1
  O  O212  1  0.49148180  0.13422238  0.75017527  1
  O  O213  1  0.49069026  0.63045287  0.24534030  1
  O  O214  1  0.49298025  0.62435784  0.74621383  1
  O  O215  1  1.00989569  0.11773557  0.22944077  1
  O  O216  1  0.99606620  0.13133731  0.73975928  1
  O  O217  1  0.99331314  0.63149372  0.24372095  1
  O  O218  1  0.99965428  0.62928615  0.73916054  1
  O  O219  1  0.38465018  0.25560746  0.01092319  1
  O  O220  1  0.37408070  0.26004411  0.50126639  1
  O  O221  1  0.36581028  0.75295199  0.00488366  1
  O  O222  1  0.36380794  0.75415786  0.50526695  1
  O  O223  1  0.86234697  0.25425783  0.00725489  1
  O  O224  1  0.86761397  0.25353903  0.50774358  1
  O  O225  1  0.86649119  0.75887070  0.00546341  1
  O  O226  1  0.87565282  0.76102067  0.49802534  1
  O  O227  1  0.12406791  0.23798555  0.49318480  1
  O  O228  1  0.12145715  0.25369275  0.98273884  1
  O  O229  1  0.13668512  0.74814243  0.50493592  1
  O  O230  1  0.13285073  0.75777243  0.99081471  1
  O  O231  1  0.63099664  0.24353797  0.49303262  1
  O  O232  1  0.63400351  0.25355950  1.00418372  1
  O  O233  1  0.62944912  0.74281539  0.49728014  1
  O  O234  1  0.63508943  0.75693819  0.99165519  1
  O  O235  1  0.49074094  0.24749596  0.12890015  1
  O  O236  1  0.49902839  0.24984221  0.63931581  1
  O  O237  1  0.49665215  0.74285003  0.12986219  1
  O  O238  1  0.48926535  0.73928961  0.62743436  1
  O  O239  1  1.00304595  0.23696091  0.11442667  1
  O  O240  1  0.99397744  0.24621528  0.63000768  1
  O  O241  1  0.99456325  0.74317900  0.13131468  1
  O  O242  1  1.00534042  0.73564810  0.62991650  1
  O  O243  1  0.00720929  0.26585122  0.37810494  1
  O  O244  1  0.00301606  0.25705604  0.86946681  1
  O  O245  1  -0.00313718  0.75630334  0.36322919  1
  O  O246  1  0.00536485  0.75500229  0.87065285  1
  O  O247  1  0.50832972  0.25922706  0.37636224  1
  O  O248  1  0.49444554  0.26164494  0.86748778  1
  O  O249  1  0.50637213  0.75452715  0.37058671  1
  O  O250  1  0.50525699  0.75599815  0.88138516  1
  O  O251  1  0.24000603  0.12420218  0.49613229  1
  O  O252  1  0.27586829  0.13856892  0.99085405  1
  O  O253  1  0.24933620  0.63038264  0.49058883  1
  O  O254  1  0.25500252  0.63540685  0.99677670  1
  O  O255  1  0.73899003  0.13282317  0.49185535  1
  O  O256  1  0.74575078  0.13482540  0.99290600  1
  O  O257  1  0.74418223  0.62579095  0.49087739  1
  O  O258  1  0.75561660  0.63842387  0.99270473  1
  O  O259  1  0.25547484  0.38147230  0.01019004  1
  O  O260  1  0.25969683  0.37551219  0.50904351  1
  O  O261  1  0.25595916  0.86245245  0.00096537  1
  O  O262  1  0.25203415  0.86671672  0.49757984  1
  O  O263  1  0.74904060  0.36409689  0.00216693  1
  O  O264  1  0.74965202  0.36071823  0.49671025  1
  O  O265  1  0.75628293  0.86703547  0.00518744  1
  O  O266  1  0.76737744  0.87086252  0.49743258  1
  O  O267  1  0.13965432  0.50436056  0.24333219  1
  O  O268  1  0.13568789  0.50343072  0.74260731  1
  O  O269  1  0.13999742  0.99225257  0.25417341  1
  O  O270  1  0.13115363  0.99104275  0.75461634  1
  O  O271  1  0.62487467  0.50296872  0.24480612  1
  O  O272  1  0.63241930  0.49293929  0.74365410  1
  O  O273  1  0.62654584  0.98674196  0.24976877  1
  O  O274  1  0.61762595  0.98436574  0.75444217  1
  O  O275  1  0.36959372  0.00944177  0.25777796  1
  O  O276  1  0.36524988  0.00382277  0.75832769  1
  O  O277  1  0.36724745  0.51139052  0.25000826  1
  O  O278  1  0.36661871  0.50532415  0.76106180  1
  O  O279  1  0.87821848  0.00803671  0.25070437  1
  O  O280  1  0.87112692  -0.00202913  0.75132545  1
  O  O281  1  0.88634386  0.51287903  0.26081142  1
  O  O282  1  0.86373062  0.49553503  0.75982599  1
  O  O283  1  0.11472783  0.36894014  0.38116199  1
  O  O284  1  0.10983298  0.36792680  0.87453086  1
  O  O285  1  0.11094983  0.87750386  0.36146046  1
  O  O286  1  0.11594936  0.86355298  0.86635256  1
  O  O287  1  0.61375664  0.36735631  0.37917770  1
  O  O288  1  0.61170879  0.38525125  0.86352646  1
  O  O289  1  0.62240885  0.87090521  0.37036473  1
  O  O290  1  0.61467681  0.86613276  0.87198855  1
  O  O291  1  0.38313161  0.14043397  0.13351568  1
  O  O292  1  0.36955010  0.12290626  0.64045412  1
  O  O293  1  0.38347343  0.62914842  0.13514746  1
  O  O294  1  0.37615792  0.62694869  0.63207228  1
  O  O295  1  0.89684879  0.12485263  0.12103185  1
  O  O296  1  0.88939255  0.13626838  0.61591172  1
  O  O297  1  0.88187709  0.62855337  0.13334868  1
  O  O298  1  0.87976860  0.61981072  0.62767504  1
  O  O299  1  0.26594467  0.26264425  0.12721050  1
  O  O300  1  0.23884859  0.26503074  0.62770692  1
  O  O301  1  0.25482487  0.74897249  0.11740656  1
  O  O302  1  0.25343358  0.74799880  0.61616645  1
  O  O303  1  0.74896229  0.24908328  0.11302784  1
  O  O304  1  0.76238852  0.24181231  0.61787314  1
  O  O305  1  0.75367598  0.75783787  0.11875208  1
  O  O306  1  0.75723689  0.72964821  0.63368624  1
  O  O307  1  0.24177211  0.24471811  0.38135391  1
  O  O308  1  0.22767518  0.25622280  0.86271672  1
  O  O309  1  0.25503482  0.73883814  0.38357429  1
  O  O310  1  0.24186703  0.74401798  0.88336474  1
  O  O311  1  0.74217020  0.24105932  0.38438088  1
  O  O312  1  0.74690828  0.24646581  0.88935377  1
  O  O313  1  0.74609145  0.73806978  0.37733523  1
  O  O314  1  0.74387935  0.74516776  0.88261781  1
  O  O315  1  0.00104040  0.10832643  0.00102175  1
  O  O316  1  0.00509017  0.12058079  0.50157879  1
  O  O317  1  -0.01015316  0.61809555  0.00915062  1
  O  O318  1  -0.00096227  0.61458231  0.50863863  1
  O  O319  1  0.49187369  0.11478696  0.01049867  1
  O  O320  1  0.51416744  0.12693064  0.50263407  1
  O  O321  1  0.49539473  0.61718297  0.01373876  1
  O  O322  1  0.50162987  0.61737614  0.50463183  1
  O  O323  1  0.49435030  0.38045244  0.49683378  1
  O  O324  1  0.50573339  0.38563889  0.98987166  1
  O  O325  1  0.49153413  0.87275657  0.49275980  1
  O  O326  1  0.49404208  0.87984071  0.99329403  1
  O  O327  1  0.99985668  0.38804739  0.49636177  1
  O  O328  1  0.99582587  0.38771346  0.99043874  1
  O  O329  1  0.99545222  0.88145536  0.49120050  1
  O  O330  1  0.99484483  0.88128224  0.99424218  1
  O  O331  1  0.49992290  0.49381285  0.38632505  1
  O  O332  1  0.49401649  0.49596603  0.88255767  1
  O  O333  1  0.49372230  0.99373506  0.37967803  1
  O  O334  1  0.49276381  0.99283860  0.88254426  1
  O  O335  1  0.99698788  0.49309811  0.38169390  1
  O  O336  1  0.99292985  0.49748970  0.87718804  1
  O  O337  1  1.00444115  0.99358928  0.38344701  1
  O  O338  1  1.00522078  0.98695155  0.88349464  1
  O  O339  1  0.00690440  0.00150645  0.10873339  1
  O  O340  1  0.00332553  0.01055007  0.61368826  1
  O  O341  1  0.00042318  0.50732757  0.11555588  1
  O  O342  1  0.00480586  0.50529059  0.62135785  1
  O  O343  1  0.49652874  0.00891818  0.11847289  1
  O  O344  1  0.49351448  0.00558856  0.62123973  1
  O  O345  1  0.50851730  0.50538839  0.12053370  1
  O  O346  1  0.50464410  0.50248885  0.62165854  1
  O  O347  1  0.26043794  0.38654717  0.24792556  1
  O  O348  1  0.25863454  0.38828005  0.74190700  1
  O  O349  1  0.24363152  0.88162732  0.25106660  1
  O  O350  1  0.23973273  0.88163106  0.75291077  1
  O  O351  1  0.75708576  0.37598026  0.25546040  1
  O  O352  1  0.74078676  0.38260341  0.76069508  1
  O  O353  1  0.74543405  0.87384409  0.24381838  1
  O  O354  1  0.73164579  0.87849679  0.75782425  1
  O  O355  1  0.25928754  0.11967581  0.25306246  1
  O  O356  1  0.25347762  0.11618579  0.75854166  1
  O  O357  1  0.25709553  0.62021151  0.25512505  1
  O  O358  1  0.25377929  0.61381520  0.75767311  1
  O  O359  1  0.74210384  0.11998843  0.26899749  1
  O  O360  1  0.75393427  0.12373600  0.76590507  1
  O  O361  1  0.76408761  0.63322247  0.25803083  1
  O  O362  1  0.75623525  0.62217154  0.75204598  1
  O  O363  1  0.37066737  0.12218704  0.37031900  1
  O  O364  1  0.38044212  0.11116865  0.86364396  1
  O  O365  1  0.36803189  0.62284187  0.36493327  1
  O  O366  1  0.36768185  0.61489417  0.87241149  1
  O  O367  1  0.85804400  0.13075376  0.38061915  1
  O  O368  1  0.85591975  0.13004940  0.88074726  1
  O  O369  1  0.87135988  0.61818161  0.36939522  1
  O  O370  1  0.86191985  0.61726369  0.87494484  1
  O  O371  1  0.14434833  0.37209113  0.12094465  1
  O  O372  1  0.13323511  0.38774345  0.61873627  1
  O  O373  1  0.12628562  0.87153648  0.14154649  1
  O  O374  1  0.12260921  0.87612504  0.63897264  1
  O  O375  1  0.62472564  0.39289474  0.13000509  1
  O  O376  1  0.61813300  0.38548768  0.63604077  1
  O  O377  1  0.63423223  0.87371735  0.13514774  1
  O  O378  1  0.61593764  0.86317258  0.64403008  1
  O  O379  1  0.13400533  0.24616839  0.26200309  1
  O  O380  1  0.10613624  0.24888554  0.75367298  1
  O  O381  1  0.11456255  0.75627949  0.24806992  1
  O  O382  1  0.12082576  0.75608807  0.75868425  1
  O  O383  1  0.62191565  0.24555991  0.26579515  1
  O  O384  1  0.61689117  0.26198059  0.74521279  1
  O  O385  1  0.62070343  0.76025309  0.25690370  1
  O  O386  1  0.61706453  0.76063430  0.76642277  1
  O  O387  1  0.37773854  0.23948323  0.25165822  1
  O  O388  1  0.38117716  0.23978624  0.75857924  1
  O  O389  1  0.37957646  0.74222815  0.24625859  1
  O  O390  1  0.37258377  0.74179625  0.74666228  1
  O  O391  1  0.87756455  0.23341932  0.24361588  1
  O  O392  1  0.88416682  0.24749104  0.74165572  1
  O  O393  1  0.88533011  0.74215472  0.24540744  1
  O  O394  1  0.87529589  0.74713064  0.74925134  1
  O  O395  1  0.38703844  0.49352033  0.50241025  1
  O  O396  1  0.38622160  0.50458813  0.99098174  1
  O  O397  1  0.37086554  0.99201808  0.49227223  1
  O  O398  1  0.38305796  0.99196972  0.99193955  1
  O  O399  1  0.88307573  0.49763513  0.48815986  1
  O  O400  1  0.88106956  0.50008246  0.98658877  1
  O  O401  1  0.88661057  0.98947998  0.50272967  1
  O  O402  1  0.88274331  0.98599440  1.00213394  1
  O  O403  1  0.11763691  -0.00668070  -0.00419519  1
  O  O404  1  0.11701967  0.01183295  0.49880932  1
  O  O405  1  0.11049927  0.49948902  -0.00122030  1
  O  O406  1  0.11688105  0.50387650  0.50902902  1
  O  O407  1  0.60865842  -0.00971756  0.00571468  1
  O  O408  1  0.62397656  0.01584929  0.49812610  1
  O  O409  1  0.61491104  0.50267485  0.00856644  1
  O  O410  1  0.61053084  0.50568382  0.51214922  1
  O  O411  1  0.37125742  0.36348440  0.12765051  1
  O  O412  1  0.36503688  0.38106059  0.61823085  1
  O  O413  1  0.37479745  0.86636604  0.12026473  1
  O  O414  1  0.36965335  0.86578917  0.61932596  1
  O  O415  1  0.86867867  0.37333479  0.12237867  1
  O  O416  1  0.87941799  0.36372262  0.62150163  1
  O  O417  1  0.86812535  0.86955306  0.11797219  1
  O  O418  1  0.88735140  0.86939576  0.60890455  1
  O  O419  1  0.12840056  0.13300043  0.38087634  1
  O  O420  1  0.12150266  0.14047084  0.87078925  1
  O  O421  1  0.13626703  0.62040225  0.37487830  1
  O  O422  1  0.12872696  0.63670166  0.87015773  1
  O  O423  1  0.62950742  0.13461808  0.38631896  1
  O  O424  1  0.63768675  0.12734767  0.87219581  1
  O  O425  1  0.63251187  0.62934324  0.37916399  1
  O  O426  1  0.63884415  0.63400625  0.86594059  1
