# generated using pymatgen
data_V85Zn86O256
_symmetry_space_group_name_H-M   'P 1'
_cell_length_a   16.96838083
_cell_length_b   16.96640189
_cell_length_c   16.97161495
_cell_angle_alpha   89.97474227
_cell_angle_beta   89.98493506
_cell_angle_gamma   89.91016950
_symmetry_Int_Tables_number   1
_chemical_formula_structural   V85Zn86O256
_chemical_formula_sum   'V85 Zn86 O256'
_cell_volume   4885.99177769
_cell_formula_units_Z   1
loop_
 _symmetry_equiv_pos_site_id
 _symmetry_equiv_pos_as_xyz
  1  'x, y, z'
loop_
 _atom_site_type_symbol
 _atom_site_label
 _atom_site_symmetry_multiplicity
 _atom_site_fract_x
 _atom_site_fract_y
 _atom_site_fract_z
 _atom_site_occupancy
  V  V0  1  0.24956745  0.50962385  0.25593362  1
  V  V1  1  0.74694504  0.86101832  0.61961702  1
  V  V2  1  0.61702947  0.51206420  0.12304388  1
  V  V3  1  0.25360381  0.24580647  -0.00368204  1
  V  V4  1  0.37021139  0.74733892  0.62828858  1
  V  V5  1  0.13170454  0.24813983  0.37667596  1
  V  V6  1  0.74477365  -0.00147006  0.74234506  1
  V  V7  1  -0.00038586  -0.00036479  -0.00280899  1
  V  V8  1  0.50015671  0.00059494  -0.00034220  1
  V  V9  1  -0.00457168  0.24606025  0.74401500  1
  V  V10  1  0.74984975  0.62546755  0.38138670  1
  V  V11  1  0.37764649  0.88694543  0.49362852  1
  V  V12  1  0.75082756  0.49517907  0.74432529  1
  V  V13  1  0.87574417  0.87431279  -0.00225606  1
  V  V14  1  -0.00986999  0.75827106  0.74057673  1
  V  V15  1  0.49956526  0.87735720  0.87476182  1
  V  V16  1  0.38026121  0.25133874  0.13244585  1
  V  V17  1  0.75191625  0.87405504  0.12619144  1
  V  V18  1  0.74344400  0.37615090  0.13188239  1
  V  V19  1  0.87433813  0.62084395  0.25116154  1
  V  V20  1  0.13203303  0.62941202  -0.01085715  1
  V  V21  1  0.73926287  0.24809048  0.51012396  1
  V  V22  1  0.74618522  0.74415348  -0.00030615  1
  V  V23  1  0.12912878  0.12573473  -0.00070331  1
  V  V24  1  0.00641876  0.50009057  0.50584801  1
  V  V25  1  0.12945130  0.24545314  0.87323506  1
  V  V26  1  0.88047366  0.00153301  0.37810601  1
  V  V27  1  0.62246615  0.74458824  0.87863364  1
  V  V28  1  0.37632307  0.87771920  0.00104346  1
  V  V29  1  0.50115985  0.74195264  0.24975254  1
  V  V30  1  0.86883339  0.86169997  0.50273191  1
  V  V31  1  0.37312838  0.11813644  0.26030615  1
  V  V32  1  0.36621363  0.50339675  0.86255991  1
  V  V33  1  0.12718011  0.37514113  0.25037360  1
  V  V34  1  0.12746172  0.38370189  0.74654486  1
  V  V35  1  0.50306990  0.37664673  0.87329573  1
  V  V36  1  0.62665879  0.12327433  0.00044245  1
  V  V37  1  0.51012988  0.37504344  0.36613419  1
  V  V38  1  0.24474869  0.87747580  0.62709814  1
  V  V39  1  0.50414907  0.12549609  0.12840891  1
  V  V40  1  0.87361573  0.49502668  0.37582708  1
  V  V41  1  0.87353571  0.36498164  0.51514616  1
  V  V42  1  0.25187842  0.87528573  0.12578308  1
  V  V43  1  0.49446516  0.62264151  0.63030129  1
  V  V44  1  0.62427688  0.62472482  0.50302780  1
  V  V45  1  0.49182439  0.49216360  0.50087131  1
  V  V46  1  0.12591040  0.50095887  0.12477904  1
  V  V47  1  0.00075978  0.50050241  -0.00556322  1
  V  V48  1  0.12634309  -0.00283955  0.12306886  1
  V  V49  1  0.25455133  0.25376049  0.50433624  1
  V  V50  1  0.75230364  0.12091944  0.87259083  1
  V  V51  1  0.49507130  0.74822189  0.75058342  1
  V  V52  1  0.12771520  0.12445451  0.50110983  1
  V  V53  1  0.24570061  0.74676226  0.48443459  1
  V  V54  1  0.38019391  0.37995461  0.00105774  1
  V  V55  1  0.62564310  0.87340888  0.24813985  1
  V  V56  1  0.25276686  0.38796848  0.62708418  1
  V  V57  1  0.38124867  0.74475285  0.12458749  1
  V  V58  1  0.00681272  0.87294312  0.87111115  1
  V  V59  1  -0.01044447  0.62667394  0.62840055  1
  V  V60  1  0.00057441  0.74751247  0.25130886  1
  V  V61  1  0.00248729  0.12469088  0.12557466  1
  V  V62  1  0.12339336  0.62966564  0.49016772  1
  V  V63  1  -0.00010454  0.37384236  0.37513065  1
  V  V64  1  0.62520268  0.74785457  0.37865347  1
  V  V65  1  0.75222397  -0.00021744  0.25113244  1
  V  V66  1  0.87452672  0.74786848  0.12418986  1
  V  V67  1  0.75651630  0.25226359  -0.00048096  1
  V  V68  1  0.37012783  0.00898994  0.87595626  1
  V  V69  1  0.24641699  0.00605041  0.75132233  1
  V  V70  1  0.12472295  0.86951290  0.25210464  1
  V  V71  1  0.25297792  0.37655627  0.12705133  1
  V  V72  1  0.00288558  0.86753244  0.37617081  1
  V  V73  1  0.62533877  0.25283360  0.87361634  1
  V  V74  1  0.37169899  0.50307266  0.37770582  1
  V  V75  1  0.12031157  0.00054764  0.62924474  1
  V  V76  1  0.75384072  0.62630891  0.86977353  1
  V  V77  1  0.50161917  0.11766556  0.61114670  1
  V  V78  1  0.00521220  0.24681137  0.24948522  1
  V  V79  1  0.87845680  0.50504139  0.87192280  1
  V  V80  1  0.62290918  0.87459014  0.74619934  1
  V  V81  1  0.74140688  0.13422560  0.37783786  1
  V  V82  1  0.88359940  0.12418963  0.25085455  1
  V  V83  1  0.37534675  0.12998119  0.75025845  1
  V  V84  1  -0.00070426  0.62413323  0.12391914  1
  Zn  Zn85  1  0.37146832  0.62889606  0.25447485  1
  Zn  Zn86  1  0.25319261  0.74928366  -0.00967708  1
  Zn  Zn87  1  0.26244498  -0.00292877  0.27227384  1
  Zn  Zn88  1  0.13487488  0.75640829  0.85744663  1
  Zn  Zn89  1  -0.00943863  0.12988592  0.61801732  1
  Zn  Zn90  1  -0.00093021  -0.00141750  0.50399684  1
  Zn  Zn91  1  0.37872773  0.25394050  0.62244023  1
  Zn  Zn92  1  0.62636250  0.49369699  0.62393844  1
  Zn  Zn93  1  0.50048848  0.88425472  0.38127353  1
  Zn  Zn94  1  0.87800560  0.37771383  0.00135139  1
  Zn  Zn95  1  0.28326420  0.65092505  0.81628190  1
  Zn  Zn96  1  0.87546883  -0.00126439  0.87022752  1
  Zn  Zn97  1  0.86472871  0.13448892  0.73663931  1
  Zn  Zn98  1  0.63243871  0.36899695  0.73845804  1
  Zn  Zn99  1  0.52572465  0.24917934  0.26149929  1
  Zn  Zn100  1  0.87915152  0.25353529  0.12577802  1
  Zn  Zn101  1  0.50212373  0.24894120  0.74458603  1
  Zn  Zn102  1  0.00081504  0.37431963  0.87420406  1
  Zn  Zn103  1  0.61364083  -0.00332161  0.59529238  1
  Zn  Zn104  1  0.62623924  -0.00240250  0.12529193  1
  Zn  Zn105  1  0.50594679  0.51814428  -0.00220138  1
  Zn  Zn106  1  0.73791004  0.49094375  0.25832348  1
  Zn  Zn107  1  0.19245616  0.18619827  0.18644426  1
  Zn  Zn108  1  0.18547485  0.18831033  0.68541420  1
  Zn  Zn109  1  0.18692918  0.68921769  0.18174597  1
  Zn  Zn110  1  0.17279120  0.69739229  0.66950075  1
  Zn  Zn111  1  0.69218256  0.18720346  0.18954205  1
  Zn  Zn112  1  0.67992208  0.18259845  0.68283812  1
  Zn  Zn113  1  0.69229430  0.68339525  0.19446550  1
  Zn  Zn114  1  0.68392373  0.68225214  0.69150901  1
  Zn  Zn115  1  0.31861480  0.32014166  0.31791563  1
  Zn  Zn116  1  0.31204840  0.31781856  0.81181090  1
  Zn  Zn117  1  0.31660319  0.81605678  0.31099500  1
  Zn  Zn118  1  0.31229689  0.82423740  0.81056701  1
  Zn  Zn119  1  0.81396088  0.30922396  0.31265185  1
  Zn  Zn120  1  0.81628227  0.31834783  0.81573775  1
  Zn  Zn121  1  0.81370104  0.80918344  0.31487788  1
  Zn  Zn122  1  0.81462792  0.81305279  0.80878373  1
  Zn  Zn123  1  0.18864127  0.43686616  0.43970765  1
  Zn  Zn124  1  0.18752313  0.43479408  0.93561997  1
  Zn  Zn125  1  0.19070385  0.93632045  0.44104089  1
  Zn  Zn126  1  0.18940980  0.93805545  0.93769561  1
  Zn  Zn127  1  0.68726933  0.43357013  0.44678037  1
  Zn  Zn128  1  0.68904408  0.44084855  0.94097950  1
  Zn  Zn129  1  0.69397861  0.93625573  0.42957576  1
  Zn  Zn130  1  0.68567052  0.93395695  0.93719956  1
  Zn  Zn131  1  0.31411163  0.06353222  0.07001169  1
  Zn  Zn132  1  0.31148823  0.06798982  0.56451834  1
  Zn  Zn133  1  0.31372912  0.56208758  0.06192208  1
  Zn  Zn134  1  0.30965808  0.56710884  0.56134142  1
  Zn  Zn135  1  0.81590890  0.06177142  0.06324384  1
  Zn  Zn136  1  0.80802456  0.05957576  0.56217935  1
  Zn  Zn137  1  0.81000061  0.56037503  0.06155505  1
  Zn  Zn138  1  0.81653671  0.56195422  0.56160341  1
  Zn  Zn139  1  0.43939737  0.44232562  0.19188758  1
  Zn  Zn140  1  0.43833249  0.43427283  0.68683130  1
  Zn  Zn141  1  0.44220869  0.93502923  0.18955599  1
  Zn  Zn142  1  0.43344921  0.93841747  0.68541663  1
  Zn  Zn143  1  0.93628572  0.43444412  0.18512127  1
  Zn  Zn144  1  0.94095391  0.43973981  0.69237906  1
  Zn  Zn145  1  0.94012204  0.93713018  0.18702214  1
  Zn  Zn146  1  0.92960958  0.93921779  0.68525723  1
  Zn  Zn147  1  0.09001638  0.04571470  0.32699870  1
  Zn  Zn148  1  0.06247124  0.06483111  0.81404363  1
  Zn  Zn149  1  0.06167647  0.56130769  0.31444894  1
  Zn  Zn150  1  0.11048612  0.59263211  0.77533254  1
  Zn  Zn151  1  0.56363260  0.06253511  0.31828632  1
  Zn  Zn152  1  0.56076170  0.06417248  0.80896042  1
  Zn  Zn153  1  0.56296881  0.55681384  0.31161015  1
  Zn  Zn154  1  0.56262586  0.56012881  0.81423727  1
  Zn  Zn155  1  0.43934879  0.19330868  0.43659480  1
  Zn  Zn156  1  0.43953659  0.18926105  0.93951919  1
  Zn  Zn157  1  0.43606645  0.68742912  0.43917546  1
  Zn  Zn158  1  0.43101284  0.68808168  0.93483924  1
  Zn  Zn159  1  0.94109455  0.18764979  0.43780842  1
  Zn  Zn160  1  0.94048125  0.18587537  0.93192856  1
  Zn  Zn161  1  0.93655707  0.68473523  0.43822973  1
  Zn  Zn162  1  0.94011796  0.68886069  0.93201592  1
  Zn  Zn163  1  0.06548500  0.31342982  0.06240187  1
  Zn  Zn164  1  0.06600672  0.31569865  0.56433165  1
  Zn  Zn165  1  0.06256734  0.81087142  0.06081581  1
  Zn  Zn166  1  0.06151723  0.81158663  0.56153411  1
  Zn  Zn167  1  0.56607336  0.31328484  0.06339912  1
  Zn  Zn168  1  0.56047254  0.31021269  0.56258987  1
  Zn  Zn169  1  0.56154084  0.69326404  0.06348840  1
  Zn  Zn170  1  0.55974516  0.81000887  0.56329184  1
  O  O171  1  0.12226221  0.11838848  0.11976726  1
  O  O172  1  0.11989440  0.11712039  0.61809318  1
  O  O173  1  0.11817225  0.61948169  0.11619520  1
  O  O174  1  0.10272355  0.63382928  0.60192780  1
  O  O175  1  0.61847440  0.12296985  0.12015896  1
  O  O176  1  0.60682707  0.11772053  0.62327520  1
  O  O177  1  0.63065400  0.61794924  0.12279811  1
  O  O178  1  0.61490499  0.62271384  0.61778715  1
  O  O179  1  0.38722623  0.39370543  0.37264957  1
  O  O180  1  0.38327275  0.38127370  0.88277858  1
  O  O181  1  0.37680564  0.87758468  0.38786441  1
  O  O182  1  0.38011194  0.88865223  0.87952645  1
  O  O183  1  0.88091122  0.38102087  0.38027826  1
  O  O184  1  0.87970332  0.38938338  0.88201644  1
  O  O185  1  0.87822582  0.88134395  0.38320731  1
  O  O186  1  0.88479947  0.87553816  0.88096416  1
  O  O187  1  0.20113611  0.01292013  0.36294037  1
  O  O188  1  0.25963863  -0.00472016  0.86545818  1
  O  O189  1  0.25679739  0.49240183  0.36621325  1
  O  O190  1  0.26693103  0.49185147  0.87767624  1
  O  O191  1  0.76215199  0.01194200  0.37112079  1
  O  O192  1  0.74755213  0.00785416  0.86804556  1
  O  O193  1  0.75831308  0.50319384  0.37728453  1
  O  O194  1  0.75733620  0.50914331  0.87259530  1
  O  O195  1  0.24620216  0.49493851  0.13367910  1
  O  O196  1  0.25154456  0.48646074  0.61754825  1
  O  O197  1  0.24584609  0.98745073  0.12671959  1
  O  O198  1  0.24147748  0.99624454  0.63087607  1
  O  O199  1  0.74384822  0.48804005  0.12425316  1
  O  O200  1  0.75298017  0.50887979  0.64203235  1
  O  O201  1  0.74999326  0.99336258  0.13233093  1
  O  O202  1  0.73530883  0.99214884  0.62772019  1
  O  O203  1  0.00796721  0.36877648  0.25350872  1
  O  O204  1  0.01141122  0.36387587  0.75050388  1
  O  O205  1  0.00363181  0.86673736  0.25618082  1
  O  O206  1  -0.00827655  0.86662355  0.75503226  1
  O  O207  1  0.49883676  0.37464412  0.26220870  1
  O  O208  1  0.50120714  0.36989005  0.76471936  1
  O  O209  1  0.51013183  0.86907824  0.25871639  1
  O  O210  1  0.50192980  0.86971627  0.75431507  1
  O  O211  1  0.49433749  0.12662532  0.24503374  1
  O  O212  1  0.48980216  0.12700632  0.74314070  1
  O  O213  1  0.50065812  0.63926289  0.25513189  1
  O  O214  1  0.50604315  0.63000961  0.73757315  1
  O  O215  1  1.00204421  0.12810534  0.24413707  1
  O  O216  1  0.99828975  0.13899182  0.75163806  1
  O  O217  1  0.99445440  0.62754022  0.24463432  1
  O  O218  1  1.00355811  0.62806089  0.73179047  1
  O  O219  1  0.37144083  0.25718739  0.00851003  1
  O  O220  1  0.35620275  0.24794256  0.49914050  1
  O  O221  1  0.37321666  0.75987459  0.00827879  1
  O  O222  1  0.36176532  0.75438428  0.50800250  1
  O  O223  1  0.86600559  0.24891714  -0.00205463  1
  O  O224  1  0.87848559  0.26249959  0.50050828  1
  O  O225  1  0.86779773  0.75401433  0.00457012  1
  O  O226  1  0.87234793  0.76319379  0.49414335  1
  O  O227  1  0.13025020  0.24521892  0.49526809  1
  O  O228  1  0.13485269  0.24752119  0.99418987  1
  O  O229  1  0.13922340  0.75022457  0.49938332  1
  O  O230  1  0.12684321  0.73653813  0.99939859  1
  O  O231  1  0.64161816  0.25762680  0.49674166  1
  O  O232  1  0.63581672  0.24439691  0.99204233  1
  O  O233  1  0.61705900  0.73669462  0.49055213  1
  O  O234  1  0.63565071  0.75301312  0.99050041  1
  O  O235  1  0.49474967  0.24166146  0.12440358  1
  O  O236  1  0.49599414  0.23755692  0.62621134  1
  O  O237  1  0.49209154  0.75397263  0.13657399  1
  O  O238  1  0.48990919  0.74232478  0.62991006  1
  O  O239  1  1.00360029  0.24337693  0.13063204  1
  O  O240  1  1.00863255  0.24941332  0.64098737  1
  O  O241  1  0.99310704  0.74415377  0.12990934  1
  O  O242  1  0.99589903  0.74696728  0.63251941  1
  O  O243  1  0.01045603  0.25646598  0.36945081  1
  O  O244  1  0.01172981  0.25279281  0.86773688  1
  O  O245  1  -0.01101183  0.75976267  0.36696947  1
  O  O246  1  0.00320128  0.75840435  0.86534712  1
  O  O247  1  0.49563864  0.27092348  0.37760617  1
  O  O248  1  0.51140906  0.25661747  0.87752520  1
  O  O249  1  0.51083841  0.75216604  0.36967662  1
  O  O250  1  0.50417512  0.75621051  0.86980165  1
  O  O251  1  0.23770907  0.14024978  0.50733416  1
  O  O252  1  0.24701576  0.13832110  1.00999518  1
  O  O253  1  0.24015221  0.64020637  0.50472643  1
  O  O254  1  0.23545999  0.62525990  1.00331847  1
  O  O255  1  0.75493900  0.13401889  0.48670806  1
  O  O256  1  0.74751134  0.13087954  0.99250103  1
  O  O257  1  0.73915413  0.61510595  0.49109476  1
  O  O258  1  0.75495534  0.63795379  0.99029374  1
  O  O259  1  0.26065894  0.36724573  0.00681831  1
  O  O260  1  0.23787115  0.36464124  0.51663659  1
  O  O261  1  0.25710040  0.87449707  0.00896975  1
  O  O262  1  0.25713748  0.86520892  0.50470240  1
  O  O263  1  0.75209333  0.36493568  0.00690520  1
  O  O264  1  0.76453192  0.36174208  0.49672414  1
  O  O265  1  0.75495371  0.86516703  0.00434501  1
  O  O266  1  0.76018704  0.87792745  0.50338603  1
  O  O267  1  0.13004701  0.49474716  0.24639489  1
  O  O268  1  0.11449456  0.47977229  0.75933750  1
  O  O269  1  0.11386797  0.97953845  0.23463655  1
  O  O270  1  0.13501868  1.01028996  0.74179271  1
  O  O271  1  0.62650955  0.50424467  0.23208286  1
  O  O272  1  0.64075158  0.49905753  0.75255499  1
  O  O273  1  0.63236429  0.98976091  0.25369425  1
  O  O274  1  0.63396452  0.99067177  0.75542197  1
  O  O275  1  0.37918438  0.01138194  0.25193336  1
  O  O276  1  0.36817064  0.00890832  0.75759429  1
  O  O277  1  0.36507796  0.50572568  0.25468225  1
  O  O278  1  0.37672399  0.49396868  0.76427931  1
  O  O279  1  0.87335029  0.00219361  0.25931363  1
  O  O280  1  0.85388558  -0.00312566  0.75132713  1
  O  O281  1  0.87819466  0.50235737  0.26356175  1
  O  O282  1  0.86485495  0.49638374  0.76129537  1
  O  O283  1  0.11906996  0.36810403  0.37096952  1
  O  O284  1  0.12666757  0.36314598  0.86541261  1
  O  O285  1  0.11073866  0.87453380  0.36671007  1
  O  O286  1  0.11182368  0.87471873  0.87976284  1
  O  O287  1  0.60944537  0.38883243  0.37703235  1
  O  O288  1  0.61884443  0.36711665  0.87894015  1
  O  O289  1  0.63251208  0.86017009  0.36502533  1
  O  O290  1  0.61985540  0.86395654  0.86867322  1
  O  O291  1  0.38776649  0.13299839  0.13112784  1
  O  O292  1  0.38279249  0.12724442  0.63459987  1
  O  O293  1  0.36541514  0.64214226  0.12822621  1
  O  O294  1  0.38168256  0.63711584  0.62013389  1
  O  O295  1  0.88413953  0.12648752  0.13241795  1
  O  O296  1  0.88046776  0.11194323  0.62798744  1
  O  O297  1  0.87853867  0.62761379  0.13049783  1
  O  O298  1  0.88989470  0.63082608  0.61305023  1
  O  O299  1  0.26078893  0.25685418  0.11789766  1
  O  O300  1  0.24930902  0.25607339  0.61469040  1
  O  O301  1  0.25908363  0.76380889  0.12573586  1
  O  O302  1  0.25487136  0.76164276  0.61954228  1
  O  O303  1  0.75333773  0.25861774  0.11479415  1
  O  O304  1  0.74864599  0.23751150  0.60953947  1
  O  O305  1  0.75453245  0.75250961  0.11862264  1
  O  O306  1  0.74097591  0.76193561  0.62940444  1
  O  O307  1  0.24103916  0.26498286  0.39014781  1
  O  O308  1  0.24498449  0.25671887  0.88793006  1
  O  O309  1  0.25532200  0.75224342  0.38627146  1
  O  O310  1  0.25090863  0.74995446  0.87165098  1
  O  O311  1  0.76169557  0.23701619  0.38337144  1
  O  O312  1  0.74477737  0.24381889  0.88037692  1
  O  O313  1  0.74014507  0.73535120  0.36993606  1
  O  O314  1  0.74347147  0.74589921  0.87926489  1
  O  O315  1  0.00743302  0.12012586  0.00413065  1
  O  O316  1  0.01345575  0.12191131  0.50053997  1
  O  O317  1  0.00902147  0.61880641  0.00415119  1
  O  O318  1  0.00094723  0.61659226  0.50231788  1
  O  O319  1  0.50575355  0.12103172  0.00878593  1
  O  O320  1  0.48812740  0.12654884  0.51279119  1
  O  O321  1  0.49705575  0.62941450  0.00028681  1
  O  O322  1  0.50586164  0.61881344  0.51007240  1
  O  O323  1  0.50051074  0.38877210  0.49348932  1
  O  O324  1  0.49170767  0.37140661  0.99145045  1
  O  O325  1  0.48047263  0.86743474  0.50289723  1
  O  O326  1  0.49054666  0.88603827  0.99054152  1
  O  O327  1  0.99308769  0.38078965  0.49765146  1
  O  O328  1  1.00383138  0.38827315  0.99890911  1
  O  O329  1  0.98769353  0.87421517  0.49343701  1
  O  O330  1  0.99551474  0.87873884  0.99238852  1
  O  O331  1  0.49342055  0.49539617  0.38205396  1
  O  O332  1  0.49282742  0.49161967  0.87894971  1
  O  O333  1  0.53758523  0.99590861  0.41317409  1
  O  O334  1  0.49141342  0.99779170  0.87886715  1
  O  O335  1  0.99101722  0.49407232  0.38404484  1
  O  O336  1  0.99209178  0.50189300  0.88533151  1
  O  O337  1  0.99418775  0.98691133  0.37552894  1
  O  O338  1  0.99794599  0.99263701  0.87814257  1
  O  O339  1  0.00562323  0.00370887  0.11595847  1
  O  O340  1  0.01225040  -0.00521131  0.62678664  1
  O  O341  1  0.00515240  0.50445791  0.11665231  1
  O  O342  1  -0.00628147  0.51198925  0.61571279  1
  O  O343  1  0.50200309  0.01029900  0.12026033  1
  O  O344  1  0.49734352  0.01110531  0.62557324  1
  O  O345  1  0.51384041  0.49631409  0.12255030  1
  O  O346  1  0.49328294  0.50927530  0.61845042  1
  O  O347  1  0.24605683  0.38321185  0.24525359  1
  O  O348  1  0.23739172  0.37033417  0.74041094  1
  O  O349  1  0.24259676  0.87763746  0.24457375  1
  O  O350  1  0.25607725  0.89164182  0.73628111  1
  O  O351  1  0.75801305  0.37426187  0.23535253  1
  O  O352  1  0.74954481  0.39066934  0.75712275  1
  O  O353  1  0.74702798  0.87830884  0.24756499  1
  O  O354  1  0.74372876  0.87905488  0.73984579  1
  O  O355  1  0.26970437  0.12080812  0.24007900  1
  O  O356  1  0.26064447  0.11516368  0.74159594  1
  O  O357  1  0.24488885  0.61280259  0.24679566  1
  O  O358  1  0.21599439  0.61824036  0.73813245  1
  O  O359  1  0.76272054  0.12044245  0.26028222  1
  O  O360  1  0.74467802  0.11654538  0.75620749  1
  O  O361  1  0.75725818  0.61651754  0.26372774  1
  O  O362  1  0.74774234  0.61586609  0.76262939  1
  O  O363  1  0.38102553  0.13299454  0.35796968  1
  O  O364  1  0.38082277  0.11568301  0.86951705  1
  O  O365  1  0.38034967  0.61146814  0.37243366  1
  O  O366  1  0.37250715  0.61077122  0.87328477  1
  O  O367  1  0.87880651  0.11502895  0.36996645  1
  O  O368  1  0.86107011  0.12374458  0.86853195  1
  O  O369  1  0.86760242  0.61486102  0.37419601  1
  O  O370  1  0.86606849  0.61699710  0.87872596  1
  O  O371  1  0.13262583  0.38110873  0.13030684  1
  O  O372  1  0.13365877  0.37296560  0.63907641  1
  O  O373  1  0.13378561  0.87610529  0.12784178  1
  O  O374  1  0.13674784  0.88508094  0.61556681  1
  O  O375  1  0.63943890  0.38052340  0.12192249  1
  O  O376  1  0.61502399  0.38188699  0.62863596  1
  O  O377  1  0.63431418  0.87492359  0.14255932  1
  O  O378  1  0.62826699  0.87861234  0.62551381  1
  O  O379  1  0.12684522  0.25447627  0.25737813  1
  O  O380  1  0.11939274  0.25284877  0.75863298  1
  O  O381  1  0.11776884  0.76222136  0.24124480  1
  O  O382  1  0.10132765  0.74698111  0.74828883  1
  O  O383  1  0.63410758  0.25558844  0.24986788  1
  O  O384  1  0.62658585  0.25028796  0.76355736  1
  O  O385  1  0.62015051  0.75348602  0.25703712  1
  O  O386  1  0.61657277  0.75567199  0.75761926  1
  O  O387  1  0.37493309  0.24467572  0.23938990  1
  O  O388  1  0.37411878  0.23872926  0.75403340  1
  O  O389  1  0.38426101  0.75147905  0.24389886  1
  O  O390  1  0.37696709  0.75427847  0.73876658  1
  O  O391  1  0.88785374  0.24217650  0.25009072  1
  O  O392  1  0.89191449  0.25391805  0.75738575  1
  O  O393  1  0.87883450  0.74132247  0.24406928  1
  O  O394  1  0.89032612  0.74457009  0.75645258  1
  O  O395  1  0.38292506  0.50840583  0.49268643  1
  O  O396  1  0.37835332  0.48883934  0.99760054  1
  O  O397  1  0.36361022  0.98511280  0.50508203  1
  O  O398  1  0.37804999  0.99996624  0.99369982  1
  O  O399  1  0.88114548  0.48828835  0.49194265  1
  O  O400  1  0.88528389  0.50330342  0.99312264  1
  O  O401  1  0.87688377  0.99261359  0.48792111  1
  O  O402  1  0.88183947  0.99304763  0.99695077  1
  O  O403  1  0.12114717  0.00578311  0.00396318  1
  O  O404  1  0.12503245  0.00853746  0.51217229  1
  O  O405  1  0.12061485  0.50867385  0.00282429  1
  O  O406  1  0.11199165  0.50670665  0.49393509  1
  O  O407  1  0.61908720  0.00521405  0.00110790  1
  O  O408  1  0.60445741  -0.00388353  0.46934219  1
  O  O409  1  0.62492409  0.49818941  0.01584707  1
  O  O410  1  0.61426330  0.51099544  0.50184050  1
  O  O411  1  0.37545208  0.36908210  0.11969592  1
  O  O412  1  0.35741610  0.36958500  0.63552889  1
  O  O413  1  0.36977265  0.87026855  0.12238933  1
  O  O414  1  0.36494304  0.86763607  0.61567504  1
  O  O415  1  0.86405580  0.37342449  0.11915561  1
  O  O416  1  0.87987468  0.37935249  0.61275964  1
  O  O417  1  0.87098380  0.86823550  0.11961997  1
  O  O418  1  0.86419702  0.87965550  0.60884243  1
  O  O419  1  0.11876122  0.14311692  0.38453225  1
  O  O420  1  0.12460801  0.13671639  0.88316188  1
  O  O421  1  0.11420315  0.62823378  0.38866923  1
  O  O422  1  0.12140869  0.62629838  0.88855206  1
  O  O423  1  0.64351629  0.12944608  0.36918610  1
  O  O424  1  0.63294005  0.13296863  0.87954094  1
  O  O425  1  0.63070006  0.62811586  0.38190568  1
  O  O426  1  0.63273400  0.63869277  0.87073250  1
