# generated using pymatgen
data_V85Zn86O256
_symmetry_space_group_name_H-M   'P 1'
_cell_length_a   16.96129037
_cell_length_b   16.97547550
_cell_length_c   16.97371323
_cell_angle_alpha   89.89775854
_cell_angle_beta   89.91069986
_cell_angle_gamma   90.03112882
_symmetry_Int_Tables_number   1
_chemical_formula_structural   V85Zn86O256
_chemical_formula_sum   'V85 Zn86 O256'
_cell_volume   4887.15838420
_cell_formula_units_Z   1
loop_
 _symmetry_equiv_pos_site_id
 _symmetry_equiv_pos_as_xyz
  1  'x, y, z'
loop_
 _atom_site_type_symbol
 _atom_site_label
 _atom_site_symmetry_multiplicity
 _atom_site_fract_x
 _atom_site_fract_y
 _atom_site_fract_z
 _atom_site_occupancy
  V  V0  1  0.87031158  0.87587164  0.50414485  1
  V  V1  1  0.61568225  0.49784167  0.12178008  1
  V  V2  1  0.76631604  0.00302572  0.74698680  1
  V  V3  1  0.49632135  0.37963740  0.87334494  1
  V  V4  1  0.74782528  0.14148598  0.37672493  1
  V  V5  1  0.62947216  0.13981356  0.49617532  1
  V  V6  1  0.37022125  0.61030810  0.75259347  1
  V  V7  1  -0.00306694  0.74336053  0.25292031  1
  V  V8  1  0.37765480  0.75288736  0.63096550  1
  V  V9  1  0.62591908  0.37517315  0.74742833  1
  V  V10  1  0.25243984  -0.00762797  0.24308126  1
  V  V11  1  0.74551844  0.37049724  0.11839800  1
  V  V12  1  0.76092766  0.37564959  0.61142985  1
  V  V13  1  0.74957201  0.00008535  0.25226495  1
  V  V14  1  0.12282910  0.12047047  0.51654412  1
  V  V15  1  0.00493429  0.75262487  0.75361437  1
  V  V16  1  0.12190026  0.62551932  0.50284741  1
  V  V17  1  0.00038916  0.62694134  0.62703350  1
  V  V18  1  0.00753611  -0.00023062  0.00410989  1
  V  V19  1  0.00202943  0.61520843  0.12887741  1
  V  V20  1  0.00376800  0.00282850  0.50561124  1
  V  V21  1  0.37786032  0.24917264  0.12313827  1
  V  V22  1  0.87430489  0.12448101  0.24916415  1
  V  V23  1  0.12871759  0.50304255  0.63203313  1
  V  V24  1  0.36774522  0.00138529  0.86782336  1
  V  V25  1  0.12401673  0.37910741  0.75295213  1
  V  V26  1  0.25059810  0.25216760  0.49975613  1
  V  V27  1  0.37819020  0.87637091  0.49979097  1
  V  V28  1  0.87055804  0.62805574  0.75605304  1
  V  V29  1  0.00605612  0.87156033  0.87889391  1
  V  V30  1  0.24011022  0.88049192  0.63566504  1
  V  V31  1  0.24840657  0.37918807  0.12237479  1
  V  V32  1  0.00160543  0.24836889  0.24690080  1
  V  V33  1  0.63094396  0.25012890  0.87770862  1
  V  V34  1  -0.00409526  0.37875012  0.87491292  1
  V  V35  1  0.74713972  0.74435381  0.50217074  1
  V  V36  1  0.62016366  0.87541493  0.25968261  1
  V  V37  1  0.87158234  0.50458417  0.87995912  1
  V  V38  1  0.61688925  0.37107786  0.26125841  1
  V  V39  1  0.74908470  0.50306092  0.75356485  1
  V  V40  1  0.86989779  0.24914104  0.11796820  1
  V  V41  1  0.50442116  -0.00284658  0.49732660  1
  V  V42  1  0.74965550  0.51178150  0.24749389  1
  V  V43  1  0.63151210  0.12744774  -0.00022427  1
  V  V44  1  0.49066802  0.63157350  0.12450265  1
  V  V45  1  0.25682981  0.49538966  0.25721330  1
  V  V46  1  0.13271282  0.74521281  0.87569959  1
  V  V47  1  0.12448882  0.24462045  0.37030961  1
  V  V48  1  0.37524468  0.37794636  -0.00439151  1
  V  V49  1  0.49990311  0.24677505  0.74854128  1
  V  V50  1  0.24963950  0.37661074  0.62758078  1
  V  V51  1  0.63461726  -0.00159525  0.62437234  1
  V  V52  1  0.12940139  0.87388007  0.24188189  1
  V  V53  1  0.62376552  0.74230566  0.37878365  1
  V  V54  1  0.62869047  0.50508072  0.61452815  1
  V  V55  1  0.75016865  0.74776030  -0.00091146  1
  V  V56  1  0.74981046  0.87444138  0.12635649  1
  V  V57  1  0.37931774  -0.00389128  0.37474577  1
  V  V58  1  -0.01139527  0.24115129  0.74757194  1
  V  V59  1  0.50545892  0.62678462  0.62010235  1
  V  V60  1  0.12567413  0.61387198  0.00545681  1
  V  V61  1  0.37412601  0.87002770  0.00934509  1
  V  V62  1  0.12620408  0.37818041  0.24349629  1
  V  V63  1  0.25552235  0.74887996  0.01549865  1
  V  V64  1  0.87634845  0.24306133  0.61288226  1
  V  V65  1  0.00916994  0.12225624  0.12228931  1
  V  V66  1  0.50218058  0.12550992  0.62593529  1
  V  V67  1  0.87440250  0.74228616  0.13117584  1
  V  V68  1  0.00103189  0.87487484  0.37528826  1
  V  V69  1  0.62633494  0.62524978  -0.00523930  1
  V  V70  1  0.49374786  0.75139617  0.25231967  1
  V  V71  1  0.48752757  0.49986638  0.49353424  1
  V  V72  1  0.87050115  0.75976966  0.62717796  1
  V  V73  1  0.63360682  0.87719458  0.74696260  1
  V  V74  1  0.63147817  0.74803548  0.87399486  1
  V  V75  1  0.75847515  0.12748966  0.86974029  1
  V  V76  1  0.87648119  0.87439331  0.00128419  1
  V  V77  1  0.50259908  0.87719619  0.87511774  1
  V  V78  1  0.37690421  0.12439988  0.24799220  1
  V  V79  1  0.12571821  0.75032360  0.37673555  1
  V  V80  1  0.25526049  0.61539254  0.37916996  1
  V  V81  1  0.25148977  0.75106831  0.50082746  1
  V  V82  1  0.87487722  0.00082896  0.37448340  1
  V  V83  1  0.37459772  0.25193449  0.62333013  1
  V  V84  1  0.62428120  -0.00020572  0.12286101  1
  Zn  Zn85  1  0.49896197  0.00144195  -0.00075954  1
  Zn  Zn86  1  0.87786201  0.00606000  0.87445245  1
  Zn  Zn87  1  0.24903576  0.12016731  0.37576635  1
  Zn  Zn88  1  0.23864446  0.23703734  -0.00058688  1
  Zn  Zn89  1  0.35772235  0.11995648  0.74720491  1
  Zn  Zn90  1  0.50445539  0.12873227  0.12414711  1
  Zn  Zn91  1  0.23103169  0.12055597  0.87902580  1
  Zn  Zn92  1  -0.01099603  0.48450398  0.50484274  1
  Zn  Zn93  1  0.37354719  0.62630232  0.25215115  1
  Zn  Zn94  1  -0.00116911  0.49587639  0.01162132  1
  Zn  Zn95  1  0.25858085  0.60190965  0.87694025  1
  Zn  Zn96  1  0.50450178  0.74895919  0.74965987  1
  Zn  Zn97  1  0.50376906  0.24712783  0.26368526  1
  Zn  Zn98  1  0.49221101  0.50759421  -0.01102145  1
  Zn  Zn99  1  0.86879163  0.37183687  -0.00226592  1
  Zn  Zn100  1  0.12236725  0.24569090  0.88156204  1
  Zn  Zn101  1  0.88265301  0.50855634  0.37753896  1
  Zn  Zn102  1  -0.01113818  0.37428830  0.38279147  1
  Zn  Zn103  1  0.75832075  0.62946012  0.36953853  1
  Zn  Zn104  1  0.13725780  -0.00004108  0.11771690  1
  Zn  Zn105  1  0.18145469  0.02668549  0.70737669  1
  Zn  Zn106  1  0.46200349  0.35882520  0.39756488  1
  Zn  Zn107  1  0.19396074  0.18614818  0.18455927  1
  Zn  Zn108  1  0.18549194  0.19834440  0.69913101  1
  Zn  Zn109  1  0.18431688  0.68117221  0.19209530  1
  Zn  Zn110  1  0.19184220  0.69120434  0.68924941  1
  Zn  Zn111  1  0.68804349  0.18889686  0.19072011  1
  Zn  Zn112  1  0.69263320  0.18829902  0.68517605  1
  Zn  Zn113  1  0.67598375  0.69178487  0.18187688  1
  Zn  Zn114  1  0.69008200  0.68927303  0.68590201  1
  Zn  Zn115  1  0.31211931  0.30961086  0.31426199  1
  Zn  Zn116  1  0.31008370  0.30931977  0.81370867  1
  Zn  Zn117  1  0.31172672  0.81113242  0.31576424  1
  Zn  Zn118  1  0.31223893  0.81384679  0.81472430  1
  Zn  Zn119  1  0.81110889  0.32088320  0.30432608  1
  Zn  Zn120  1  0.81193155  0.31640485  0.80629249  1
  Zn  Zn121  1  0.81108335  0.81341126  0.31591588  1
  Zn  Zn122  1  0.81420545  0.81645734  0.81309084  1
  Zn  Zn123  1  0.16159345  0.42886207  0.44346104  1
  Zn  Zn124  1  0.18993861  0.43147800  0.93759210  1
  Zn  Zn125  1  0.19078251  0.93711806  0.43724238  1
  Zn  Zn126  1  0.19088539  0.93138101  0.93772798  1
  Zn  Zn127  1  0.68943312  0.44201147  0.43413631  1
  Zn  Zn128  1  0.68388393  0.43872014  0.93650925  1
  Zn  Zn129  1  0.69049499  0.93816244  0.43736358  1
  Zn  Zn130  1  0.69186809  0.93985454  0.93502912  1
  Zn  Zn131  1  0.31711164  0.06031770  0.05670032  1
  Zn  Zn132  1  0.31205036  0.06386892  0.56360652  1
  Zn  Zn133  1  0.30920540  0.55878283  0.06242038  1
  Zn  Zn134  1  0.31198187  0.56352174  0.56668924  1
  Zn  Zn135  1  0.81309677  0.06350000  0.06100027  1
  Zn  Zn136  1  0.81325114  0.06487157  0.55755415  1
  Zn  Zn137  1  0.80796037  0.56155608  0.06716959  1
  Zn  Zn138  1  0.81775953  0.56531079  0.56203080  1
  Zn  Zn139  1  0.43480471  0.43691506  0.19025473  1
  Zn  Zn140  1  0.44037672  0.43529931  0.68117890  1
  Zn  Zn141  1  0.44127165  0.93666319  0.18800576  1
  Zn  Zn142  1  0.44263126  0.93693076  0.68693054  1
  Zn  Zn143  1  0.92503355  0.42784788  0.20988286  1
  Zn  Zn144  1  0.93816640  0.44089778  0.68764150  1
  Zn  Zn145  1  0.93955834  0.93482814  0.18821700  1
  Zn  Zn146  1  0.98083454  0.96176539  0.70936685  1
  Zn  Zn147  1  0.06333526  0.05974035  0.31073622  1
  Zn  Zn148  1  0.06057430  0.06567340  0.82149746  1
  Zn  Zn149  1  0.06670258  0.55850161  0.31510550  1
  Zn  Zn150  1  0.06274561  0.56389641  0.81732108  1
  Zn  Zn151  1  0.56462691  0.06530404  0.31504534  1
  Zn  Zn152  1  0.56605513  0.06257846  0.81151928  1
  Zn  Zn153  1  0.56419683  0.56502424  0.31084121  1
  Zn  Zn154  1  0.56033424  0.56481898  0.80499526  1
  Zn  Zn155  1  0.43812704  0.18207985  0.43775739  1
  Zn  Zn156  1  0.43946690  0.18650636  0.93813406  1
  Zn  Zn157  1  0.44011591  0.68814419  0.43757717  1
  Zn  Zn158  1  0.43918923  0.68955082  0.93333571  1
  Zn  Zn159  1  0.93926483  0.18716748  0.43663516  1
  Zn  Zn160  1  0.94559603  0.18814026  0.93884665  1
  Zn  Zn161  1  0.93267199  0.68171873  0.43679163  1
  Zn  Zn162  1  0.93980196  0.68524292  0.94275559  1
  Zn  Zn163  1  0.05817255  0.31397909  0.06232840  1
  Zn  Zn164  1  0.06055875  0.30845004  0.56467762  1
  Zn  Zn165  1  0.06518384  0.80443366  0.06354471  1
  Zn  Zn166  1  0.05926342  0.81358652  0.56333375  1
  Zn  Zn167  1  0.55834534  0.31106797  0.06090041  1
  Zn  Zn168  1  0.56348599  0.31977216  0.56286500  1
  Zn  Zn169  1  0.56055257  0.81275922  0.06365186  1
  Zn  Zn170  1  0.56515857  0.81467617  0.56273055  1
  O  O171  1  0.11261767  0.12052658  0.13129810  1
  O  O172  1  0.12711230  0.12604341  0.61560239  1
  O  O173  1  0.11419088  0.62956846  0.11662326  1
  O  O174  1  0.12324812  0.62222987  0.62285949  1
  O  O175  1  0.62931944  0.11762291  0.11815877  1
  O  O176  1  0.62400430  0.11692146  0.61624915  1
  O  O177  1  0.61266283  0.61825616  0.11378958  1
  O  O178  1  0.61580164  0.61821021  0.63447783  1
  O  O179  1  0.36149154  0.38906146  0.36951128  1
  O  O180  1  0.38699602  0.36366895  0.88219084  1
  O  O181  1  0.37153359  0.88392706  0.38845675  1
  O  O182  1  0.38451361  0.88061472  0.87942245  1
  O  O183  1  0.88852982  0.39664662  0.33110756  1
  O  O184  1  0.87804870  0.38651457  0.87449769  1
  O  O185  1  0.88139538  0.88001568  0.38348443  1
  O  O186  1  0.88545881  0.86913437  0.88960143  1
  O  O187  1  0.26228224  -0.00042506  0.36614196  1
  O  O188  1  0.26483509  -0.00703141  0.87447909  1
  O  O189  1  0.23590077  0.50820873  0.37163855  1
  O  O190  1  0.24327250  0.49369415  0.86500237  1
  O  O191  1  0.75729065  0.00559781  0.36885139  1
  O  O192  1  0.75573559  0.00807624  0.86528697  1
  O  O193  1  0.74683511  0.50360687  0.35482198  1
  O  O194  1  0.75650919  0.49552352  0.86315914  1
  O  O195  1  0.25334567  0.48648682  0.13554412  1
  O  O196  1  0.24070323  0.48860789  0.62041617  1
  O  O197  1  0.25434809  0.99986735  0.13863637  1
  O  O198  1  0.25272555  0.98654499  0.62548231  1
  O  O199  1  0.73236025  0.49481094  0.12766295  1
  O  O200  1  0.74706288  0.49468791  0.63252748  1
  O  O201  1  0.74254823  0.99529473  0.13115683  1
  O  O202  1  0.74207322  1.00687292  0.63159850  1
  O  O203  1  0.01645869  0.36345468  0.23736775  1
  O  O204  1  0.00458916  0.37640292  0.75835738  1
  O  O205  1  0.00812894  0.86576339  0.25594070  1
  O  O206  1  -0.01158340  0.85886848  0.76654164  1
  O  O207  1  0.51191853  0.37831493  0.25200117  1
  O  O208  1  0.50518196  0.36775312  0.75335033  1
  O  O209  1  0.51150514  0.86620544  0.24487404  1
  O  O210  1  0.51498281  0.87466263  0.75762569  1
  O  O211  1  0.48892301  0.12286975  0.24817460  1
  O  O212  1  0.50541307  0.13167183  0.74102995  1
  O  O213  1  0.49812147  0.63299814  0.24215146  1
  O  O214  1  0.48961961  0.62858401  0.73800433  1
  O  O215  1  0.99356180  0.12689137  0.24159707  1
  O  O216  1  0.99336287  0.14364124  0.75552762  1
  O  O217  1  1.01301932  0.63790475  0.24442885  1
  O  O218  1  0.99045972  0.63443590  0.74822822  1
  O  O219  1  0.38003799  0.25858671  0.00985964  1
  O  O220  1  0.36173877  0.23916471  0.51143510  1
  O  O221  1  0.36171070  0.75301772  -0.00717221  1
  O  O222  1  0.37389786  0.75849004  0.50927683  1
  O  O223  1  0.88003745  0.25043076  0.01452674  1
  O  O224  1  0.88953073  0.25678941  0.51343223  1
  O  O225  1  0.87147844  0.75614067  0.00931057  1
  O  O226  1  0.86968151  0.75728814  0.50811034  1
  O  O227  1  0.12969892  0.23402973  0.49388466  1
  O  O228  1  0.12710573  0.26356455  0.99426796  1
  O  O229  1  0.13110490  0.74368845  0.49791662  1
  O  O230  1  0.13763351  0.74146083  0.99599825  1
  O  O231  1  0.62155850  0.23777073  0.50802826  1
  O  O232  1  0.62121021  0.24184948  0.98796972  1
  O  O233  1  0.63558461  0.76337819  0.49089950  1
  O  O234  1  0.62928299  0.74506734  0.99309290  1
  O  O235  1  0.48902129  0.24991973  0.13275332  1
  O  O236  1  0.49205315  0.24790594  0.62677330  1
  O  O237  1  0.50956752  0.74083169  0.13750725  1
  O  O238  1  0.49496346  0.74482064  0.62442322  1
  O  O239  1  0.99242175  0.23925271  0.12835392  1
  O  O240  1  0.98789012  0.25796526  0.63670049  1
  O  O241  1  0.99260595  0.74179807  0.13393486  1
  O  O242  1  0.99398085  0.74748961  0.63652640  1
  O  O243  1  0.00831338  0.25096531  0.36496120  1
  O  O244  1  -0.00988028  0.26405220  0.86265282  1
  O  O245  1  0.00484040  0.75383919  0.36894536  1
  O  O246  1  0.00808930  0.75267952  0.87373846  1
  O  O247  1  0.49512770  0.25422762  0.37655318  1
  O  O248  1  0.51096149  0.25598423  0.86768610  1
  O  O249  1  0.51079842  0.74455751  0.36656755  1
  O  O250  1  0.51232632  0.76113495  0.87182899  1
  O  O251  1  0.23752347  0.12986009  0.49990674  1
  O  O252  1  0.25398774  0.12381800  0.99372758  1
  O  O253  1  0.24242999  0.63094502  0.49879659  1
  O  O254  1  0.24560385  0.63283302  0.99756175  1
  O  O255  1  0.74123505  0.12146229  0.48800805  1
  O  O256  1  0.73902244  0.11831242  0.98874972  1
  O  O257  1  0.75219576  0.64225324  0.50175379  1
  O  O258  1  0.73391536  0.63122719  1.00665000  1
  O  O259  1  0.26017030  0.37172411  0.00930921  1
  O  O260  1  0.23323119  0.35891033  0.51353606  1
  O  O261  1  0.25707506  0.85690878  -0.00161254  1
  O  O262  1  0.26121492  0.87164442  0.50808262  1
  O  O263  1  0.74910775  0.38119815  0.01314659  1
  O  O264  1  0.74714567  0.38126579  0.51337012  1
  O  O265  1  0.75862519  0.86997378  0.00498786  1
  O  O266  1  0.76509078  0.86959160  0.49684604  1
  O  O267  1  0.13639024  0.48521568  0.25265432  1
  O  O268  1  0.11813831  0.49506533  0.74032334  1
  O  O269  1  0.13530704  0.99027679  0.25010839  1
  O  O270  1  0.08623200  0.98883210  0.74691686  1
  O  O271  1  0.62557491  0.49137927  0.23893399  1
  O  O272  1  0.63316449  0.49720406  0.74166685  1
  O  O273  1  0.62851224  0.99396138  0.24353689  1
  O  O274  1  0.63481698  0.99496501  0.74197161  1
  O  O275  1  0.37265646  0.00070206  0.25634035  1
  O  O276  1  0.38187112  -0.00249036  0.76363861  1
  O  O277  1  0.36098593  0.50402185  0.24869667  1
  O  O278  1  0.37817358  0.51209032  0.73906754  1
  O  O279  1  0.87008237  0.00313084  0.25419344  1
  O  O280  1  0.86960424  -0.00783701  0.74916070  1
  O  O281  1  0.84790677  0.51103653  0.22808888  1
  O  O282  1  0.86877474  0.50960342  0.75739927  1
  O  O283  1  0.13322240  0.35598519  0.35697666  1
  O  O284  1  0.10998559  0.37803898  0.86588215  1
  O  O285  1  0.12071097  0.86907948  0.36976983  1
  O  O286  1  0.11306524  0.86110297  0.88378572  1
  O  O287  1  0.62855534  0.37939491  0.35990454  1
  O  O288  1  0.61978399  0.36683848  0.86940056  1
  O  O289  1  0.62940946  0.87025452  0.36377026  1
  O  O290  1  0.62132213  0.86969723  0.86939982  1
  O  O291  1  0.37955946  0.13010606  0.13147043  1
  O  O292  1  0.38221098  0.13171690  0.62752008  1
  O  O293  1  0.38779819  0.61987972  0.12416777  1
  O  O294  1  0.38167712  0.63543611  0.63276900  1
  O  O295  1  0.87860515  0.13005240  0.13052000  1
  O  O296  1  0.86635177  0.14404391  0.62066941  1
  O  O297  1  0.88111356  0.63807716  0.11896045  1
  O  O298  1  0.88109050  0.63668941  0.63657152  1
  O  O299  1  0.26347171  0.25803398  0.12495819  1
  O  O300  1  0.25467253  0.25500009  0.62012477  1
  O  O301  1  0.24968639  0.74199219  0.11406788  1
  O  O302  1  0.26055492  0.75925178  0.62024966  1
  O  O303  1  0.75795765  0.25849420  0.13066756  1
  O  O304  1  0.76263275  0.26656637  0.63014391  1
  O  O305  1  0.75560261  0.75463459  0.12093400  1
  O  O306  1  0.76115586  0.75095499  0.61922320  1
  O  O307  1  0.24316733  0.24311303  0.38483804  1
  O  O308  1  0.24422672  0.24357207  0.87593553  1
  O  O309  1  0.24424367  0.74170071  0.38217030  1
  O  O310  1  0.23917592  0.74667344  0.87710236  1
  O  O311  1  0.75800217  0.24018925  0.36596129  1
  O  O312  1  0.73882908  0.24423605  0.86385045  1
  O  O313  1  0.74310259  0.75139363  0.38391485  1
  O  O314  1  0.73883882  0.75603411  0.88133515  1
  O  O315  1  -0.00869096  0.11028795  0.01130382  1
  O  O316  1  0.01544282  0.11853756  0.49455575  1
  O  O317  1  0.00802885  0.62242385  0.01140046  1
  O  O318  1  0.01293562  0.63565368  0.50978187  1
  O  O319  1  0.51663486  0.12132640  0.00105316  1
  O  O320  1  0.50964979  0.11413919  0.50555803  1
  O  O321  1  0.50687570  0.62713913  0.00527527  1
  O  O322  1  0.49627849  0.61926820  0.51449873  1
  O  O323  1  0.50634861  0.39449006  0.49966697  1
  O  O324  1  0.49384023  0.37664444  0.98919452  1
  O  O325  1  0.49024379  0.88686281  0.50845499  1
  O  O326  1  0.49451405  0.87214752  0.98942692  1
  O  O327  1  1.04249375  0.38328424  0.48530329  1
  O  O328  1  0.99169410  0.38054892  0.98999815  1
  O  O329  1  0.99343385  0.88039617  0.49329842  1
  O  O330  1  0.99389976  0.87567118  0.99867809  1
  O  O331  1  0.50519666  0.51445918  0.39470317  1
  O  O332  1  0.50781214  0.48403906  0.87037964  1
  O  O333  1  0.49243615  1.00306902  0.38640035  1
  O  O334  1  0.49909556  0.98845079  0.87580861  1
  O  O335  1  1.00403878  0.49621229  0.38183526  1
  O  O336  1  0.98740312  0.49415080  0.87500021  1
  O  O337  1  0.99426040  0.99517783  0.38117995  1
  O  O338  1  0.99335425  0.98749448  0.88836093  1
  O  O339  1  0.00088316  0.00584465  0.12025390  1
  O  O340  1  -0.00439924  -0.00314754  0.60374689  1
  O  O341  1  -0.01337219  0.51375008  0.13301488  1
  O  O342  1  0.00989229  0.50908104  0.62413554  1
  O  O343  1  0.51526942  0.00167441  0.12322695  1
  O  O344  1  0.51076170  0.00584399  0.61762084  1
  O  O345  1  0.50647124  0.50791760  0.12371423  1
  O  O346  1  0.51006368  0.50657887  0.61697758  1
  O  O347  1  0.24525076  0.37778290  0.24060870  1
  O  O348  1  0.23549233  0.36369051  0.73785013  1
  O  O349  1  0.24156006  0.88041778  0.25673247  1
  O  O350  1  0.25054142  0.87025485  0.73542411  1
  O  O351  1  0.73436371  0.38677690  0.23609910  1
  O  O352  1  0.74522708  0.38775840  0.74107370  1
  O  O353  1  0.74161305  0.87982444  0.24533075  1
  O  O354  1  0.74117423  0.88690981  0.75672142  1
  O  O355  1  0.26268338  0.11313926  0.25032881  1
  O  O356  1  0.24064790  0.11502990  0.75368304  1
  O  O357  1  0.24869838  0.61478639  0.26033785  1
  O  O358  1  0.26776933  0.62951927  0.74766669  1
  O  O359  1  0.75371691  0.11890943  0.25762337  1
  O  O360  1  0.74637474  0.11488755  0.75856957  1
  O  O361  1  0.73169787  0.61334093  0.24272037  1
  O  O362  1  0.76018386  0.61581940  0.74437962  1
  O  O363  1  0.37330662  0.11154775  0.36711809  1
  O  O364  1  0.38313308  0.10621334  0.87290522  1
  O  O365  1  0.35849227  0.62993255  0.37858140  1
  O  O366  1  0.37939667  0.62821441  0.85664903  1
  O  O367  1  0.86876251  0.12058379  0.36995682  1
  O  O368  1  0.86228738  0.12673964  0.88371524  1
  O  O369  1  0.87133966  0.62365135  0.36603614  1
  O  O370  1  0.87990865  0.61989950  0.86568387  1
  O  O371  1  0.13812647  0.36581598  0.13284107  1
  O  O372  1  0.12881414  0.38420561  0.63468784  1
  O  O373  1  0.11965926  0.87432967  0.13891637  1
  O  O374  1  0.14132341  0.86882793  0.61937986  1
  O  O375  1  0.62600281  0.38281423  0.12453093  1
  O  O376  1  0.63614911  0.38492711  0.62949644  1
  O  O377  1  0.63081644  0.88193830  0.13147913  1
  O  O378  1  0.62170334  0.88659555  0.63536087  1
  O  O379  1  0.12310228  0.25100292  0.25330449  1
  O  O380  1  0.10492387  0.26495650  0.74799674  1
  O  O381  1  0.11870538  0.75661769  0.25628295  1
  O  O382  1  0.11304745  0.74019374  0.76048550  1
  O  O383  1  0.62259878  0.26706842  0.24290321  1
  O  O384  1  0.62070282  0.25532563  0.75443088  1
  O  O385  1  0.61871806  0.75866825  0.25864161  1
  O  O386  1  0.62917633  0.75902414  0.75669496  1
  O  O387  1  0.37245687  0.23711556  0.24220187  1
  O  O388  1  0.38039054  0.24332288  0.73944390  1
  O  O389  1  0.38867384  0.75009995  0.25765887  1
  O  O390  1  0.38048839  0.75161753  0.73858617  1
  O  O391  1  0.88187944  0.24295383  0.23872647  1
  O  O392  1  0.88412607  0.25929902  0.73853287  1
  O  O393  1  0.88532664  0.75879738  0.24200831  1
  O  O394  1  0.87852288  0.74505487  0.74672863  1
  O  O395  1  0.38865443  0.50302933  0.50848083  1
  O  O396  1  0.37731840  0.48384101  1.00386961  1
  O  O397  1  0.38304019  0.99656631  0.49470413  1
  O  O398  1  0.37993192  0.98744456  0.98703411  1
  O  O399  1  0.87788936  0.50213546  0.49520197  1
  O  O400  1  0.87163211  0.50383772  0.98854721  1
  O  O401  1  0.88159754  0.99411178  0.49412451  1
  O  O402  1  0.88241277  0.98584949  1.00389451  1
  O  O403  1  0.11186974  -0.01403267  0.00358381  1
  O  O404  1  0.12122144  0.01385328  0.49240213  1
  O  O405  1  0.12235823  0.51106958  -0.00079950  1
  O  O406  1  0.12749312  0.51713870  0.51416355  1
  O  O407  1  0.62720837  0.00487823  0.00873109  1
  O  O408  1  0.62010568  -0.00016964  0.50720088  1
  O  O409  1  0.61932792  0.50918462  0.00383899  1
  O  O410  1  0.62573412  0.50392303  0.51228335  1
  O  O411  1  0.37023130  0.36730831  0.11905478  1
  O  O412  1  0.36409665  0.36243130  0.63045017  1
  O  O413  1  0.38456096  0.87787892  0.10809231  1
  O  O414  1  0.37074918  0.87052502  0.61803896  1
  O  O415  1  0.86351050  0.36606128  0.12695218  1
  O  O416  1  0.86404287  0.37752906  0.62540650  1
  O  O417  1  0.87151475  0.86475722  0.11895784  1
  O  O418  1  0.88520988  0.86357519  0.61538662  1
  O  O419  1  0.12761070  0.13511043  0.37263250  1
  O  O420  1  0.11567114  0.13152918  0.88535121  1
  O  O421  1  0.13262900  0.63168131  0.38615207  1
  O  O422  1  0.12346458  0.63269527  0.88745559  1
  O  O423  1  0.63542073  0.12164354  0.38339730  1
  O  O424  1  0.63389220  0.13151795  0.88018801  1
  O  O425  1  0.63346544  0.63989145  0.37084485  1
  O  O426  1  0.61500103  0.63633208  0.88206419  1
