# generated using pymatgen
data_V85Zn86O256
_symmetry_space_group_name_H-M   'P 1'
_cell_length_a   16.99712207
_cell_length_b   16.98596865
_cell_length_c   16.98489472
_cell_angle_alpha   90.02577625
_cell_angle_beta   90.05864081
_cell_angle_gamma   90.03800840
_symmetry_Int_Tables_number   1
_chemical_formula_structural   V85Zn86O256
_chemical_formula_sum   'V85 Zn86 O256'
_cell_volume   4903.74867226
_cell_formula_units_Z   1
loop_
 _symmetry_equiv_pos_site_id
 _symmetry_equiv_pos_as_xyz
  1  'x, y, z'
loop_
 _atom_site_type_symbol
 _atom_site_label
 _atom_site_symmetry_multiplicity
 _atom_site_fract_x
 _atom_site_fract_y
 _atom_site_fract_z
 _atom_site_occupancy
  V  V0  1  0.37927517  0.87657016  0.00068737  1
  V  V1  1  0.87455127  0.25063585  0.62328105  1
  V  V2  1  0.62876908  0.63223698  -0.00111425  1
  V  V3  1  0.25360972  0.75196335  0.50106597  1
  V  V4  1  0.24567313  0.75161527  -0.00434179  1
  V  V5  1  0.00011915  0.49972928  -0.00309454  1
  V  V6  1  -0.00489745  -0.00229458  0.50269597  1
  V  V7  1  0.50218568  0.87926507  0.37194333  1
  V  V8  1  0.12405916  0.62946703  -0.00864518  1
  V  V9  1  0.12797090  0.50118114  0.12300472  1
  V  V10  1  0.87427385  0.12595731  0.25146247  1
  V  V11  1  0.25852118  0.62345752  0.87068995  1
  V  V12  1  0.74986901  0.62940537  0.87812846  1
  V  V13  1  0.86996476  0.87333682  0.50087398  1
  V  V14  1  0.87162359  0.62446388  0.24710851  1
  V  V15  1  0.35968363  0.00418181  0.37483375  1
  V  V16  1  0.50070302  0.13449567  0.63277471  1
  V  V17  1  0.50102564  0.00077065  0.50220565  1
  V  V18  1  0.74994747  0.25024628  0.49796001  1
  V  V19  1  0.37623917  -0.00536418  0.86375276  1
  V  V20  1  0.26212720  0.61937408  0.37487971  1
  V  V21  1  0.88560456  0.50091574  0.37051083  1
  V  V22  1  0.74940873  0.61807879  0.36875701  1
  V  V23  1  0.48789764  0.49946887  0.49429803  1
  V  V24  1  -0.00071393  0.12195947  0.62691993  1
  V  V25  1  0.75109237  0.49887594  0.74805085  1
  V  V26  1  0.87134449  0.87712231  -0.00157117  1
  V  V27  1  0.73674737  0.87645042  0.12756784  1
  V  V28  1  0.35737410  0.12714936  0.25724311  1
  V  V29  1  0.13021887  0.49976416  0.62551700  1
  V  V30  1  0.25127329  0.11692776  0.87320730  1
  V  V31  1  0.49887517  0.62377591  0.63658160  1
  V  V32  1  0.87011623  -0.00086538  0.37704777  1
  V  V33  1  0.50203297  0.75395056  0.24962362  1
  V  V34  1  0.62441272  0.49884764  0.62222062  1
  V  V35  1  0.00147384  0.37467804  0.87465757  1
  V  V36  1  0.13183720  -0.00927866  0.63434271  1
  V  V37  1  0.73484252  -0.00353690  0.24827506  1
  V  V38  1  0.62491946  0.37752828  0.25077599  1
  V  V39  1  0.62379109  0.62209571  0.49844921  1
  V  V40  1  0.62267426  0.75055045  0.86151287  1
  V  V41  1  0.13826229  0.12445866  0.49551042  1
  V  V42  1  0.24881617  0.37736909  0.12205428  1
  V  V43  1  0.00265798  0.12136676  0.12295284  1
  V  V44  1  0.37089338  0.35813627  0.49456976  1
  V  V45  1  0.24173690  0.88373837  0.13743626  1
  V  V46  1  0.74657635  0.12544204  0.37618220  1
  V  V47  1  0.00188565  0.62397021  0.62446764  1
  V  V48  1  0.37611550  0.13875435  0.74787725  1
  V  V49  1  0.12788318  0.24610168  0.87683612  1
  V  V50  1  0.12764145  0.37347744  0.74845942  1
  V  V51  1  0.87173745  0.75175184  0.62453967  1
  V  V52  1  0.61972537  0.12098207  0.01680813  1
  V  V53  1  0.12766968  0.62865787  0.49912513  1
  V  V54  1  0.62657633  0.24471642  0.87285062  1
  V  V55  1  0.88404426  0.37646214  0.49290100  1
  V  V56  1  0.25723107  0.35581665  0.62351876  1
  V  V57  1  0.37837431  0.24666379  0.12596286  1
  V  V58  1  0.62126069  0.36857963  0.74816047  1
  V  V59  1  0.87090748  0.75211025  0.12404352  1
  V  V60  1  0.50781202  0.87183683  0.86455465  1
  V  V61  1  0.75077036  0.37744659  0.12608646  1
  V  V62  1  0.62602212  0.75473271  0.37087062  1
  V  V63  1  0.63070491  0.50121243  0.12834246  1
  V  V64  1  0.00617992  0.75800769  0.75631523  1
  V  V65  1  0.49807069  0.24269739  0.24824315  1
  V  V66  1  0.11706159  0.38327646  0.26040849  1
  V  V67  1  -0.00017954  0.63290576  0.12533391  1
  V  V68  1  0.87502827  0.25265651  0.12579472  1
  V  V69  1  0.37724135  0.37522716  -0.00264277  1
  V  V70  1  0.74898897  0.75099083  0.50243395  1
  V  V71  1  0.38150134  0.74404067  0.63809792  1
  V  V72  1  0.87591318  0.49879023  0.87374329  1
  V  V73  1  0.25333063  0.24781496  -0.00251776  1
  V  V74  1  0.62592573  -0.01524290  0.62915818  1
  V  V75  1  0.37567627  0.74728952  0.12569070  1
  V  V76  1  0.50207299  0.62539804  0.12390867  1
  V  V77  1  0.00009548  0.24848102  0.75178216  1
  V  V78  1  0.50201412  0.49862118  -0.00167978  1
  V  V79  1  0.87545990  0.62420193  0.74895414  1
  V  V80  1  0.75054889  0.37506385  0.62250348  1
  V  V81  1  0.50090076  0.36957546  0.87125421  1
  V  V82  1  0.62246787  0.25228105  0.37557389  1
  V  V83  1  0.86776018  0.12477955  0.75278723  1
  V  V84  1  0.74575437  -0.01696697  0.74853830  1
  Zn  Zn85  1  0.14149480  0.11922489  0.01971556  1
  Zn  Zn86  1  0.26099767  0.87761706  0.63352962  1
  Zn  Zn87  1  0.26402861  0.49505785  0.25715830  1
  Zn  Zn88  1  0.12226363  0.76444960  0.34714412  1
  Zn  Zn89  1  0.38411511  0.50484312  0.86323322  1
  Zn  Zn90  1  0.87513987  0.00050349  0.87626172  1
  Zn  Zn91  1  0.74761450  0.12140361  0.87862338  1
  Zn  Zn92  1  0.75002740  0.24693995  -0.00020850  1
  Zn  Zn93  1  0.50918282  -0.00115950  0.01438769  1
  Zn  Zn94  1  0.48384347  0.38200865  0.36635506  1
  Zn  Zn95  1  0.00717039  0.49697340  0.49214059  1
  Zn  Zn96  1  -0.00555487  0.26416374  0.25988229  1
  Zn  Zn97  1  0.15056616  0.88262614  0.78026358  1
  Zn  Zn98  1  0.00040742  0.86573148  0.36796375  1
  Zn  Zn99  1  0.62428904  0.12669698  0.50403092  1
  Zn  Zn100  1  0.12484928  0.24605508  0.37959131  1
  Zn  Zn101  1  0.01163364  0.87499844  0.88293424  1
  Zn  Zn102  1  0.38509071  0.61449529  0.26019022  1
  Zn  Zn103  1  0.87383896  0.37453284  -0.00113298  1
  Zn  Zn104  1  0.37426073  0.87520117  0.50235896  1
  Zn  Zn105  1  0.25949301  0.50397484  0.74570318  1
  Zn  Zn106  1  0.00880025  -0.00183953  -0.00171470  1
  Zn  Zn107  1  0.18592675  0.19881077  0.19272738  1
  Zn  Zn108  1  0.18618532  0.17975140  0.69039442  1
  Zn  Zn109  1  0.19449995  0.69166808  0.18578298  1
  Zn  Zn110  1  0.18962527  0.69473330  0.68747873  1
  Zn  Zn111  1  0.68970385  0.19020178  0.19042998  1
  Zn  Zn112  1  0.68540442  0.18450833  0.68488284  1
  Zn  Zn113  1  0.68867370  0.69232897  0.18710589  1
  Zn  Zn114  1  0.68630595  0.68500344  0.68628591  1
  Zn  Zn115  1  0.29993830  0.31077287  0.31309298  1
  Zn  Zn116  1  0.31333645  0.31339526  0.81046300  1
  Zn  Zn117  1  0.31445105  0.81011464  0.31671696  1
  Zn  Zn118  1  0.31790132  0.80714406  0.81331260  1
  Zn  Zn119  1  0.80944735  0.31609823  0.31278254  1
  Zn  Zn120  1  0.81063747  0.31165131  0.81227889  1
  Zn  Zn121  1  0.81433358  0.81135952  0.30937897  1
  Zn  Zn122  1  0.81329462  0.80681900  0.81393158  1
  Zn  Zn123  1  0.19500086  0.43890801  0.44227658  1
  Zn  Zn124  1  0.18892549  0.43916364  0.93594403  1
  Zn  Zn125  1  0.18153415  0.93274718  0.44639163  1
  Zn  Zn126  1  0.18727084  0.94186177  0.94930183  1
  Zn  Zn127  1  0.68858568  0.43697672  0.43699605  1
  Zn  Zn128  1  0.68813825  0.43786066  0.93846916  1
  Zn  Zn129  1  0.68512856  0.93895796  0.43960100  1
  Zn  Zn130  1  0.68928893  0.93958186  0.93967753  1
  Zn  Zn131  1  0.34340946  0.04711328  0.07680069  1
  Zn  Zn132  1  0.31590834  0.06283322  0.56649053  1
  Zn  Zn133  1  0.31490260  0.56230449  0.05698096  1
  Zn  Zn134  1  0.31413659  0.56351040  0.56487445  1
  Zn  Zn135  1  0.80663879  0.06040843  0.06295482  1
  Zn  Zn136  1  0.80758413  0.06181841  0.56693685  1
  Zn  Zn137  1  0.81290281  0.56101171  0.05985894  1
  Zn  Zn138  1  0.81402188  0.56199803  0.55730637  1
  Zn  Zn139  1  0.44029162  0.43563182  0.18345271  1
  Zn  Zn140  1  0.43564491  0.43745658  0.68352417  1
  Zn  Zn141  1  0.43329721  0.93900999  0.19260264  1
  Zn  Zn142  1  0.44081739  0.93455467  0.68603342  1
  Zn  Zn143  1  0.93625232  0.44800764  0.18728591  1
  Zn  Zn144  1  0.94027999  0.43684836  0.68483254  1
  Zn  Zn145  1  0.92730346  0.94411864  0.18345213  1
  Zn  Zn146  1  0.93242980  0.93603899  0.68758494  1
  Zn  Zn147  1  0.05754760  0.05985811  0.31583597  1
  Zn  Zn148  1  0.06158411  0.05686389  0.81917233  1
  Zn  Zn149  1  0.07774779  0.59660207  0.29653534  1
  Zn  Zn150  1  0.06518261  0.56373734  0.80871082  1
  Zn  Zn151  1  0.55782977  0.06692991  0.31273916  1
  Zn  Zn152  1  0.56130574  0.05644699  0.81403955  1
  Zn  Zn153  1  0.56142614  0.56288304  0.31292066  1
  Zn  Zn154  1  0.56730712  0.55684840  0.81327170  1
  Zn  Zn155  1  0.43834258  0.18557100  0.43562734  1
  Zn  Zn156  1  0.44055817  0.18579092  0.93657138  1
  Zn  Zn157  1  0.44035908  0.68941487  0.44544581  1
  Zn  Zn158  1  0.43977278  0.69009865  0.93694933  1
  Zn  Zn159  1  0.94240311  0.18933774  0.43539872  1
  Zn  Zn160  1  0.93636859  0.18941984  0.93917705  1
  Zn  Zn161  1  0.94183167  0.68621843  0.43406389  1
  Zn  Zn162  1  0.93418942  0.69096277  0.94009969  1
  Zn  Zn163  1  0.06238678  0.30889104  0.06270786  1
  Zn  Zn164  1  0.06519799  0.30915980  0.56383319  1
  Zn  Zn165  1  0.06203365  0.81589552  0.06404370  1
  Zn  Zn166  1  0.05972234  0.81092737  0.55962004  1
  Zn  Zn167  1  0.56338930  0.30853280  0.06027536  1
  Zn  Zn168  1  0.55893794  0.31525611  0.55897160  1
  Zn  Zn169  1  0.56203986  0.81096635  0.05729338  1
  Zn  Zn170  1  0.55857208  0.80933220  0.56039511  1
  O  O171  1  0.10566191  0.13625867  0.13563522  1
  O  O172  1  0.11498806  0.11271616  0.62348881  1
  O  O173  1  0.11822031  0.61727840  0.11213794  1
  O  O174  1  0.12414981  0.61680418  0.62068684  1
  O  O175  1  0.62514254  0.13189708  0.11564589  1
  O  O176  1  0.61160062  0.11410949  0.62739314  1
  O  O177  1  0.62455456  0.62059302  0.11837811  1
  O  O178  1  0.61941625  0.61905790  0.61742461  1
  O  O179  1  0.36753700  0.37278945  0.39072032  1
  O  O180  1  0.38670365  0.37214545  0.87941809  1
  O  O181  1  0.38478197  0.88793576  0.37667643  1
  O  O182  1  0.38797711  0.87428895  0.88012633  1
  O  O183  1  0.86785123  0.38694837  0.38197871  1
  O  O184  1  0.88216722  0.38064408  0.87389744  1
  O  O185  1  0.87680555  0.87974347  0.38353979  1
  O  O186  1  0.86857611  0.86937729  0.89371343  1
  O  O187  1  0.26321485  -0.00717446  0.38705709  1
  O  O188  1  0.25919510  0.01071443  0.87451866  1
  O  O189  1  0.25317903  0.51619407  0.37922807  1
  O  O190  1  0.25355338  0.51389562  0.87556662  1
  O  O191  1  0.75163862  0.00445714  0.37000048  1
  O  O192  1  0.75222576  0.00139650  0.86003755  1
  O  O193  1  0.75635037  0.51444531  0.38136719  1
  O  O194  1  0.75440334  0.50689257  0.86820630  1
  O  O195  1  0.23963494  0.49702743  0.11701725  1
  O  O196  1  0.23962713  0.49721048  0.62592888  1
  O  O197  1  0.26036817  0.98188410  0.12413464  1
  O  O198  1  0.23498085  0.99792710  0.62322634  1
  O  O199  1  0.73915032  0.49327342  0.12078720  1
  O  O200  1  0.74540081  0.49571373  0.62734283  1
  O  O201  1  0.75419829  0.98663003  0.13590080  1
  O  O202  1  0.74013312  1.00278869  0.63831319  1
  O  O203  1  0.01345381  0.38535524  0.24451272  1
  O  O204  1  0.00662855  0.36827698  0.75402224  1
  O  O205  1  0.01681309  0.91294013  0.25383630  1
  O  O206  1  -0.00935042  0.86110067  0.75161372  1
  O  O207  1  0.50963585  0.36655255  0.25012031  1
  O  O208  1  0.51312137  0.38079369  0.75658491  1
  O  O209  1  0.49376831  0.86676918  0.26028702  1
  O  O210  1  0.50328691  0.87738693  0.76627130  1
  O  O211  1  0.48752349  0.13876582  0.25538845  1
  O  O212  1  0.49189246  0.11942107  0.74047717  1
  O  O213  1  0.50243973  0.63592406  0.24325215  1
  O  O214  1  0.50879745  0.61636010  0.73549254  1
  O  O215  1  0.98420932  0.12295817  0.24263718  1
  O  O216  1  0.99050777  0.12692938  0.74286131  1
  O  O217  1  0.98245416  0.61497727  0.23204229  1
  O  O218  1  0.99497114  0.63433717  0.74446792  1
  O  O219  1  0.37429106  0.25401145  0.00705665  1
  O  O220  1  0.37966057  0.25963240  0.50103572  1
  O  O221  1  0.37043146  0.75759720  0.00649546  1
  O  O222  1  0.36672878  0.75339883  0.50497905  1
  O  O223  1  0.87182081  0.25421432  0.01257123  1
  O  O224  1  0.87052417  0.25730505  0.50268045  1
  O  O225  1  0.87394826  0.76032633  0.01266447  1
  O  O226  1  0.86758763  0.75343344  0.50517189  1
  O  O227  1  0.11542145  0.22585441  0.50587790  1
  O  O228  1  0.13426411  0.24230804  0.99515546  1
  O  O229  1  0.13886178  0.73779727  0.51648458  1
  O  O230  1  0.13477974  0.73927378  1.00725113  1
  O  O231  1  0.63130346  0.25160405  0.49371529  1
  O  O232  1  0.62663279  0.23895281  0.99180282  1
  O  O233  1  0.63098456  0.74425861  0.49145119  1
  O  O234  1  0.62267082  0.73539907  0.99208569  1
  O  O235  1  0.48866854  0.25838472  0.13514843  1
  O  O236  1  0.50612767  0.23261336  0.62196837  1
  O  O237  1  0.49618472  0.74708374  0.13150009  1
  O  O238  1  0.49037264  0.73793088  0.61643813  1
  O  O239  1  0.98704791  0.24698369  0.13285857  1
  O  O240  1  0.99481291  0.24013929  0.63163382  1
  O  O241  1  0.99075008  0.73798066  0.11859765  1
  O  O242  1  0.98851023  0.74440940  0.63165413  1
  O  O243  1  0.01249234  0.24340487  0.36913230  1
  O  O244  1  0.00656815  0.25383122  0.87062819  1
  O  O245  1  0.00479760  0.75189138  0.37422551  1
  O  O246  1  -0.00821611  0.75011027  0.85929669  1
  O  O247  1  0.50437787  0.25602451  0.36606234  1
  O  O248  1  0.51127301  0.26219874  0.87823758  1
  O  O249  1  0.50583306  0.75761581  0.37029393  1
  O  O250  1  0.50778542  0.76240850  0.87937931  1
  O  O251  1  0.23633348  0.11973408  0.50918820  1
  O  O252  1  0.25900934  0.13202133  0.98637141  1
  O  O253  1  0.24774275  0.63153670  0.49440082  1
  O  O254  1  0.24296987  0.63156473  0.99267022  1
  O  O255  1  0.74857154  0.13175681  0.49504369  1
  O  O256  1  0.73655924  0.12588817  0.99733492  1
  O  O257  1  0.74555448  0.63382712  0.49004344  1
  O  O258  1  0.74095002  0.61673167  0.98781792  1
  O  O259  1  0.25688886  0.36823921  0.00081903  1
  O  O260  1  0.26012701  0.37619178  0.51349022  1
  O  O261  1  0.26139021  0.86525879  0.00673625  1
  O  O262  1  0.25229288  0.86356757  0.51166796  1
  O  O263  1  0.75012666  0.37314763  0.01361096  1
  O  O264  1  0.75965648  0.37013945  0.50426381  1
  O  O265  1  0.76041296  0.88208992  0.01625327  1
  O  O266  1  0.75772137  0.86235255  0.49291886  1
  O  O267  1  0.12884635  0.49989346  0.23550256  1
  O  O268  1  0.12980062  0.49251263  0.74160310  1
  O  O269  1  0.07890516  0.96582286  0.24920105  1
  O  O270  1  0.11698741  0.99397218  0.73732502  1
  O  O271  1  0.61711792  0.49130343  0.23827449  1
  O  O272  1  0.63277394  0.48889953  0.74294095  1
  O  O273  1  0.63549964  1.00613902  0.25478060  1
  O  O274  1  0.63848773  1.00067944  0.74565072  1
  O  O275  1  0.37502029  0.01047169  0.26852776  1
  O  O276  1  0.38068510  0.00207125  0.76033096  1
  O  O277  1  0.37558159  0.50406039  0.24072198  1
  O  O278  1  0.37131516  0.49620491  0.75166742  1
  O  O279  1  0.86277359  0.00969130  0.25750350  1
  O  O280  1  0.86130922  0.00746712  0.74651390  1
  O  O281  1  0.86941023  0.51210885  0.25641144  1
  O  O282  1  0.87148788  0.50455963  0.75328834  1
  O  O283  1  0.12699188  0.39322305  0.36007898  1
  O  O284  1  0.12212353  0.36774695  0.86910373  1
  O  O285  1  0.11477832  0.86895187  0.38767849  1
  O  O286  1  0.12456983  0.87202964  0.88645196  1
  O  O287  1  0.62866317  0.37042449  0.36304354  1
  O  O288  1  0.62100042  0.36816378  0.86802312  1
  O  O289  1  0.61590629  0.86415814  0.38079929  1
  O  O290  1  0.61474760  0.86597722  0.88596399  1
  O  O291  1  0.36510119  0.14359956  0.13758228  1
  O  O292  1  0.38616013  0.11850118  0.63912865  1
  O  O293  1  0.38355280  0.63706383  0.11734893  1
  O  O294  1  0.38583942  0.63441323  0.62019852  1
  O  O295  1  0.87631675  0.13479629  0.13324440  1
  O  O296  1  0.88069938  0.12964311  0.63294273  1
  O  O297  1  0.87689877  0.63101411  0.12643117  1
  O  O298  1  0.87961286  0.63148348  0.62783234  1
  O  O299  1  0.25676650  0.25848449  0.11780121  1
  O  O300  1  0.24559153  0.25780308  0.62640312  1
  O  O301  1  0.26065130  0.74924976  0.11437798  1
  O  O302  1  0.26852219  0.74152451  0.61757388  1
  O  O303  1  0.75915419  0.25930671  0.12548715  1
  O  O304  1  0.75509755  0.25467118  0.61843468  1
  O  O305  1  0.75701275  0.76556083  0.13044050  1
  O  O306  1  0.75770375  0.74002157  0.61244805  1
  O  O307  1  0.23363028  0.25421513  0.37839788  1
  O  O308  1  0.24793453  0.24263246  0.87843536  1
  O  O309  1  0.24819984  0.74174214  0.38654757  1
  O  O310  1  0.25784097  0.73864879  0.88875257  1
  O  O311  1  0.74344839  0.24502423  0.37869588  1
  O  O312  1  0.73926451  0.24991518  0.87819051  1
  O  O313  1  0.74329453  0.74324043  0.38082977  1
  O  O314  1  0.74228685  0.73549072  0.87145209  1
  O  O315  1  -0.00294462  0.13229905  0.01803504  1
  O  O316  1  -0.00604286  0.11411307  0.51457989  1
  O  O317  1  0.00566215  0.62168005  0.00360182  1
  O  O318  1  0.01109143  0.62414379  0.50804586  1
  O  O319  1  0.51631118  0.12417728  -0.00539431  1
  O  O320  1  0.49839788  0.11560744  0.51262919  1
  O  O321  1  0.51009191  0.62003600  0.00379612  1
  O  O322  1  0.50650188  0.61602378  0.50527080  1
  O  O323  1  0.48413179  0.38049599  0.50084183  1
  O  O324  1  0.49852264  0.37871497  0.99132368  1
  O  O325  1  0.49887732  0.88428576  0.48958606  1
  O  O326  1  0.49020657  0.87571431  0.99618007  1
  O  O327  1  0.98767865  0.37536771  0.50583077  1
  O  O328  1  1.00018736  0.38059718  0.99200963  1
  O  O329  1  0.98480713  0.88433935  0.50554734  1
  O  O330  1  0.98375303  0.87552383  1.00425490  1
  O  O331  1  0.50607338  0.49666646  0.38791085  1
  O  O332  1  0.50489358  0.48747984  0.88092309  1
  O  O333  1  0.49974806  0.99438291  0.38404743  1
  O  O334  1  0.49548918  0.98556502  0.88111349  1
  O  O335  1  0.98641063  0.51380345  0.37349840  1
  O  O336  1  0.99601981  0.49540750  0.87660053  1
  O  O337  1  0.98668647  1.00379748  0.39386882  1
  O  O338  1  0.99012540  0.99321021  0.87874767  1
  O  O339  1  -0.01163372  0.01987089  0.12081185  1
  O  O340  1  0.00074064  0.00555628  0.62104267  1
  O  O341  1  0.00700699  0.51030953  0.11507893  1
  O  O342  1  0.01389723  0.50470794  0.62533221  1
  O  O343  1  0.45083397  0.00813723  0.10976664  1
  O  O344  1  0.50593270  0.00389875  0.61796478  1
  O  O345  1  0.51275237  0.50489252  0.11721925  1
  O  O346  1  0.50605022  0.50476250  0.61456012  1
  O  O347  1  0.23704802  0.38151306  0.23951080  1
  O  O348  1  0.24599970  0.37306828  0.73625605  1
  O  O349  1  0.25546856  0.86282281  0.23577920  1
  O  O350  1  0.25020625  0.85873689  0.74261974  1
  O  O351  1  0.73584027  0.36979604  0.23802387  1
  O  O352  1  0.74353926  0.37985481  0.74233893  1
  O  O353  1  0.75338180  0.88265437  0.23928067  1
  O  O354  1  0.75595109  0.88477306  0.75090428  1
  O  O355  1  0.25811445  0.13246015  0.25267297  1
  O  O356  1  0.26752782  0.12897094  0.75678993  1
  O  O357  1  0.25792535  0.62428473  0.26759155  1
  O  O358  1  0.24138671  0.63032750  0.76950608  1
  O  O359  1  0.75660659  0.11886335  0.25481118  1
  O  O360  1  0.76013886  0.12312921  0.74964946  1
  O  O361  1  0.75632748  0.63135593  0.25911589  1
  O  O362  1  0.75468358  0.61807866  0.75723675  1
  O  O363  1  0.37574432  0.11205505  0.37340459  1
  O  O364  1  0.37529619  0.11712807  0.86363598  1
  O  O365  1  0.36537377  0.63130764  0.38010490  1
  O  O366  1  0.36298578  0.62366919  0.88253359  1
  O  O367  1  0.86691361  0.12079294  0.36878833  1
  O  O368  1  0.87296805  0.12635289  0.86386008  1
  O  O369  1  0.86709643  0.62108848  0.36692866  1
  O  O370  1  0.86688502  0.62018386  0.87084079  1
  O  O371  1  0.12850318  0.38718957  0.12393495  1
  O  O372  1  0.13605576  0.37945199  0.62627737  1
  O  O373  1  0.14362842  0.86825155  0.12019948  1
  O  O374  1  0.12020263  0.88960247  0.62011334  1
  O  O375  1  0.63005212  0.38159344  0.12983996  1
  O  O376  1  0.62933295  0.37795309  0.63001910  1
  O  O377  1  0.63807514  0.87038554  0.11904242  1
  O  O378  1  0.61753258  0.88529197  0.62188256  1
  O  O379  1  0.12102537  0.27644873  0.24712729  1
  O  O380  1  0.11907929  0.25316293  0.75470610  1
  O  O381  1  0.11345822  0.70143926  0.25632715  1
  O  O382  1  0.10653740  0.75470603  0.74098364  1
  O  O383  1  0.61613760  0.25668478  0.25329429  1
  O  O384  1  0.63228191  0.26174870  0.75569728  1
  O  O385  1  0.61468316  0.74727226  0.26015941  1
  O  O386  1  0.62758858  0.74702873  0.76192472  1
  O  O387  1  0.37922618  0.24821192  0.24638473  1
  O  O388  1  0.38200922  0.23707505  0.75421831  1
  O  O389  1  0.38694775  0.74483404  0.24263861  1
  O  O390  1  0.38028977  0.74524882  0.73640708  1
  O  O391  1  0.87210520  0.24291173  0.24477309  1
  O  O392  1  0.87959831  0.24354905  0.74404683  1
  O  O393  1  0.87253189  0.73850550  0.23746194  1
  O  O394  1  0.87811113  0.74329342  0.74026884  1
  O  O395  1  0.38456940  0.49299564  0.50661408  1
  O  O396  1  0.38549314  0.49217798  0.99702224  1
  O  O397  1  0.38498266  1.00024077  0.49274171  1
  O  O398  1  0.36834440  0.98464008  0.97887618  1
  O  O399  1  0.87939333  0.49296637  0.49138196  1
  O  O400  1  0.88208796  0.49799661  0.99189886  1
  O  O401  1  0.87402644  0.99111843  0.50056953  1
  O  O402  1  0.87505730  0.98727574  1.00092949  1
  O  O403  1  0.12094639  0.01232210  0.00284613  1
  O  O404  1  0.11242464  0.00868155  0.51414249  1
  O  O405  1  0.11965795  0.50771877  0.00426792  1
  O  O406  1  0.12552719  0.50693628  0.51005006  1
  O  O407  1  0.62531575  0.01570788  -0.00171063  1
  O  O408  1  0.61739237  0.00320493  0.50904763  1
  O  O409  1  0.62120703  0.50871758  0.00723927  1
  O  O410  1  0.61904598  0.50244581  0.50504039  1
  O  O411  1  0.36937353  0.36661963  0.11731913  1
  O  O412  1  0.36223496  0.37124678  0.61819132  1
  O  O413  1  0.36922843  0.85987654  0.11891070  1
  O  O414  1  0.38200730  0.85888683  0.62265001  1
  O  O415  1  0.86676989  0.37122904  0.12902978  1
  O  O416  1  0.87021880  0.37061601  0.61667725  1
  O  O417  1  0.87020128  0.86767678  0.11975177  1
  O  O418  1  0.87431178  0.86128937  0.61517772  1
  O  O419  1  0.12309791  0.11129880  0.39383028  1
  O  O420  1  0.13906103  0.13046505  0.86578361  1
  O  O421  1  0.13862687  0.62091005  0.39353818  1
  O  O422  1  0.13366991  0.61977696  0.88647582  1
  O  O423  1  0.62864718  0.13461736  0.37839780  1
  O  O424  1  0.62459081  0.13681942  0.87043953  1
  O  O425  1  0.63126545  0.63388196  0.37780482  1
  O  O426  1  0.63046696  0.62989568  0.87991776  1
