# generated using pymatgen
data_V85Zn86O256
_symmetry_space_group_name_H-M   'P 1'
_cell_length_a   16.98854561
_cell_length_b   16.96691361
_cell_length_c   16.96237743
_cell_angle_alpha   90.20725691
_cell_angle_beta   90.01966236
_cell_angle_gamma   89.86207514
_symmetry_Int_Tables_number   1
_chemical_formula_structural   V85Zn86O256
_chemical_formula_sum   'V85 Zn86 O256'
_cell_volume   4889.24328052
_cell_formula_units_Z   1
loop_
 _symmetry_equiv_pos_site_id
 _symmetry_equiv_pos_as_xyz
  1  'x, y, z'
loop_
 _atom_site_type_symbol
 _atom_site_label
 _atom_site_symmetry_multiplicity
 _atom_site_fract_x
 _atom_site_fract_y
 _atom_site_fract_z
 _atom_site_occupancy
  V  V0  1  0.24957690  0.74588653  0.49713926  1
  V  V1  1  0.00367805  0.12703928  0.11747080  1
  V  V2  1  0.24956966  0.87192029  0.11872474  1
  V  V3  1  0.75101295  0.12516382  0.87555142  1
  V  V4  1  0.37664713  0.00001619  0.37481267  1
  V  V5  1  0.25171399  -0.00748612  0.74455986  1
  V  V6  1  0.36930274  0.87483639  0.50479390  1
  V  V7  1  0.63135875  -0.00595165  0.62389398  1
  V  V8  1  0.62750494  0.38851188  0.74710305  1
  V  V9  1  0.35940377  0.50536789  0.37375106  1
  V  V10  1  0.87975952  0.62356554  0.73248797  1
  V  V11  1  0.37014995  0.62448164  0.74847753  1
  V  V12  1  0.87279090  0.37696588  0.50318479  1
  V  V13  1  0.25235458  0.25209696  -0.00272563  1
  V  V14  1  0.12989310  -0.00619483  0.62538655  1
  V  V15  1  -0.00346346  0.50571520  0.51385389  1
  V  V16  1  0.00107051  0.00050782  0.49841287  1
  V  V17  1  -0.00038926  0.61560881  0.11926584  1
  V  V18  1  0.50622094  0.24681303  0.24299406  1
  V  V19  1  0.73378727  0.49740826  0.24832940  1
  V  V20  1  0.74834838  -0.01369895  0.24425899  1
  V  V21  1  0.13606972  0.37878307  0.74603167  1
  V  V22  1  0.50218322  0.62713401  0.63033145  1
  V  V23  1  0.12605171  0.12510753  0.50081886  1
  V  V24  1  0.00300485  0.87653843  0.87935573  1
  V  V25  1  0.75309043  -0.00538085  0.74932481  1
  V  V26  1  0.49620392  0.74223960  0.24793460  1
  V  V27  1  0.12354668  0.25021284  0.37780536  1
  V  V28  1  0.25343440  0.12495081  0.37255306  1
  V  V29  1  0.50159316  0.24953961  0.74996394  1
  V  V30  1  0.37069733  0.49932554  0.87095189  1
  V  V31  1  0.87389754  0.62706103  0.24410648  1
  V  V32  1  0.62384603  0.62608948  0.50220142  1
  V  V33  1  0.62671020  0.12376662  0.49752610  1
  V  V34  1  0.88163611  0.00152723  0.88408603  1
  V  V35  1  0.12451843  0.25124515  0.87473676  1
  V  V36  1  0.50222185  0.87277535  0.36977683  1
  V  V37  1  0.87361117  0.25070111  0.62647155  1
  V  V38  1  0.24960684  0.62718902  0.87853893  1
  V  V39  1  -0.00143288  0.25343742  0.74952473  1
  V  V40  1  0.74944145  0.24992127  0.50018216  1
  V  V41  1  0.73681620  0.37784220  0.12833712  1
  V  V42  1  0.12732455  0.87725208  0.24549556  1
  V  V43  1  0.75830117  0.60532775  0.87273442  1
  V  V44  1  0.87667784  0.50221544  0.37213853  1
  V  V45  1  0.87507033  0.00117342  0.37276114  1
  V  V46  1  0.87515221  0.25327371  0.12465908  1
  V  V47  1  0.37377793  0.75252013  0.62874135  1
  V  V48  1  -0.00034157  0.12719113  0.62503903  1
  V  V49  1  0.86988294  0.86711649  0.00452100  1
  V  V50  1  0.12210393  0.00471038  0.11504954  1
  V  V51  1  0.35848989  0.62084951  0.25210108  1
  V  V52  1  -0.00301892  0.39019999  0.87832640  1
  V  V53  1  0.00574039  0.87706003  0.37214352  1
  V  V54  1  0.37489129  0.25149773  0.62499211  1
  V  V55  1  0.50026555  0.38143775  0.87619983  1
  V  V56  1  -0.00091797  0.25259515  0.25130307  1
  V  V57  1  0.12668853  0.74989104  0.87793475  1
  V  V58  1  0.74508368  0.38737294  0.62969447  1
  V  V59  1  0.62916492  -0.01989405  0.12524580  1
  V  V60  1  0.87746772  0.39012863  -0.00228403  1
  V  V61  1  0.37672389  0.12310437  0.74915976  1
  V  V62  1  0.62516943  0.24872077  0.87404495  1
  V  V63  1  0.37689629  -0.00118164  0.87307127  1
  V  V64  1  0.50070936  0.00183875  0.00701533  1
  V  V65  1  0.37854283  0.24040915  0.12153229  1
  V  V66  1  0.12564858  0.62494759  0.49904081  1
  V  V67  1  0.62385950  0.25839347  0.37302579  1
  V  V68  1  0.14538910  0.50067211  0.62920549  1
  V  V69  1  0.74943280  0.25115231  0.00142398  1
  V  V70  1  0.50313490  0.50034396  0.50306761  1
  V  V71  1  -0.00113505  0.37481191  0.37659937  1
  V  V72  1  0.62636987  0.86687935  0.74763258  1
  V  V73  1  0.50340517  0.12473263  0.62517607  1
  V  V74  1  0.37451674  0.37601837  0.50439436  1
  V  V75  1  0.37341513  0.86908462  -0.00111433  1
  V  V76  1  0.12105861  0.61712718  -0.00291275  1
  V  V77  1  0.62316655  0.12282187  0.00925435  1
  V  V78  1  0.37532289  0.74359205  0.12402779  1
  V  V79  1  0.62323163  0.74784486  0.37307623  1
  V  V80  1  0.25101699  0.25450686  0.50594767  1
  V  V81  1  0.50288382  0.86857664  0.87079900  1
  V  V82  1  -0.00302450  0.75121057  0.24209762  1
  V  V83  1  0.61720580  0.61597215  0.00985659  1
  V  V84  1  0.63156099  0.74739527  0.87641822  1
  Zn  Zn85  1  0.37612417  0.37976932  0.00510492  1
  Zn  Zn86  1  0.12827879  0.86783510  0.74670088  1
  Zn  Zn87  1  0.74789470  0.62479804  0.37675248  1
  Zn  Zn88  1  0.25426771  0.37959016  0.13591633  1
  Zn  Zn89  1  0.74784298  0.74665212  0.01177502  1
  Zn  Zn90  1  0.50278766  -0.00384752  0.49927688  1
  Zn  Zn91  1  0.12412463  0.12497551  -0.00364856  1
  Zn  Zn92  1  0.13816435  0.50105009  0.13441861  1
  Zn  Zn93  1  0.24873746  0.12304972  0.87253459  1
  Zn  Zn94  1  0.87117103  0.12506419  0.24604344  1
  Zn  Zn95  1  0.87170694  0.86959446  0.51555732  1
  Zn  Zn96  1  0.38758755  0.11704923  0.24087535  1
  Zn  Zn97  1  0.81622369  0.81070967  0.17602448  1
  Zn  Zn98  1  0.87505285  0.12513665  0.75113537  1
  Zn  Zn99  1  0.13932693  0.38708406  0.25522253  1
  Zn  Zn100  1  0.50027076  0.50209087  0.02559497  1
  Zn  Zn101  1  0.13346621  0.73784003  0.36456105  1
  Zn  Zn102  1  0.25158223  0.00433368  0.24536101  1
  Zn  Zn103  1  0.76049151  0.75398687  0.52491144  1
  Zn  Zn104  1  0.50144428  0.38023187  0.36986681  1
  Zn  Zn105  1  -0.00604455  0.75046437  0.74117665  1
  Zn  Zn106  1  0.74893883  0.12488284  0.36895120  1
  Zn  Zn107  1  0.19919298  0.21420909  0.19822420  1
  Zn  Zn108  1  0.18768504  0.18449233  0.68972027  1
  Zn  Zn109  1  0.18606311  0.68823034  0.17927654  1
  Zn  Zn110  1  0.18900439  0.68808083  0.68633241  1
  Zn  Zn111  1  0.68963773  0.18301456  0.18987737  1
  Zn  Zn112  1  0.68972419  0.18844164  0.68819327  1
  Zn  Zn113  1  0.68136545  0.68490415  0.19032177  1
  Zn  Zn114  1  0.69448408  0.68030455  0.69064429  1
  Zn  Zn115  1  0.32261315  0.31119786  0.31395407  1
  Zn  Zn116  1  0.31401362  0.31166530  0.81315033  1
  Zn  Zn117  1  0.31149254  0.81266934  0.31194155  1
  Zn  Zn118  1  0.31262967  0.80934658  0.81145377  1
  Zn  Zn119  1  0.80960975  0.31543712  0.31293706  1
  Zn  Zn120  1  0.81230471  0.31928099  0.81369360  1
  Zn  Zn121  1  0.82587622  0.79755595  0.36192297  1
  Zn  Zn122  1  0.81284973  0.80811284  0.81174041  1
  Zn  Zn123  1  0.18285669  0.43560406  0.44209839  1
  Zn  Zn124  1  0.18981551  0.43766895  0.93570455  1
  Zn  Zn125  1  0.19052224  0.93724755  0.43770991  1
  Zn  Zn126  1  0.19043214  0.93792853  0.93376065  1
  Zn  Zn127  1  0.68904498  0.44012161  0.43983195  1
  Zn  Zn128  1  0.68538938  0.43553658  0.94131352  1
  Zn  Zn129  1  0.69032967  0.93247360  0.43499483  1
  Zn  Zn130  1  0.69129517  0.93716402  0.93633221  1
  Zn  Zn131  1  0.30770557  0.06275284  0.05787374  1
  Zn  Zn132  1  0.31344452  0.06391404  0.56203462  1
  Zn  Zn133  1  0.31583106  0.55854762  0.05832353  1
  Zn  Zn134  1  0.31416845  0.56626225  0.55988860  1
  Zn  Zn135  1  0.81234760  0.06201026  0.06367512  1
  Zn  Zn136  1  0.81387343  0.06068638  0.56058163  1
  Zn  Zn137  1  0.80168747  0.56961863  0.06551779  1
  Zn  Zn138  1  0.80905998  0.56731410  0.56175905  1
  Zn  Zn139  1  0.43666826  0.42845388  0.19018848  1
  Zn  Zn140  1  0.43881425  0.43957713  0.68841561  1
  Zn  Zn141  1  0.43890623  0.93386187  0.18725562  1
  Zn  Zn142  1  0.44357741  0.93755041  0.68569658  1
  Zn  Zn143  1  0.93877882  0.43755175  0.18597894  1
  Zn  Zn144  1  0.93244344  0.43857079  0.69679374  1
  Zn  Zn145  1  0.94115236  0.94445315  0.18523509  1
  Zn  Zn146  1  0.94605973  0.93925084  0.69399652  1
  Zn  Zn147  1  0.06330282  0.06685843  0.30571285  1
  Zn  Zn148  1  0.06193371  0.06316841  0.80966360  1
  Zn  Zn149  1  0.06213314  0.56175589  0.31383248  1
  Zn  Zn150  1  0.06007476  0.56814861  0.80258377  1
  Zn  Zn151  1  0.56675375  0.06086780  0.30855903  1
  Zn  Zn152  1  0.56431935  0.05911272  0.81485489  1
  Zn  Zn153  1  0.54902452  0.56511316  0.31321527  1
  Zn  Zn154  1  0.56104317  0.56783660  0.81454745  1
  Zn  Zn155  1  0.44219148  0.18782957  0.43615075  1
  Zn  Zn156  1  0.43943034  0.18614780  0.93541708  1
  Zn  Zn157  1  0.43577160  0.68570798  0.43772599  1
  Zn  Zn158  1  0.43924582  0.68703841  0.93503809  1
  Zn  Zn159  1  0.93553732  0.18647616  0.43924701  1
  Zn  Zn160  1  0.93702048  0.19533623  0.93651237  1
  Zn  Zn161  1  0.94583782  0.68599431  0.43857608  1
  Zn  Zn162  1  0.93871357  0.68855567  0.93229919  1
  Zn  Zn163  1  0.06529990  0.32278601  0.06161298  1
  Zn  Zn164  1  0.06239909  0.31788072  0.56454091  1
  Zn  Zn165  1  0.05989856  0.80860341  0.05677784  1
  Zn  Zn166  1  0.06217087  0.81326716  0.55920022  1
  Zn  Zn167  1  0.55823481  0.31147784  0.06030346  1
  Zn  Zn168  1  0.56284133  0.31444304  0.56321855  1
  Zn  Zn169  1  0.55857104  0.80471727  0.05936312  1
  Zn  Zn170  1  0.56089496  0.80936561  0.56111620  1
  O  O171  1  0.11930620  0.11953453  0.12611301  1
  O  O172  1  0.11918517  0.11781505  0.61957980  1
  O  O173  1  0.11790368  0.62492472  0.11336151  1
  O  O174  1  0.13047509  0.60899449  0.61782071  1
  O  O175  1  0.62996236  0.11665076  0.11174206  1
  O  O176  1  0.62338080  0.11727004  0.61694931  1
  O  O177  1  0.62253331  0.62674126  0.10829689  1
  O  O178  1  0.61206085  0.63113040  0.61562647  1
  O  O179  1  0.37690029  0.38385913  0.38757373  1
  O  O180  1  0.38440112  0.38286863  0.87021828  1
  O  O181  1  0.37881946  0.88338376  0.38220857  1
  O  O182  1  0.38276137  0.87654895  0.88016074  1
  O  O183  1  0.87775961  0.38362910  0.38242748  1
  O  O184  1  0.88400014  0.37155252  0.88531494  1
  O  O185  1  0.89441884  0.89034581  0.36374685  1
  O  O186  1  0.88263046  0.88290085  0.88283057  1
  O  O187  1  0.25920836  0.00793021  0.37399751  1
  O  O188  1  0.25853613  0.00177739  0.86482072  1
  O  O189  1  0.26124329  0.49622811  0.38626313  1
  O  O190  1  0.26175692  0.50940957  0.87540410  1
  O  O191  1  0.75792890  -0.00174583  0.36175929  1
  O  O192  1  0.75905525  0.00568066  0.86820805  1
  O  O193  1  0.75990243  0.49852949  0.36533070  1
  O  O194  1  0.74606222  0.50647866  0.87584310  1
  O  O195  1  0.25227439  0.49173305  0.11765331  1
  O  O196  1  0.24363185  0.49625571  0.62065688  1
  O  O197  1  0.24320293  0.99056260  0.12614647  1
  O  O198  1  0.24153785  1.00688498  0.63182300  1
  O  O199  1  0.75053107  0.49354384  0.14120309  1
  O  O200  1  0.75054607  0.48578452  0.61886207  1
  O  O201  1  0.74543684  1.00030901  0.13607230  1
  O  O202  1  0.74162929  1.00372310  0.63490077  1
  O  O203  1  -0.00578200  0.36360548  0.25872344  1
  O  O204  1  0.00624252  0.37033188  0.75798555  1
  O  O205  1  0.00927242  0.87112407  0.25056093  1
  O  O206  1  0.00599984  0.87338466  0.76742455  1
  O  O207  1  0.49432896  0.35345595  0.25574749  1
  O  O208  1  0.50747317  0.36874293  0.75507715  1
  O  O209  1  0.48812364  0.86113271  0.26267981  1
  O  O210  1  0.51288337  0.88344194  0.76181677  1
  O  O211  1  0.50205649  0.13799064  0.25514220  1
  O  O212  1  0.49743076  0.12860731  0.74578430  1
  O  O213  1  0.47854422  0.63578300  0.25508325  1
  O  O214  1  0.48949749  0.62158003  0.73907343  1
  O  O215  1  0.99376401  0.13600994  0.24013262  1
  O  O216  1  0.99827997  0.13448696  0.74240679  1
  O  O217  1  0.99319137  0.63399947  0.24395581  1
  O  O218  1  0.98774151  0.63091730  0.74396513  1
  O  O219  1  0.37114549  0.24837817  0.00325263  1
  O  O220  1  0.37074589  0.25656409  0.50326500  1
  O  O221  1  0.38477859  0.76181974  0.00775593  1
  O  O222  1  0.36761180  0.75496210  0.50467820  1
  O  O223  1  0.86765111  0.25799495  0.00929470  1
  O  O224  1  0.86964321  0.25714404  0.50499573  1
  O  O225  1  0.87297837  0.76479891  -0.00539259  1
  O  O226  1  0.86504517  0.75728647  0.46596184  1
  O  O227  1  0.13194037  0.24647386  0.49844451  1
  O  O228  1  0.13318429  0.25352095  0.98837943  1
  O  O229  1  0.13201253  0.74084302  0.50619213  1
  O  O230  1  0.12336737  0.73878098  0.98647195  1
  O  O231  1  0.62865929  0.24167856  0.49403198  1
  O  O232  1  0.62849181  0.24096512  0.99521864  1
  O  O233  1  0.61779769  0.73976230  0.48759310  1
  O  O234  1  0.62386069  0.73933976  0.99151513  1
  O  O235  1  0.49724510  0.24896948  0.13514066  1
  O  O236  1  0.49529263  0.24386367  0.63006819  1
  O  O237  1  0.48580485  0.75928745  0.13650429  1
  O  O238  1  0.48582480  0.73775250  0.61649585  1
  O  O239  1  0.99291039  0.24845799  0.13316733  1
  O  O240  1  0.99418925  0.24794576  0.62886913  1
  O  O241  1  1.00275818  0.74350264  0.13720900  1
  O  O242  1  0.97086111  0.78513431  0.62449226  1
  O  O243  1  0.00133812  0.25373376  0.37124378  1
  O  O244  1  0.00905143  0.25817484  0.86884424  1
  O  O245  1  0.00878394  0.76068192  0.36109609  1
  O  O246  1  0.01202142  0.75801761  0.87306767  1
  O  O247  1  0.50890919  0.25151954  0.36803670  1
  O  O248  1  0.50472608  0.25933635  0.86974198  1
  O  O249  1  0.50075017  0.75442926  0.36835553  1
  O  O250  1  0.51003214  0.76289620  0.87927828  1
  O  O251  1  0.24614748  0.13147299  0.49155416  1
  O  O252  1  0.24612751  0.13548648  0.99118867  1
  O  O253  1  0.24118068  0.63482256  0.50272890  1
  O  O254  1  0.24254420  0.62558739  0.98436744  1
  O  O255  1  0.74070910  0.12982759  0.49832221  1
  O  O256  1  0.74235350  0.13021260  0.99570725  1
  O  O257  1  0.73559665  0.62774686  0.49602374  1
  O  O258  1  0.73414545  0.62412821  0.98928666  1
  O  O259  1  0.25656042  0.36035130  -0.00868414  1
  O  O260  1  0.25869450  0.36246995  0.49693690  1
  O  O261  1  0.26404814  0.88121670  0.00544757  1
  O  O262  1  0.26249671  0.86909429  0.49942274  1
  O  O263  1  0.75631500  0.37001858  0.00859522  1
  O  O264  1  0.75368556  0.36985962  0.50834827  1
  O  O265  1  0.76586321  0.87409152  -0.00345571  1
  O  O266  1  0.76063691  0.86666055  0.48781702  1
  O  O267  1  0.12388499  0.49815069  0.25030739  1
  O  O268  1  0.12396181  0.49602570  0.73468148  1
  O  O269  1  0.12685896  0.99145179  0.23802825  1
  O  O270  1  0.13462777  1.00064789  0.74179018  1
  O  O271  1  0.63638001  0.50574124  0.26110964  1
  O  O272  1  0.61798885  0.48682700  0.75208441  1
  O  O273  1  0.63880440  0.99729610  0.24177761  1
  O  O274  1  0.63374636  0.99280639  0.74387828  1
  O  O275  1  0.37374025  0.00074746  0.26012846  1
  O  O276  1  0.37079974  0.00249884  0.75142365  1
  O  O277  1  0.37248797  0.50310085  0.26890244  1
  O  O278  1  0.37936463  0.51078073  0.75893659  1
  O  O279  1  0.86719681  0.00352968  0.25366091  1
  O  O280  1  0.86707022  -0.00006827  0.75704367  1
  O  O281  1  0.87504547  0.50706516  0.25910245  1
  O  O282  1  0.87764781  0.52153870  0.74886605  1
  O  O283  1  0.11584236  0.36671224  0.37800185  1
  O  O284  1  0.11808393  0.36856631  0.86788612  1
  O  O285  1  0.11939085  0.88155143  0.36128116  1
  O  O286  1  0.12069537  0.86722558  0.87745259  1
  O  O287  1  0.62381893  0.36181426  0.38322575  1
  O  O288  1  0.61851300  0.36888939  0.86815193  1
  O  O289  1  0.60977766  0.86438469  0.38075871  1
  O  O290  1  0.62047201  0.86964949  0.87021943  1
  O  O291  1  0.37198971  0.13344778  0.12343078  1
  O  O292  1  0.38388975  0.12990352  0.62900924  1
  O  O293  1  0.36461357  0.64013816  0.12920643  1
  O  O294  1  0.37985453  0.63109170  0.63114606  1
  O  O295  1  0.88214132  0.13822876  0.12114152  1
  O  O296  1  0.88187088  0.13175645  0.62467772  1
  O  O297  1  0.88185474  0.62000747  0.13765067  1
  O  O298  1  0.86471339  0.63357591  0.63331055  1
  O  O299  1  0.25995537  0.24626842  0.10772389  1
  O  O300  1  0.25769246  0.23930562  0.61284165  1
  O  O301  1  0.25763442  0.76529445  0.12522010  1
  O  O302  1  0.26381102  0.74718188  0.61447448  1
  O  O303  1  0.75745602  0.25721680  0.12367910  1
  O  O304  1  0.75566821  0.25456782  0.61832706  1
  O  O305  1  0.75282850  0.73829053  0.12459159  1
  O  O306  1  0.73039618  0.76242647  0.62962543  1
  O  O307  1  0.24669434  0.24090620  0.38835562  1
  O  O308  1  0.24106257  0.24735820  0.87713042  1
  O  O309  1  0.24574773  0.75804064  0.38997210  1
  O  O310  1  0.23947071  0.74057880  0.86781951  1
  O  O311  1  0.74224102  0.24863759  0.38045014  1
  O  O312  1  0.74498326  0.24594192  0.88161194  1
  O  O313  1  0.72717392  0.74264731  0.35786936  1
  O  O314  1  0.73788282  0.74829893  0.88300562  1
  O  O315  1  0.00423626  0.13856570  0.01335799  1
  O  O316  1  0.00679782  0.12041081  0.50463464  1
  O  O317  1  0.00638390  0.63343983  0.01039536  1
  O  O318  1  0.00901083  0.61602319  0.50148427  1
  O  O319  1  0.51050218  0.11114524  -0.00766142  1
  O  O320  1  0.51225298  0.12317703  0.50534988  1
  O  O321  1  0.51402030  0.62216487  -0.01120197  1
  O  O322  1  0.50296487  0.61849446  0.50741581  1
  O  O323  1  0.49233960  0.38311146  0.49976950  1
  O  O324  1  0.49939992  0.37718226  0.98670315  1
  O  O325  1  0.48765446  0.87392004  0.48802948  1
  O  O326  1  0.49283758  0.88281765  0.99212236  1
  O  O327  1  0.99178711  0.38354824  0.49587340  1
  O  O328  1  0.98947131  0.37115787  0.99070581  1
  O  O329  1  1.00570725  0.88275722  0.48268315  1
  O  O330  1  0.99035404  0.87199044  0.98779895  1
  O  O331  1  0.48791236  0.49833842  0.38728796  1
  O  O332  1  0.49308585  0.48898823  0.86953400  1
  O  O333  1  0.49324065  0.99189216  0.37377643  1
  O  O334  1  0.49772819  0.98916553  0.88455690  1
  O  O335  1  0.99012064  0.49528724  0.38492629  1
  O  O336  1  1.00825829  0.48812747  0.86956974  1
  O  O337  1  0.99666321  0.99777804  0.37603394  1
  O  O338  1  0.99059176  0.99452596  0.86996526  1
  O  O339  1  0.01016816  0.01507181  0.12891030  1
  O  O340  1  0.00851939  0.00759221  0.61969482  1
  O  O341  1  0.00301093  0.51399563  0.12873117  1
  O  O342  1  -0.00364179  0.49483548  0.61377281  1
  O  O343  1  0.50959050  -0.00863578  0.11449788  1
  O  O344  1  0.51313240  0.00758345  0.62265774  1
  O  O345  1  0.47785972  0.50986715  0.13288220  1
  O  O346  1  0.49101656  0.51145526  0.61211052  1
  O  O347  1  0.23916997  0.32955540  0.24284201  1
  O  O348  1  0.23499222  0.37159738  0.75462021  1
  O  O349  1  0.24104250  0.87674094  0.24013371  1
  O  O350  1  0.25024069  0.88848893  0.75234392  1
  O  O351  1  0.75338022  0.38892759  0.24363432  1
  O  O352  1  0.73946428  0.36921732  0.74165457  1
  O  O353  1  0.76227569  0.88657236  0.24929351  1
  O  O354  1  0.74038379  0.88672728  0.75942896  1
  O  O355  1  0.25220790  0.12866766  0.26547424  1
  O  O356  1  0.25882952  0.11460778  0.75108664  1
  O  O357  1  0.25895894  0.63326129  0.24973030  1
  O  O358  1  0.26235759  0.62615764  0.75807034  1
  O  O359  1  0.75385509  0.11208694  0.25176377  1
  O  O360  1  0.75052368  0.11414113  0.75718999  1
  O  O361  1  0.75723047  0.60990203  0.25158437  1
  O  O362  1  0.75949659  0.62587331  0.76706411  1
  O  O363  1  0.36923664  0.11452844  0.38047074  1
  O  O364  1  0.37870923  0.11567378  0.86591432  1
  O  O365  1  0.37225658  0.61245803  0.37200319  1
  O  O366  1  0.36956948  0.62255279  0.86787120  1
  O  O367  1  0.87407492  0.11107094  0.37557483  1
  O  O368  1  0.87075870  0.11874001  0.87613677  1
  O  O369  1  0.87550444  0.61565568  0.36394364  1
  O  O370  1  0.85705458  0.62062611  0.89021957  1
  O  O371  1  0.13000379  0.37934341  0.13185617  1
  O  O372  1  0.12176532  0.38980214  0.63161665  1
  O  O373  1  0.12973227  0.88091529  0.12584783  1
  O  O374  1  0.12065149  0.89057872  0.62536202  1
  O  O375  1  0.63839292  0.36961939  0.11951522  1
  O  O376  1  0.63329764  0.36802123  0.63492163  1
  O  O377  1  0.62710228  0.88130183  0.11596556  1
  O  O378  1  0.61332531  0.88620649  0.63322715  1
  O  O379  1  0.10690177  0.24410142  0.26117541  1
  O  O380  1  0.11983152  0.25810273  0.75403511  1
  O  O381  1  0.11917321  0.76119502  0.24697746  1
  O  O382  1  0.12047100  0.74996976  0.75592842  1
  O  O383  1  0.61617877  0.24368077  0.25822499  1
  O  O384  1  0.61887258  0.25236740  0.75702128  1
  O  O385  1  0.60514781  0.73649155  0.25886547  1
  O  O386  1  0.62803096  0.76131438  0.76148531  1
  O  O387  1  0.38871399  0.24012951  0.24296219  1
  O  O388  1  0.38126666  0.24453103  0.74462370  1
  O  O389  1  0.37557977  0.74313711  0.24376061  1
  O  O390  1  0.37253156  0.74125877  0.73951966  1
  O  O391  1  0.88007121  0.25054018  0.24191810  1
  O  O392  1  0.88071683  0.25003155  0.74450137  1
  O  O393  1  0.88112649  0.74392674  0.25774942  1
  O  O394  1  0.87816198  0.73015035  0.76727550  1
  O  O395  1  0.38021732  0.49452695  0.49378029  1
  O  O396  1  0.38330764  0.50000069  0.98229613  1
  O  O397  1  0.37716846  0.99271014  0.49283761  1
  O  O398  1  0.38361980  0.99174064  0.99558398  1
  O  O399  1  0.87828038  0.49936541  0.49182815  1
  O  O400  1  0.86685349  0.48761504  1.01141575  1
  O  O401  1  0.88266424  0.99468695  0.49180795  1
  O  O402  1  0.87046093  0.99261541  0.98918065  1
  O  O403  1  0.13077276  0.00269506  0.01059954  1
  O  O404  1  0.12265305  0.00533077  0.50613713  1
  O  O405  1  0.12586274  0.51541058  -0.00621176  1
  O  O406  1  0.11777208  0.50331575  0.51263320  1
  O  O407  1  0.62107099  0.00332416  0.00615175  1
  O  O408  1  0.62756128  0.00644823  0.50625058  1
  O  O409  1  0.61891548  0.51083529  -0.00284750  1
  O  O410  1  0.61330301  0.51109866  0.49204329  1
  O  O411  1  0.37368827  0.35390413  0.12236296  1
  O  O412  1  0.38087445  0.36869708  0.61332381  1
  O  O413  1  0.36755622  0.87009695  0.11780861  1
  O  O414  1  0.38690962  0.86630764  0.61485325  1
  O  O415  1  0.87076032  0.36640883  0.11911922  1
  O  O416  1  0.86594027  0.37001367  0.62261365  1
  O  O417  1  0.88396153  0.87903418  0.10968181  1
  O  O418  1  0.91302621  0.85022070  0.62425282  1
  O  O419  1  0.13277980  0.12880347  0.38093211  1
  O  O420  1  0.12268910  0.13925401  0.87354217  1
  O  O421  1  0.11967777  0.62426226  0.39295017  1
  O  O422  1  0.13027387  0.63000412  0.87624373  1
  O  O423  1  0.62628395  0.13059563  0.38574900  1
  O  O424  1  0.63109698  0.12760430  0.88442752  1
  O  O425  1  0.61756096  0.63193274  0.38494495  1
  O  O426  1  0.63428363  0.63251173  0.87518323  1
