# generated using pymatgen
data_V85Zn86O256
_symmetry_space_group_name_H-M   'P 1'
_cell_length_a   16.98346235
_cell_length_b   16.99625354
_cell_length_c   16.99034379
_cell_angle_alpha   89.94030133
_cell_angle_beta   90.39317788
_cell_angle_gamma   90.07731884
_symmetry_Int_Tables_number   1
_chemical_formula_structural   V85Zn86O256
_chemical_formula_sum   'V85 Zn86 O256'
_cell_volume   4904.22907659
_cell_formula_units_Z   1
loop_
 _symmetry_equiv_pos_site_id
 _symmetry_equiv_pos_as_xyz
  1  'x, y, z'
loop_
 _atom_site_type_symbol
 _atom_site_label
 _atom_site_symmetry_multiplicity
 _atom_site_fract_x
 _atom_site_fract_y
 _atom_site_fract_z
 _atom_site_occupancy
  V  V0  1  0.49605521  0.50234848  0.49422009  1
  V  V1  1  0.12916754  0.49830101  0.62980645  1
  V  V2  1  0.12862146  0.62124507  0.49772110  1
  V  V3  1  -0.00039247  0.36225422  0.38078713  1
  V  V4  1  0.62831666  0.63165710  -0.00084528  1
  V  V5  1  0.37047445  -0.00008381  0.87352782  1
  V  V6  1  0.24774225  0.49257930  0.24790720  1
  V  V7  1  0.49793496  0.50029501  -0.00761880  1
  V  V8  1  0.49672049  -0.00100488  -0.00154102  1
  V  V9  1  0.25158833  0.37693468  0.63111516  1
  V  V10  1  0.74749421  0.87366901  0.11791258  1
  V  V11  1  0.24990635  0.87464393  0.62218681  1
  V  V12  1  0.25337203  0.61642033  0.37544190  1
  V  V13  1  0.12623353  0.49079324  0.12564467  1
  V  V14  1  0.36879493  0.12476031  0.75289916  1
  V  V15  1  0.37347925  0.37865221  0.49698674  1
  V  V16  1  0.24625540  0.86702424  0.11870862  1
  V  V17  1  0.76034219  0.37459332  0.61976284  1
  V  V18  1  0.37454503  0.24996918  0.62672804  1
  V  V19  1  0.37034332  0.87045541  -0.00202080  1
  V  V20  1  0.00012352  0.74824470  0.74964923  1
  V  V21  1  0.49750665  0.74859844  0.74962952  1
  V  V22  1  0.37267806  0.87720667  0.49164011  1
  V  V23  1  0.37589140  0.61816751  0.25272098  1
  V  V24  1  0.50389312  0.87497203  0.37175290  1
  V  V25  1  0.13176968  0.24249202  0.87430437  1
  V  V26  1  0.63121792  0.62581563  0.50230754  1
  V  V27  1  0.49303198  0.00291558  0.49262019  1
  V  V28  1  -0.00598747  0.62286863  0.12709321  1
  V  V29  1  0.36845507  0.74697262  0.11966540  1
  V  V30  1  0.00100291  0.12295549  0.11973831  1
  V  V31  1  0.24419244  0.25099853  0.49474215  1
  V  V32  1  0.75012107  0.63213100  0.87802021  1
  V  V33  1  -0.00335438  0.87399450  0.87413005  1
  V  V34  1  0.75024314  0.00484045  0.74705460  1
  V  V35  1  0.87381885  0.50010329  0.87370107  1
  V  V36  1  0.12365259  0.87269210  0.24852091  1
  V  V37  1  0.74985375  0.37736407  0.12690169  1
  V  V38  1  0.50250777  0.61803869  0.62613675  1
  V  V39  1  0.00257034  0.50090533  0.00001423  1
  V  V40  1  0.36829876  0.60939702  0.75280731  1
  V  V41  1  0.12962188  0.37596905  0.75243161  1
  V  V42  1  0.74965225  0.00139400  0.24919416  1
  V  V43  1  0.25085646  0.61651827  0.88215696  1
  V  V44  1  0.87409485  0.00647321  0.86935689  1
  V  V45  1  0.62122588  0.87609644  0.74866754  1
  V  V46  1  0.87473866  0.62266388  0.75073623  1
  V  V47  1  0.62262560  0.00348087  0.61967057  1
  V  V48  1  0.24823750  0.00161657  0.75242892  1
  V  V49  1  0.87011842  0.24817856  0.12298825  1
  V  V50  1  0.50243499  0.75163988  0.24981739  1
  V  V51  1  0.00028523  0.62216594  0.62727402  1
  V  V52  1  -0.00433219  0.12567292  0.62629245  1
  V  V53  1  0.11912810  0.12740896  0.49210946  1
  V  V54  1  0.00017455  0.37458421  0.87504321  1
  V  V55  1  0.12542177  -0.00165294  0.12326564  1
  V  V56  1  0.85952477  0.87630376  0.50125828  1
  V  V57  1  0.50030570  0.25024851  0.25234237  1
  V  V58  1  0.49956592  0.62485921  0.12453949  1
  V  V59  1  0.62173097  0.13082376  -0.00568723  1
  V  V60  1  0.25051173  0.23764615  0.00454600  1
  V  V61  1  0.62707940  0.74757326  0.37570172  1
  V  V62  1  0.26301534  0.11959301  0.37541102  1
  V  V63  1  0.87183482  0.12305520  0.25061780  1
  V  V64  1  0.62280014  -0.00469176  0.12642865  1
  V  V65  1  0.12409785  0.87408663  0.74781053  1
  V  V66  1  0.62588362  0.37511075  0.74320367  1
  V  V67  1  0.50014126  0.12588026  0.61877978  1
  V  V68  1  0.50745434  0.36459894  0.87833594  1
  V  V69  1  0.36500949  0.38208475  -0.00111472  1
  V  V70  1  0.74511408  0.12961080  0.87273189  1
  V  V71  1  0.49684382  0.87397284  0.87314590  1
  V  V72  1  -0.00102094  0.88027665  0.38299817  1
  V  V73  1  0.25041062  0.74873229  0.49919246  1
  V  V74  1  0.62817202  0.50084640  0.12748129  1
  V  V75  1  0.11936767  0.00155894  0.61776785  1
  V  V76  1  -0.00926506  0.49223691  0.49724466  1
  V  V77  1  0.50009776  0.37599793  0.37575116  1
  V  V78  1  0.86895052  0.74975802  0.11591791  1
  V  V79  1  0.62339476  0.37434296  0.25180396  1
  V  V80  1  0.87549153  0.37441322  -0.00060261  1
  V  V81  1  0.49778965  0.12711856  0.12318018  1
  V  V82  1  -0.00921746  0.74978964  0.24759666  1
  V  V83  1  -0.00781505  0.24667046  0.74971670  1
  V  V84  1  0.00693305  0.24821771  0.25058477  1
  Zn  Zn85  1  0.37810343  0.12045871  0.25430681  1
  Zn  Zn86  1  0.62931200  0.75533569  0.87962632  1
  Zn  Zn87  1  -0.00406078  -0.00188448  -0.00239911  1
  Zn  Zn88  1  0.83750031  0.56810675  0.30534708  1
  Zn  Zn89  1  0.72683717  0.25773128  0.47356430  1
  Zn  Zn90  1  0.86510094  0.87184531  -0.00896708  1
  Zn  Zn91  1  0.36781956  0.25526326  0.13038034  1
  Zn  Zn92  1  0.26069901  -0.00938180  0.25942487  1
  Zn  Zn93  1  0.13283701  0.36662451  0.25582835  1
  Zn  Zn94  1  0.13070566  0.63203256  0.00413899  1
  Zn  Zn95  1  0.50488258  0.24191353  0.75775805  1
  Zn  Zn96  1  0.87394234  0.00598098  0.38033041  1
  Zn  Zn97  1  0.86555880  0.23973441  0.62466474  1
  Zn  Zn98  1  0.73709392  0.50448848  0.74691701  1
  Zn  Zn99  1  0.74077747  0.86763646  0.62020410  1
  Zn  Zn100  1  0.86744004  0.74496706  0.61726612  1
  Zn  Zn101  1  0.79146489  0.69913673  0.44314118  1
  Zn  Zn102  1  0.74243086  0.25300130  -0.00653232  1
  Zn  Zn103  1  0.13858199  0.75485908  0.88750238  1
  Zn  Zn104  1  0.37454030  0.74869291  0.62398691  1
  Zn  Zn105  1  0.12551103  0.74762618  0.37178592  1
  Zn  Zn106  1  0.12877742  0.11714918  -0.00727585  1
  Zn  Zn107  1  0.18902996  0.18402672  0.18707030  1
  Zn  Zn108  1  0.18355888  0.18837797  0.68504630  1
  Zn  Zn109  1  0.18211260  0.68148464  0.18788831  1
  Zn  Zn110  1  0.18918195  0.68886043  0.69072156  1
  Zn  Zn111  1  0.69875049  0.19677866  0.30406075  1
  Zn  Zn112  1  0.68157846  0.19332120  0.68900763  1
  Zn  Zn113  1  0.69306681  0.68788196  0.19183317  1
  Zn  Zn114  1  0.68715592  0.68869883  0.68872050  1
  Zn  Zn115  1  0.31605757  0.30657741  0.31619920  1
  Zn  Zn116  1  0.31604451  0.31499506  0.81970834  1
  Zn  Zn117  1  0.31204696  0.80586793  0.31061850  1
  Zn  Zn118  1  0.31159870  0.80650583  0.81102626  1
  Zn  Zn119  1  0.79340791  0.37631723  0.34074974  1
  Zn  Zn120  1  0.80957154  0.31327400  0.81063456  1
  Zn  Zn121  1  0.81038362  0.82028093  0.30514898  1
  Zn  Zn122  1  0.81128649  0.81340817  0.80270759  1
  Zn  Zn123  1  0.18134927  0.43540498  0.43551341  1
  Zn  Zn124  1  0.18749855  0.44254428  0.93462673  1
  Zn  Zn125  1  0.18389074  0.93941614  0.43707218  1
  Zn  Zn126  1  0.18453515  0.93496803  0.93664911  1
  Zn  Zn127  1  0.68445257  0.44489043  0.44683783  1
  Zn  Zn128  1  0.68776986  0.44228901  0.93813366  1
  Zn  Zn129  1  0.67990193  1.03771922  0.42625467  1
  Zn  Zn130  1  0.68401083  0.94228817  0.93584678  1
  Zn  Zn131  1  0.31365834  0.05621129  0.06797462  1
  Zn  Zn132  1  0.30996410  0.06256471  0.56095856  1
  Zn  Zn133  1  0.31084397  0.55894267  0.06535522  1
  Zn  Zn134  1  0.31490340  0.56153338  0.56830213  1
  Zn  Zn135  1  0.81000716  0.06025132  0.05657135  1
  Zn  Zn136  1  0.81995562  0.05594608  0.56464639  1
  Zn  Zn137  1  0.81307423  0.56297987  0.06206543  1
  Zn  Zn138  1  0.81244031  0.55456133  0.56783900  1
  Zn  Zn139  1  0.43702128  0.43821655  0.18193788  1
  Zn  Zn140  1  0.44358650  0.43672341  0.68850750  1
  Zn  Zn141  1  0.43345828  0.93687241  0.18747992  1
  Zn  Zn142  1  0.43479464  0.93726789  0.68251016  1
  Zn  Zn143  1  0.93690406  0.43171329  0.19083533  1
  Zn  Zn144  1  0.93776258  0.43545625  0.68750255  1
  Zn  Zn145  1  0.93388857  0.93479753  0.18423714  1
  Zn  Zn146  1  0.93543233  0.93813216  0.68502768  1
  Zn  Zn147  1  0.06285179  0.05982612  0.30862866  1
  Zn  Zn148  1  0.06194694  0.06128712  0.80789297  1
  Zn  Zn149  1  0.03277363  0.54217834  0.29487435  1
  Zn  Zn150  1  0.06649131  0.56317421  0.81608971  1
  Zn  Zn151  1  0.55864838  0.05865264  0.30483546  1
  Zn  Zn152  1  0.55951571  0.06126967  0.80939438  1
  Zn  Zn153  1  0.67360010  0.55588925  0.31554752  1
  Zn  Zn154  1  0.56153656  0.56088371  0.81461907  1
  Zn  Zn155  1  0.55646506  0.18801985  0.43736750  1
  Zn  Zn156  1  0.43096955  0.18729302  0.93849231  1
  Zn  Zn157  1  0.43666512  0.68814503  0.43664770  1
  Zn  Zn158  1  0.43503756  0.68547700  0.93372219  1
  Zn  Zn159  1  0.93426247  0.18458845  0.43782579  1
  Zn  Zn160  1  0.93697204  0.18788310  0.93466622  1
  Zn  Zn161  1  0.95261961  0.68903871  0.43686476  1
  Zn  Zn162  1  0.94000870  0.68745877  0.93817430  1
  Zn  Zn163  1  0.06439764  0.31044193  0.06179431  1
  Zn  Zn164  1  0.06175339  0.30878998  0.56635744  1
  Zn  Zn165  1  0.05768978  0.80850750  0.05889044  1
  Zn  Zn166  1  0.06302727  0.80779097  0.56474928  1
  Zn  Zn167  1  0.56020348  0.31162509  0.06491937  1
  Zn  Zn168  1  0.56296401  0.31507075  0.56657235  1
  Zn  Zn169  1  0.55803333  0.81320615  0.06330658  1
  Zn  Zn170  1  0.56035943  0.81104850  0.56075665  1
  O  O171  1  0.11870102  0.11319154  0.12339301  1
  O  O172  1  0.11994255  0.11848613  0.61617172  1
  O  O173  1  0.11339821  0.61451844  0.12295122  1
  O  O174  1  0.12360466  0.61512040  0.62113895  1
  O  O175  1  0.60796382  0.11127147  0.11117661  1
  O  O176  1  0.60916693  0.11564840  0.63558967  1
  O  O177  1  0.62030488  0.61872464  0.11779418  1
  O  O178  1  0.61286682  0.63222985  0.61374738  1
  O  O179  1  0.38366713  0.36724850  0.39009664  1
  O  O180  1  0.38826509  0.37288040  0.89002183  1
  O  O181  1  0.38147498  0.86736562  0.38506255  1
  O  O182  1  0.37663433  0.87920336  0.87840979  1
  O  O183  1  0.90207437  0.38178255  0.37502395  1
  O  O184  1  0.88026078  0.37925157  0.87943147  1
  O  O185  1  0.88643736  0.87244617  0.38239858  1
  O  O186  1  0.88092688  0.88263633  0.87024500  1
  O  O187  1  0.24267090  0.01494793  0.37517929  1
  O  O188  1  0.25265192  -0.00668896  0.86020496  1
  O  O189  1  0.24462450  0.51045622  0.36776193  1
  O  O190  1  0.24526345  0.51562869  0.86821455  1
  O  O191  1  0.75501793  -0.00456915  0.35647043  1
  O  O192  1  0.75489692  0.00737739  0.86645893  1
  O  O193  1  0.75281943  0.48393532  0.36572314  1
  O  O194  1  0.75709061  0.51065236  0.87361073  1
  O  O195  1  0.23793409  0.50614840  0.13605457  1
  O  O196  1  0.24184674  0.48658817  0.62216224  1
  O  O197  1  0.23899278  0.98752692  0.12618535  1
  O  O198  1  0.24115745  0.99481617  0.63172466  1
  O  O199  1  0.73882690  0.48912219  0.11354105  1
  O  O200  1  0.75365189  0.48103593  0.63252673  1
  O  O201  1  0.74092159  0.99628363  0.12668161  1
  O  O202  1  0.73869624  1.00107485  0.62966589  1
  O  O203  1  0.00323343  0.36093710  0.25993609  1
  O  O204  1  0.01072675  0.36618003  0.75388838  1
  O  O205  1  0.00605218  0.86775722  0.25264673  1
  O  O206  1  0.00248712  0.86753305  0.75422180  1
  O  O207  1  0.50107426  0.37042173  0.25493030  1
  O  O208  1  0.50503631  0.37420496  0.76459424  1
  O  O209  1  0.48771142  0.86112684  0.25779390  1
  O  O210  1  0.50016806  0.86848697  0.75228066  1
  O  O211  1  0.50070644  0.13437446  0.24054323  1
  O  O212  1  0.48674322  0.12321283  0.73925831  1
  O  O213  1  0.48612484  0.63478958  0.24132146  1
  O  O214  1  0.49392012  0.62890037  0.74574637  1
  O  O215  1  0.99703827  0.12674771  0.23554543  1
  O  O216  1  1.01332224  0.13846740  0.73877199  1
  O  O217  1  1.01220327  0.64343158  0.23825815  1
  O  O218  1  0.99720377  0.63063352  0.74773224  1
  O  O219  1  0.35927632  0.25708812  -0.00236249  1
  O  O220  1  0.36166110  0.26229213  0.51697283  1
  O  O221  1  0.38153384  0.75313191  0.01291278  1
  O  O222  1  0.36873204  0.75871179  0.50185805  1
  O  O223  1  0.87789791  0.25656768  0.00804975  1
  O  O224  1  0.84368467  0.21298433  0.50481241  1
  O  O225  1  0.87699049  0.75182185  0.01102024  1
  O  O226  1  0.87835512  0.76272662  0.49882548  1
  O  O227  1  0.13679252  0.24116476  0.51007899  1
  O  O228  1  0.13719083  0.25039025  0.99298458  1
  O  O229  1  0.13058803  0.73536414  0.50173483  1
  O  O230  1  0.12407511  0.74552147  0.99904927  1
  O  O231  1  0.62206699  0.24123894  0.51045607  1
  O  O232  1  0.62335172  0.23485734  1.00586378  1
  O  O233  1  0.61454601  0.73642602  0.49051100  1
  O  O234  1  0.61516917  0.73550117  0.99944777  1
  O  O235  1  0.49847914  0.24228592  0.13378610  1
  O  O236  1  0.48751435  0.24282541  0.62768349  1
  O  O237  1  0.49045719  0.74675551  0.13218738  1
  O  O238  1  0.49796493  0.74014308  0.63340875  1
  O  O239  1  0.99472806  0.24158878  0.12797034  1
  O  O240  1  0.99469186  0.24415427  0.63262837  1
  O  O241  1  0.98960727  0.74409458  0.12920656  1
  O  O242  1  0.99814957  0.74104658  0.63378729  1
  O  O243  1  -0.00311357  0.25594937  0.36974244  1
  O  O244  1  0.00902653  0.25521669  0.86918796  1
  O  O245  1  0.00662636  0.76181702  0.36364981  1
  O  O246  1  -0.00148996  0.75843956  0.86405203  1
  O  O247  1  0.50115419  0.26150749  0.36297967  1
  O  O248  1  0.49629322  0.26080242  0.87686311  1
  O  O249  1  0.50309087  0.75320404  0.36707417  1
  O  O250  1  0.49957682  0.75579502  0.86558081  1
  O  O251  1  0.24261735  0.13085865  0.49274415  1
  O  O252  1  0.25088271  0.13450526  1.00097891  1
  O  O253  1  0.24767544  0.62584295  0.49564784  1
  O  O254  1  0.25557952  0.62079979  0.98591855  1
  O  O255  1  0.78443106  0.14530355  0.49834685  1
  O  O256  1  0.73891869  0.12492338  0.99013554  1
  O  O257  1  0.73436234  0.62261772  0.51230736  1
  O  O258  1  0.73945856  0.62014776  0.99126710  1
  O  O259  1  0.26260054  0.37479272  -0.00514759  1
  O  O260  1  0.25340535  0.36991263  0.50741519  1
  O  O261  1  0.25374210  0.87668264  0.01064258  1
  O  O262  1  0.25439531  0.87049775  0.50059391  1
  O  O263  1  0.75491993  0.37209677  0.00626812  1
  O  O264  1  0.73871933  0.37251245  0.51828528  1
  O  O265  1  0.74707474  0.88125027  0.01134014  1
  O  O266  1  0.76103758  0.87375239  0.49895474  1
  O  O267  1  0.13091932  0.49866236  0.24227689  1
  O  O268  1  0.11706626  0.48755636  0.74002040  1
  O  O269  1  0.12642003  0.98811475  0.23886499  1
  O  O270  1  0.13303057  0.99535297  0.74144407  1
  O  O271  1  0.61546481  0.48830079  0.23415114  1
  O  O272  1  0.62076928  0.48209025  0.75889995  1
  O  O273  1  0.63430275  1.00643530  0.23477296  1
  O  O274  1  0.62713221  0.99463427  0.73969709  1
  O  O275  1  0.36985212  0.00837278  0.24151181  1
  O  O276  1  0.36620309  0.00510011  0.75123425  1
  O  O277  1  0.36543823  0.51134904  0.23831637  1
  O  O278  1  0.38133569  0.51128678  0.74851016  1
  O  O279  1  0.86656486  0.00840775  0.24217528  1
  O  O280  1  0.86148485  -0.00518028  0.75610712  1
  O  O281  1  0.92369579  0.51558194  0.25938490  1
  O  O282  1  0.87926404  0.50645548  0.75845568  1
  O  O283  1  0.10979142  0.37651406  0.37093895  1
  O  O284  1  0.12124965  0.36852716  0.86771269  1
  O  O285  1  0.11646492  0.87502191  0.36513951  1
  O  O286  1  0.11420735  0.87532366  0.86517960  1
  O  O287  1  0.60968456  0.38630305  0.36408393  1
  O  O288  1  0.61177064  0.37478400  0.87679619  1
  O  O289  1  0.60468162  0.86195428  0.37923790  1
  O  O290  1  0.61557392  0.87571385  0.86797849  1
  O  O291  1  0.38912784  0.12828007  0.11916477  1
  O  O292  1  0.37919018  0.13107820  0.63091692  1
  O  O293  1  0.37752785  0.63117973  0.12997236  1
  O  O294  1  0.38337591  0.62673178  0.63631606  1
  O  O295  1  0.88229130  0.12915637  0.12535256  1
  O  O296  1  0.89215318  0.11871404  0.63003327  1
  O  O297  1  0.88513774  0.63237987  0.12090692  1
  O  O298  1  0.88329400  0.62231685  0.63253978  1
  O  O299  1  0.24799215  0.24830314  0.10970978  1
  O  O300  1  0.25451650  0.25915716  0.62045576  1
  O  O301  1  0.25730705  0.75555317  0.13149278  1
  O  O302  1  0.24980221  0.75719526  0.61753923  1
  O  O303  1  0.76467158  0.26060144  0.11872768  1
  O  O304  1  0.75097431  0.26566987  0.63644436  1
  O  O305  1  0.75774401  0.76091411  0.13182396  1
  O  O306  1  0.75582525  0.75713625  0.63546540  1
  O  O307  1  0.25264826  0.23997866  0.38852811  1
  O  O308  1  0.24036262  0.25535868  0.88660805  1
  O  O309  1  0.24527589  0.73759364  0.38008000  1
  O  O310  1  0.24803789  0.73016130  0.86122795  1
  O  O311  1  0.75338825  0.27339883  0.36534331  1
  O  O312  1  0.75666261  0.23391046  0.87472074  1
  O  O313  1  0.73133538  0.76235040  0.36682217  1
  O  O314  1  0.74941743  0.73711508  0.86799496  1
  O  O315  1  0.00317910  0.12385631  0.01036023  1
  O  O316  1  0.00906856  0.13589093  0.51287018  1
  O  O317  1  0.00011292  0.61695322  0.00957004  1
  O  O318  1  0.01198254  0.61307302  0.50719542  1
  O  O319  1  0.50174836  0.11937628  0.00204296  1
  O  O320  1  0.49214754  0.11590217  0.50968068  1
  O  O321  1  0.50403841  0.61743010  0.00307421  1
  O  O322  1  0.49867670  0.61904466  0.50749276  1
  O  O323  1  0.49344333  0.38079041  0.49726321  1
  O  O324  1  0.49765555  0.37981149  0.99118757  1
  O  O325  1  0.49073191  0.88247505  0.49316957  1
  O  O326  1  0.49072390  0.87970661  0.99355145  1
  O  O327  1  1.00747615  0.38077047  0.49420525  1
  O  O328  1  0.99575213  0.37958944  0.99413518  1
  O  O329  1  1.00598748  0.87044262  0.48403038  1
  O  O330  1  0.99709157  0.87626419  0.98255521  1
  O  O331  1  0.49112355  0.48810260  0.39112002  1
  O  O332  1  0.50155997  0.49101052  0.88830592  1
  O  O333  1  0.50587539  0.99186408  0.38432305  1
  O  O334  1  0.49043812  0.99327870  0.87799806  1
  O  O335  1  1.01165211  0.49512157  0.39736568  1
  O  O336  1  0.99613177  0.49404140  0.88032511  1
  O  O337  1  0.99683056  0.98215127  0.36455417  1
  O  O338  1  0.99101482  0.99249636  0.86788117  1
  O  O339  1  0.00746183  0.00532627  0.12293743  1
  O  O340  1  0.01311515  0.00936382  0.63585324  1
  O  O341  1  0.00634169  0.50605308  0.11869400  1
  O  O342  1  0.01062646  0.49952662  0.61688068  1
  O  O343  1  0.50357025  0.00307163  0.11859469  1
  O  O344  1  0.50301019  0.00632465  0.61528744  1
  O  O345  1  0.50853777  0.50455120  0.11375184  1
  O  O346  1  0.49647789  0.51029959  0.61491425  1
  O  O347  1  0.25284095  0.38799746  0.26086984  1
  O  O348  1  0.24141318  0.36752928  0.74294595  1
  O  O349  1  0.24033283  0.87184551  0.24117626  1
  O  O350  1  0.24531988  0.88217165  0.74233803  1
  O  O351  1  0.73840431  0.37518609  0.23233315  1
  O  O352  1  0.73703250  0.37758283  0.74850130  1
  O  O353  1  0.75585901  0.89029378  0.23069290  1
  O  O354  1  0.73950676  0.88915038  0.74896834  1
  O  O355  1  0.24900989  0.12981554  0.26789106  1
  O  O356  1  0.25807948  0.11427574  0.73925275  1
  O  O357  1  0.25477581  0.61722654  0.25729741  1
  O  O358  1  0.26556594  0.62164557  0.74560177  1
  O  O359  1  0.76231215  0.11777957  0.24516131  1
  O  O360  1  0.73774321  0.11261802  0.75718529  1
  O  O361  1  0.74648999  0.60883848  0.24751732  1
  O  O362  1  0.75457978  0.62070226  0.75870405  1
  O  O363  1  0.36076872  0.12217639  0.37953809  1
  O  O364  1  0.37888719  0.11779421  0.86043231  1
  O  O365  1  0.36460004  0.63024937  0.36403641  1
  O  O366  1  0.36670352  0.62572169  0.86143510  1
  O  O367  1  0.89099993  0.11925568  0.35408412  1
  O  O368  1  0.86556616  0.11407781  0.87761298  1
  O  O369  1  0.86713004  0.63734026  0.38849669  1
  O  O370  1  0.86869078  0.62050173  0.87171672  1
  O  O371  1  0.11711850  0.38695211  0.13088137  1
  O  O372  1  0.13263393  0.37851248  0.63310162  1
  O  O373  1  0.12784027  0.87896809  0.12932165  1
  O  O374  1  0.12804279  0.88313635  0.62731783  1
  O  O375  1  0.62921795  0.38201710  0.12782750  1
  O  O376  1  0.62603529  0.37812692  0.64021363  1
  O  O377  1  0.62854947  0.88712620  0.11741533  1
  O  O378  1  0.61952024  0.88709822  0.62851584  1
  O  O379  1  0.11118488  0.24756660  0.24157875  1
  O  O380  1  0.12062926  0.25875382  0.75591498  1
  O  O381  1  0.11719802  0.76167631  0.24643334  1
  O  O382  1  0.11266168  0.75588555  0.74721944  1
  O  O383  1  0.61341859  0.26584987  0.24693264  1
  O  O384  1  0.61816978  0.26702730  0.75215168  1
  O  O385  1  0.60889568  0.73982610  0.25819183  1
  O  O386  1  0.61115987  0.75604733  0.75206791  1
  O  O387  1  0.38504255  0.24520401  0.24725950  1
  O  O388  1  0.37152284  0.24236707  0.74207427  1
  O  O389  1  0.37866202  0.73976619  0.23934258  1
  O  O390  1  0.38715863  0.74253698  0.74642215  1
  O  O391  1  0.88988680  0.23712847  0.23443974  1
  O  O392  1  0.89009028  0.25368106  0.75223925  1
  O  O393  1  0.88478269  0.75864516  0.23750163  1
  O  O394  1  0.88754511  0.74229669  0.74832334  1
  O  O395  1  0.37895890  0.48549600  0.50956221  1
  O  O396  1  0.38315159  0.48873960  1.00631102  1
  O  O397  1  0.38245554  0.99037737  0.50414627  1
  O  O398  1  0.37683756  0.99200960  0.99347264  1
  O  O399  1  0.89260285  0.49909282  0.50611392  1
  O  O400  1  0.88180826  0.49328252  0.99428999  1
  O  O401  1  0.87477543  0.98337138  0.49458051  1
  O  O402  1  0.87596530  0.99571785  0.98401431  1
  O  O403  1  0.12081709  -0.00069714  0.00902165  1
  O  O404  1  0.12859818  0.00936544  0.51170552  1
  O  O405  1  0.11970006  0.50084628  0.00852854  1
  O  O406  1  0.12360056  0.50566106  0.51375945  1
  O  O407  1  0.61509290  0.00787942  0.00495378  1
  O  O408  1  0.61339087  0.00460037  0.51063470  1
  O  O409  1  0.61654036  0.50920170  0.00741169  1
  O  O410  1  0.61160895  0.51832146  0.49790060  1
  O  O411  1  0.38614105  0.36846072  0.10385647  1
  O  O412  1  0.36886180  0.36893911  0.62462040  1
  O  O413  1  0.36467024  0.86527562  0.11940516  1
  O  O414  1  0.36801758  0.87344827  0.61173169  1
  O  O415  1  0.86958794  0.36976323  0.12101243  1
  O  O416  1  0.86442777  0.36802946  0.62747664  1
  O  O417  1  0.86732092  0.86815423  0.11631906  1
  O  O418  1  0.87744895  0.87486846  0.60866160  1
  O  O419  1  0.12113735  0.11989532  0.38905479  1
  O  O420  1  0.11953947  0.13754267  0.87559199  1
  O  O421  1  0.13397226  0.62392738  0.38989529  1
  O  O422  1  0.13795640  0.62731199  0.87640662  1
  O  O423  1  0.62848773  0.12514879  0.37045090  1
  O  O424  1  0.63093345  0.11554657  0.88311755  1
  O  O425  1  0.62620856  0.63317216  0.39109987  1
  O  O426  1  0.63224585  0.62564491  0.88276302  1
