# generated using pymatgen
data_V85Zn86O256
_symmetry_space_group_name_H-M   'P 1'
_cell_length_a   16.94937439
_cell_length_b   16.94428631
_cell_length_c   16.94309358
_cell_angle_alpha   90.01714517
_cell_angle_beta   89.97313389
_cell_angle_gamma   89.95830600
_symmetry_Int_Tables_number   1
_chemical_formula_structural   V85Zn86O256
_chemical_formula_sum   'V85 Zn86 O256'
_cell_volume   4865.97060678
_cell_formula_units_Z   1
loop_
 _symmetry_equiv_pos_site_id
 _symmetry_equiv_pos_as_xyz
  1  'x, y, z'
loop_
 _atom_site_type_symbol
 _atom_site_label
 _atom_site_symmetry_multiplicity
 _atom_site_fract_x
 _atom_site_fract_y
 _atom_site_fract_z
 _atom_site_occupancy
  V  V0  1  0.86771401  0.87682895  0.49866669  1
  V  V1  1  0.86889137  0.25111274  0.63253082  1
  V  V2  1  0.74846328  0.87370024  0.12614785  1
  V  V3  1  0.12597860  0.62502134  0.00114915  1
  V  V4  1  0.00754115  0.11778488  0.12745758  1
  V  V5  1  0.25113401  0.24892242  0.50149697  1
  V  V6  1  0.75140017  0.49835146  0.75608518  1
  V  V7  1  0.12557643  0.49638290  0.62721027  1
  V  V8  1  0.50021632  0.12802696  0.12376843  1
  V  V9  1  0.12599728  0.25170814  0.37541180  1
  V  V10  1  0.38211832  0.74844007  0.62643483  1
  V  V11  1  0.87473442  0.74798496  0.12756635  1
  V  V12  1  0.48447015  -0.00159319  -0.00301949  1
  V  V13  1  -0.00406970  0.62513642  0.62623277  1
  V  V14  1  0.24839085  0.87547230  0.62362446  1
  V  V15  1  0.38253087  0.87336665  0.49419533  1
  V  V16  1  0.61786918  0.25388347  0.87605008  1
  V  V17  1  0.63803905  0.12852804  0.49875145  1
  V  V18  1  -0.00267163  0.00219931  0.50079950  1
  V  V19  1  0.25354889  0.75873972  0.00132963  1
  V  V20  1  0.37868500  0.24808744  0.62698158  1
  V  V21  1  -0.00288383  0.24730800  0.25252594  1
  V  V22  1  0.75416588  0.01130624  0.25683977  1
  V  V23  1  0.37844747  0.12455596  0.25316079  1
  V  V24  1  0.38465387  0.49345828  0.87424835  1
  V  V25  1  0.13974678  0.37495187  0.24620788  1
  V  V26  1  0.50393802  0.25070279  0.24809430  1
  V  V27  1  0.87170268  0.01426694  0.87471807  1
  V  V28  1  0.38143889  0.37034071  0.00648390  1
  V  V29  1  -0.00377839  0.87216448  0.87084626  1
  V  V30  1  0.63688698  0.24771656  0.37959724  1
  V  V31  1  0.01533135  0.25554220  0.75484885  1
  V  V32  1  0.37275512  0.75724637  0.12026924  1
  V  V33  1  -0.00078014  0.49716358  0.49760483  1
  V  V34  1  0.74949841  0.01353189  0.75581251  1
  V  V35  1  -0.00185748  0.49722744  -0.00320039  1
  V  V36  1  0.86273619  0.61955368  0.25389912  1
  V  V37  1  0.50413319  0.62507290  0.11569301  1
  V  V38  1  0.24264259  0.13786445  0.87217118  1
  V  V39  1  0.62925264  0.12348145  -0.00687034  1
  V  V40  1  0.24907937  0.62203650  0.37033434  1
  V  V41  1  0.63321256  0.38004490  0.25059205  1
  V  V42  1  0.36965848  0.62131406  0.24579546  1
  V  V43  1  -0.00446677  0.87909760  0.37596587  1
  V  V44  1  0.25319901  -0.00372186  0.75593391  1
  V  V45  1  0.74583983  0.73242260  0.49625346  1
  V  V46  1  0.86971400  0.37165297  0.50168861  1
  V  V47  1  0.61731092  0.37647916  0.75526305  1
  V  V48  1  0.25069631  0.74882771  0.49802585  1
  V  V49  1  -0.00192466  0.12679685  0.63311492  1
  V  V50  1  0.38295062  0.62672101  0.74683106  1
  V  V51  1  0.62836072  0.50368742  0.12021410  1
  V  V52  1  0.50134770  0.00254477  0.50031525  1
  V  V53  1  0.87210177  0.62014227  0.75850705  1
  V  V54  1  0.50194439  0.37981428  0.37793417  1
  V  V55  1  0.12472206  0.62366795  0.49873631  1
  V  V56  1  -0.00105571  0.74653689  0.24957871  1
  V  V57  1  0.02338178  0.37146629  0.87590732  1
  V  V58  1  0.24626105  0.49584731  0.74959406  1
  V  V59  1  0.37962693  0.37982320  0.50083272  1
  V  V60  1  0.49842615  0.75428419  0.25508177  1
  V  V61  1  0.62098981  0.50220921  0.61334467  1
  V  V62  1  0.37160318  0.49906002  0.37106575  1
  V  V63  1  0.50114662  0.62062941  0.60789382  1
  V  V64  1  0.25175110  0.12285272  0.37584837  1
  V  V65  1  0.87079080  0.87237136  -0.00214653  1
  V  V66  1  0.87472811  0.24285007  0.12871652  1
  V  V67  1  0.49139596  0.87729526  0.87593888  1
  V  V68  1  0.37880470  -0.00356411  0.37387040  1
  V  V69  1  0.12697844  0.88279116  0.23696706  1
  V  V70  1  0.62236858  0.87408816  0.25986336  1
  V  V71  1  0.86435243  0.50094728  0.37062166  1
  V  V72  1  0.12449798  0.75031681  0.37394496  1
  V  V73  1  0.25231336  0.62668607  0.87355393  1
  V  V74  1  0.87691993  0.37564355  -0.00997363  1
  V  V75  1  0.24778062  0.37540368  0.62743607  1
  V  V76  1  0.62594127  0.73358652  0.37629960  1
  V  V77  1  0.75500829  0.37952225  0.12979753  1
  V  V78  1  0.62597807  0.86596288  0.74992841  1
  V  V79  1  0.37830485  0.11850444  0.75435419  1
  V  V80  1  0.13920793  0.49303768  0.12789561  1
  V  V81  1  0.12447237  0.12451057  0.50105230  1
  V  V82  1  0.75111840  0.24640497  -0.00614748  1
  V  V83  1  0.62542708  -0.00039699  0.12448774  1
  V  V84  1  0.62472497  0.74449995  0.88432754  1
  Zn  Zn85  1  0.49721834  0.25141310  0.75589757  1
  Zn  Zn86  1  0.74896335  0.87434102  0.62612596  1
  Zn  Zn87  1  0.12092163  0.87149307  0.74769144  1
  Zn  Zn88  1  0.74282130  0.73466153  0.00731929  1
  Zn  Zn89  1  0.24468485  0.00028475  0.23972370  1
  Zn  Zn90  1  0.62808779  0.00170222  0.62712368  1
  Zn  Zn91  1  0.86268689  0.03718330  0.37932817  1
  Zn  Zn92  1  0.12278733  -0.00103663  0.62554287  1
  Zn  Zn93  1  -0.00279553  0.74779027  0.74944235  1
  Zn  Zn94  1  0.35530768  0.26650331  0.13548988  1
  Zn  Zn95  1  0.00634021  -0.00402589  0.00839887  1
  Zn  Zn96  1  0.50339795  0.12433361  0.62781415  1
  Zn  Zn97  1  0.30403946  0.92971726  0.06388457  1
  Zn  Zn98  1  0.12091238  0.12616035  -0.00819182  1
  Zn  Zn99  1  -0.00004669  0.61925506  0.12593450  1
  Zn  Zn100  1  0.74835965  0.61774120  0.88497465  1
  Zn  Zn101  1  0.50891290  0.49955606  -0.01002470  1
  Zn  Zn102  1  0.86843047  0.74835182  0.62570892  1
  Zn  Zn103  1  0.74511644  0.37224638  0.62384642  1
  Zn  Zn104  1  0.12281447  0.75096523  0.87198202  1
  Zn  Zn105  1  0.22875834  0.26874863  0.00235295  1
  Zn  Zn106  1  0.00190598  0.37692565  0.36992717  1
  Zn  Zn107  1  0.18536558  0.18780995  0.19023021  1
  Zn  Zn108  1  0.18935449  0.18509256  0.68773622  1
  Zn  Zn109  1  0.18619636  0.69124396  0.18402572  1
  Zn  Zn110  1  0.18628661  0.68779254  0.68739457  1
  Zn  Zn111  1  0.68669609  0.19238637  0.18401108  1
  Zn  Zn112  1  0.68421696  0.18804147  0.68797904  1
  Zn  Zn113  1  0.68548387  0.68721385  0.18944722  1
  Zn  Zn114  1  0.68822617  0.68402989  0.68526103  1
  Zn  Zn115  1  0.31468819  0.30936201  0.31585187  1
  Zn  Zn116  1  0.31520288  0.31390022  0.81461442  1
  Zn  Zn117  1  0.30990553  0.81212310  0.30847109  1
  Zn  Zn118  1  0.31220200  0.81070782  0.81077984  1
  Zn  Zn119  1  0.81942006  0.30664548  0.31878965  1
  Zn  Zn120  1  0.81106734  0.31127542  0.80904645  1
  Zn  Zn121  1  0.80873622  0.81016233  0.31454539  1
  Zn  Zn122  1  0.80873824  0.80774547  0.81176453  1
  Zn  Zn123  1  0.18937162  0.43587191  0.43745185  1
  Zn  Zn124  1  0.19740538  0.44145978  0.94269300  1
  Zn  Zn125  1  0.18707491  0.93844992  0.43463591  1
  Zn  Zn126  1  0.17904089  0.94497132  0.93415907  1
  Zn  Zn127  1  0.69001595  0.43679004  0.43622745  1
  Zn  Zn128  1  0.68999303  0.43409543  0.93918842  1
  Zn  Zn129  1  0.68538468  0.93778002  0.43641920  1
  Zn  Zn130  1  0.68494266  0.93633324  0.93470243  1
  Zn  Zn131  1  0.28827774  0.10530228  0.07998698  1
  Zn  Zn132  1  0.31377991  0.06102835  0.56439986  1
  Zn  Zn133  1  0.31820726  0.56306986  0.05834392  1
  Zn  Zn134  1  0.31279352  0.56117949  0.55973313  1
  Zn  Zn135  1  0.81373215  0.06000418  0.06401951  1
  Zn  Zn136  1  0.81521659  0.06162482  0.56917569  1
  Zn  Zn137  1  0.81665001  0.56169531  0.06537068  1
  Zn  Zn138  1  0.81156347  0.55538705  0.56650689  1
  Zn  Zn139  1  0.44287144  0.43997577  0.18648924  1
  Zn  Zn140  1  0.43838862  0.43983750  0.68746242  1
  Zn  Zn141  1  0.44067497  0.94045256  0.18689626  1
  Zn  Zn142  1  0.44105831  0.93556814  0.68677226  1
  Zn  Zn143  1  0.94388856  0.43533983  0.18516628  1
  Zn  Zn144  1  0.93850379  0.43473059  0.69202982  1
  Zn  Zn145  1  0.93252697  0.93679338  0.19333777  1
  Zn  Zn146  1  0.93065213  0.93889439  0.68808612  1
  Zn  Zn147  1  0.05762058  0.06444373  0.31432708  1
  Zn  Zn148  1  0.06285455  0.05586424  0.80965279  1
  Zn  Zn149  1  0.06161075  0.55897030  0.31077047  1
  Zn  Zn150  1  0.06094713  0.56050916  0.81425963  1
  Zn  Zn151  1  0.56666062  0.06166610  0.31637664  1
  Zn  Zn152  1  0.56227996  0.05999098  0.81429120  1
  Zn  Zn153  1  0.55782235  0.56100801  0.30483664  1
  Zn  Zn154  1  0.56434321  0.56466323  0.80305614  1
  Zn  Zn155  1  0.44357777  0.18786580  0.43820685  1
  Zn  Zn156  1  0.43485728  0.18530100  0.93754331  1
  Zn  Zn157  1  0.43694066  0.68698777  0.43365551  1
  Zn  Zn158  1  0.43925933  0.69182657  0.93370738  1
  Zn  Zn159  1  0.93633770  0.19048833  0.44280577  1
  Zn  Zn160  1  0.94426188  0.19209999  0.94101097  1
  Zn  Zn161  1  0.93280629  0.68695816  0.43573053  1
  Zn  Zn162  1  0.93475066  0.68704911  0.93916380  1
  Zn  Zn163  1  0.06315063  0.30772025  0.06479091  1
  Zn  Zn164  1  0.06113305  0.31169888  0.56529001  1
  Zn  Zn165  1  0.06020186  0.81213447  0.05878447  1
  Zn  Zn166  1  0.05986248  0.81102586  0.55997294  1
  Zn  Zn167  1  0.56251219  0.31780242  0.05995866  1
  Zn  Zn168  1  0.56426106  0.31259313  0.56417877  1
  Zn  Zn169  1  0.55785653  0.81501936  0.06260928  1
  Zn  Zn170  1  0.56520226  0.81053612  0.56179390  1
  O  O171  1  0.10843717  0.12085194  0.13071116  1
  O  O172  1  0.11603310  0.12441816  0.61917013  1
  O  O173  1  0.12366520  0.61594081  0.11666673  1
  O  O174  1  0.11736419  0.61752512  0.61864330  1
  O  O175  1  0.61559326  0.12240628  0.11627998  1
  O  O176  1  0.62277603  0.12453302  0.61245895  1
  O  O177  1  0.61674480  0.61498545  0.13459681  1
  O  O178  1  0.61474469  0.61181021  0.63037143  1
  O  O179  1  0.38168844  0.37991610  0.37991297  1
  O  O180  1  0.37739946  0.38661988  0.88020665  1
  O  O181  1  0.36900291  0.88191974  0.38389436  1
  O  O182  1  0.39274627  0.86939087  0.86673924  1
  O  O183  1  0.88131288  0.38118599  0.38386776  1
  O  O184  1  0.87888142  0.36824513  0.88815429  1
  O  O185  1  0.88491825  0.86955817  0.38318659  1
  O  O186  1  0.87727665  0.87553439  0.88366050  1
  O  O187  1  0.26235661  0.00475786  0.37339541  1
  O  O188  1  0.25104900  0.00040958  0.85829200  1
  O  O189  1  0.26280692  0.50458212  0.37644157  1
  O  O190  1  0.26010688  0.50989577  0.86814169  1
  O  O191  1  0.74605306  -0.00040052  0.36066091  1
  O  O192  1  0.76038379  -0.00303824  0.86822425  1
  O  O193  1  0.76479556  0.49526261  0.37403449  1
  O  O194  1  0.74101909  0.50059616  0.86125076  1
  O  O195  1  0.23750851  0.50559352  0.11960146  1
  O  O196  1  0.24693427  0.49671381  0.63159783  1
  O  O197  1  0.26437520  1.00903915  0.12947583  1
  O  O198  1  0.25017496  0.98832889  0.62913656  1
  O  O199  1  0.74619692  0.48576388  0.12365808  1
  O  O200  1  0.73511216  0.49997483  0.63472584  1
  O  O201  1  0.74590343  0.99032568  0.13383345  1
  O  O202  1  0.75163019  0.99635825  0.64279719  1
  O  O203  1  0.01373343  0.36335750  0.24728987  1
  O  O204  1  0.00166580  0.36610710  0.76090806  1
  O  O205  1  0.00422127  0.86702539  0.25733001  1
  O  O206  1  -0.00545383  0.87181143  0.75781526  1
  O  O207  1  0.51000250  0.36763788  0.25636193  1
  O  O208  1  0.51257868  0.37372372  0.74728750  1
  O  O209  1  0.50991860  0.86402121  0.24170014  1
  O  O210  1  0.51514000  0.88573037  0.76298719  1
  O  O211  1  0.50153023  0.13211601  0.24491548  1
  O  O212  1  0.49258061  0.12542683  0.74798565  1
  O  O213  1  0.48894999  0.63490676  0.24025953  1
  O  O214  1  0.48609655  0.62182992  0.73601796  1
  O  O215  1  1.00234944  0.13772370  0.24195597  1
  O  O216  1  1.00481511  0.13678909  0.74160050  1
  O  O217  1  0.99960376  0.63779768  0.24984505  1
  O  O218  1  0.99146994  0.61929046  0.74192878  1
  O  O219  1  0.38167505  0.26471343  0.00180520  1
  O  O220  1  0.37165060  0.25760570  0.50638153  1
  O  O221  1  0.36578400  0.74457249  0.00822935  1
  O  O222  1  0.37095882  0.75586034  0.50366533  1
  O  O223  1  0.86915972  0.25658665  0.00771679  1
  O  O224  1  0.88960548  0.26438270  0.51814035  1
  O  O225  1  0.87207807  0.75926918  0.00789002  1
  O  O226  1  0.86019509  0.75578968  0.49787909  1
  O  O227  1  0.13102199  0.24583790  0.49629287  1
  O  O228  1  0.12094601  0.23894664  0.99924408  1
  O  O229  1  0.12982387  0.74314156  0.49369753  1
  O  O230  1  0.13290218  0.73968893  1.00002141  1
  O  O231  1  0.62031507  0.23731514  0.49546455  1
  O  O232  1  0.63167283  0.24543857  0.99569596  1
  O  O233  1  0.63594900  0.75330478  0.49079347  1
  O  O234  1  0.62529655  0.75482909  0.98911707  1
  O  O235  1  0.51012813  0.24465222  0.13728242  1
  O  O236  1  0.48725537  0.24989546  0.62682432  1
  O  O237  1  0.49388450  0.74377074  0.13162233  1
  O  O238  1  0.48826031  0.74124839  0.61751144  1
  O  O239  1  0.99271135  0.24052990  0.13298465  1
  O  O240  1  0.99593323  0.24709433  0.63803490  1
  O  O241  1  0.99318265  0.75019835  0.13494574  1
  O  O242  1  0.99757283  0.73419533  0.62156159  1
  O  O243  1  0.00965734  0.25373160  0.36801071  1
  O  O244  1  -0.00139790  0.25516649  0.86159365  1
  O  O245  1  0.00373536  0.75702351  0.36863049  1
  O  O246  1  -0.00127555  0.75950393  0.87469316  1
  O  O247  1  0.50747109  0.25905611  0.36528993  1
  O  O248  1  0.51408935  0.24657789  0.87620078  1
  O  O249  1  0.50531920  0.74637692  0.36194482  1
  O  O250  1  0.51157467  0.76534568  0.87975843  1
  O  O251  1  0.24579502  0.12912334  0.49658002  1
  O  O252  1  0.25520884  0.11708010  0.97151891  1
  O  O253  1  0.24498540  0.62862622  0.49238221  1
  O  O254  1  0.24489588  0.63133681  0.99114889  1
  O  O255  1  0.73636300  0.11754616  0.50326795  1
  O  O256  1  0.73960856  0.13492271  1.01121724  1
  O  O257  1  0.75349795  0.63425017  0.50149583  1
  O  O258  1  0.75524292  0.62321593  0.99762583  1
  O  O259  1  0.27112488  0.37490206  -0.00446785  1
  O  O260  1  0.26101036  0.36920713  0.50523882  1
  O  O261  1  0.24581531  0.86353805  -0.00960909  1
  O  O262  1  0.25988523  0.87038848  0.50548905  1
  O  O263  1  0.75862803  0.36689323  0.00849832  1
  O  O264  1  0.76502007  0.37912886  0.50498420  1
  O  O265  1  0.75558421  0.87603227  0.01151937  1
  O  O266  1  0.75784486  0.87470404  0.50080466  1
  O  O267  1  0.12153028  0.49246022  0.23577439  1
  O  O268  1  0.13872456  0.50769132  0.74470373  1
  O  O269  1  0.12112813  0.98581753  0.25567075  1
  O  O270  1  0.13560695  0.99162809  0.74314459  1
  O  O271  1  0.62180098  0.48625163  0.24137103  1
  O  O272  1  0.63088053  0.49210812  0.74328477  1
  O  O273  1  0.62922575  0.99117431  0.24588027  1
  O  O274  1  0.63809263  0.99241908  0.75479487  1
  O  O275  1  0.38126540  0.00529346  0.26147058  1
  O  O276  1  0.36728325  0.00942501  0.73854695  1
  O  O277  1  0.38068583  0.51078492  0.25654021  1
  O  O278  1  0.36768874  0.50799611  0.75415746  1
  O  O279  1  0.85694650  -0.00395385  0.25549050  1
  O  O280  1  0.86163551  -0.00288444  0.76348874  1
  O  O281  1  0.88851043  0.50733343  0.25807406  1
  O  O282  1  0.86225020  0.50617018  0.74152073  1
  O  O283  1  0.12639343  0.37079887  0.36559645  1
  O  O284  1  0.12214717  0.37493540  0.88293369  1
  O  O285  1  0.11180709  0.86960246  0.37268645  1
  O  O286  1  0.10721857  0.87428748  0.87369214  1
  O  O287  1  0.61933005  0.37096217  0.37054472  1
  O  O288  1  0.62929573  0.36554711  0.86773839  1
  O  O289  1  0.62682185  0.86573341  0.36316971  1
  O  O290  1  0.62096694  0.86618069  0.86611153  1
  O  O291  1  0.39491917  0.13040943  0.13216301  1
  O  O292  1  0.37386713  0.13468071  0.63261332  1
  O  O293  1  0.38177783  0.63225255  0.13033646  1
  O  O294  1  0.37993401  0.62893429  0.62674565  1
  O  O295  1  0.87650928  0.13875090  0.12342483  1
  O  O296  1  0.88603701  0.14100387  0.61869314  1
  O  O297  1  0.88145875  0.62935749  0.13610099  1
  O  O298  1  0.88368770  0.62241191  0.63113282  1
  O  O299  1  0.25760894  0.21719322  0.10734665  1
  O  O300  1  0.25985545  0.25474621  0.62158821  1
  O  O301  1  0.25971855  0.74626034  0.11372990  1
  O  O302  1  0.25947976  0.75476577  0.61741809  1
  O  O303  1  0.75537642  0.25936056  0.11678061  1
  O  O304  1  0.76571689  0.24952631  0.63143274  1
  O  O305  1  0.75412413  0.75983803  0.12739420  1
  O  O306  1  0.74572010  0.75227952  0.60838789  1
  O  O307  1  0.24671343  0.24324730  0.38281133  1
  O  O308  1  0.25046014  0.24068298  0.87364495  1
  O  O309  1  0.24516767  0.74307094  0.37920593  1
  O  O310  1  0.25060394  0.74044134  0.88126180  1
  O  O311  1  0.73561236  0.25713690  0.37626936  1
  O  O312  1  0.74356899  0.25295979  0.88865546  1
  O  O313  1  0.74132705  0.75054008  0.38708520  1
  O  O314  1  0.73474537  0.74822744  0.87950836  1
  O  O315  1  -0.00457513  0.12442489  0.01865486  1
  O  O316  1  0.00594516  0.12210692  0.51093890  1
  O  O317  1  0.00930910  0.61657962  -0.00215822  1
  O  O318  1  0.00260692  0.61599278  0.50617476  1
  O  O319  1  0.50693073  0.11889544  0.00534593  1
  O  O320  1  0.50528846  0.11578072  0.50423451  1
  O  O321  1  0.49547714  0.62488785  0.01265061  1
  O  O322  1  0.49471453  0.62219260  0.50790554  1
  O  O323  1  0.49119876  0.36651472  0.48850222  1
  O  O324  1  0.48943101  0.38175675  1.00048103  1
  O  O325  1  0.48897272  0.88198660  0.50478714  1
  O  O326  1  0.50542967  0.88535581  0.98774189  1
  O  O327  1  0.99413341  0.38682616  0.50283689  1
  O  O328  1  0.99578040  0.37691058  0.99288753  1
  O  O329  1  0.99091923  0.87938029  0.49376660  1
  O  O330  1  0.98716857  0.87683045  0.99335059  1
  O  O331  1  0.49012998  0.48742407  0.36831886  1
  O  O332  1  0.48870215  0.51281219  0.87285215  1
  O  O333  1  0.48977930  1.00358795  0.38605745  1
  O  O334  1  0.50501015  0.98873928  0.88450685  1
  O  O335  1  0.99662222  0.49825273  0.38655318  1
  O  O336  1  1.00864022  0.48823970  0.88845856  1
  O  O337  1  0.99401708  0.99187510  0.38071611  1
  O  O338  1  0.98255524  0.99126256  0.87046067  1
  O  O339  1  -0.01535896  0.01559148  0.12979318  1
  O  O340  1  -0.00401941  0.01056733  0.62158251  1
  O  O341  1  0.01277389  0.49876454  0.11148251  1
  O  O342  1  0.00417662  0.50595226  0.61799932  1
  O  O343  1  0.50638774  0.00778344  0.11728063  1
  O  O344  1  0.50352422  0.00082529  0.61286193  1
  O  O345  1  0.51066727  0.50989682  0.12492240  1
  O  O346  1  0.51194967  0.50472133  0.62573486  1
  O  O347  1  0.23998274  0.36306319  0.24747762  1
  O  O348  1  0.25899608  0.38874269  0.74418997  1
  O  O349  1  0.23077469  0.87511141  0.25371147  1
  O  O350  1  0.25356465  0.87934963  0.73856626  1
  O  O351  1  0.74270994  0.36446630  0.24127446  1
  O  O352  1  0.74005972  0.38139767  0.74691860  1
  O  O353  1  0.74164781  0.87909502  0.24237874  1
  O  O354  1  0.73760026  0.87990160  0.75018177  1
  O  O355  1  0.25964874  0.12467409  0.25952176  1
  O  O356  1  0.25737732  0.11714572  0.75431207  1
  O  O357  1  0.26202385  0.63382079  0.25320586  1
  O  O358  1  0.25894899  0.61760654  0.75514636  1
  O  O359  1  0.73999791  0.10927228  0.24090126  1
  O  O360  1  0.74420695  0.11253427  0.75249962  1
  O  O361  1  0.76364360  0.62693161  0.24733224  1
  O  O362  1  0.75614989  0.61645243  0.75167326  1
  O  O363  1  0.37266764  0.11783938  0.37297606  1
  O  O364  1  0.36690287  0.13043864  0.85969541  1
  O  O365  1  0.37117787  0.61767741  0.36601936  1
  O  O366  1  0.36894778  0.62287530  0.86612033  1
  O  O367  1  0.87350380  0.14531756  0.36703010  1
  O  O368  1  0.87890412  0.11226107  0.88332368  1
  O  O369  1  0.88176868  0.61377348  0.36550155  1
  O  O370  1  0.87498341  0.62558259  0.86171083  1
  O  O371  1  0.12646859  0.38610089  0.12781444  1
  O  O372  1  0.13537139  0.38324592  0.61782015  1
  O  O373  1  0.11682428  0.87446067  0.13791319  1
  O  O374  1  0.13830314  0.87241893  0.62053204  1
  O  O375  1  0.63416646  0.37992249  0.13255589  1
  O  O376  1  0.62497472  0.38409697  0.63222384  1
  O  O377  1  0.63187654  0.87785200  0.13283485  1
  O  O378  1  0.62245715  0.87716609  0.63959430  1
  O  O379  1  0.11867228  0.25630483  0.25458441  1
  O  O380  1  0.11425002  0.25298476  0.74466091  1
  O  O381  1  0.11657315  0.75928067  0.25330960  1
  O  O382  1  0.11917234  0.75222985  0.75312795  1
  O  O383  1  0.62026120  0.25772213  0.25799529  1
  O  O384  1  0.62507187  0.25762042  0.75891838  1
  O  O385  1  0.61808709  0.75524693  0.25667715  1
  O  O386  1  0.62823059  0.76199760  0.75609413  1
  O  O387  1  0.38793388  0.24574527  0.25004881  1
  O  O388  1  0.37560855  0.24309993  0.74146628  1
  O  O389  1  0.38072701  0.74442198  0.24281248  1
  O  O390  1  0.36747632  0.73900914  0.73591021  1
  O  O391  1  0.88664987  0.26198874  0.23900319  1
  O  O392  1  0.88555999  0.25664669  0.73715910  1
  O  O393  1  0.88176608  0.74266535  0.24910765  1
  O  O394  1  0.87370319  0.73697646  0.74407156  1
  O  O395  1  0.37297608  0.48748750  0.49042144  1
  O  O396  1  0.37889580  0.49281650  0.99033422  1
  O  O397  1  0.38123302  0.99299432  0.49417003  1
  O  O398  1  0.38574930  0.99994055  1.00540188  1
  O  O399  1  0.88225517  0.49406020  0.49385832  1
  O  O400  1  0.88867964  0.48776973  1.00860824  1
  O  O401  1  0.87757027  0.99364632  0.49498068  1
  O  O402  1  0.87239845  0.99025581  0.98881246  1
  O  O403  1  0.11679280  0.01297159  -0.00540906  1
  O  O404  1  0.11679050  0.00569920  0.50134746  1
  O  O405  1  0.12259987  0.50632010  0.00901552  1
  O  O406  1  0.11818830  0.50432111  0.50390442  1
  O  O407  1  0.62397555  0.00878119  0.00525353  1
  O  O408  1  0.61779785  0.00977090  0.49844118  1
  O  O409  1  0.62501922  0.49207457  0.01523990  1
  O  O410  1  0.62954682  0.49445125  0.51468983  1
  O  O411  1  0.37933390  0.37789448  0.11439634  1
  O  O412  1  0.37130146  0.36953464  0.61839195  1
  O  O413  1  0.37861325  0.86217538  0.12693957  1
  O  O414  1  0.36960083  0.86621124  0.61711543  1
  O  O415  1  0.87105073  0.36655509  0.11692619  1
  O  O416  1  0.87443106  0.36710434  0.62083306  1
  O  O417  1  0.86712880  0.87049386  0.11926257  1
  O  O418  1  0.87442871  0.87087788  0.61072725  1
  O  O419  1  0.13032926  0.13076230  0.38083414  1
  O  O420  1  0.14037240  0.12357173  0.86286598  1
  O  O421  1  0.12927587  0.62883983  0.37775107  1
  O  O422  1  0.13538876  0.62235169  0.88456414  1
  O  O423  1  0.62001018  0.13386766  0.38873784  1
  O  O424  1  0.62338986  0.13242947  0.88772393  1
  O  O425  1  0.62061644  0.63407424  0.36662823  1
  O  O426  1  0.61941330  0.64301441  0.86640156  1
