# generated using pymatgen
data_V85Zn86O256
_symmetry_space_group_name_H-M   'P 1'
_cell_length_a   16.96655256
_cell_length_b   16.97256610
_cell_length_c   16.98688280
_cell_angle_alpha   89.97631255
_cell_angle_beta   89.89842223
_cell_angle_gamma   90.06335032
_symmetry_Int_Tables_number   1
_chemical_formula_structural   V85Zn86O256
_chemical_formula_sum   'V85 Zn86 O256'
_cell_volume   4891.63248803
_cell_formula_units_Z   1
loop_
 _symmetry_equiv_pos_site_id
 _symmetry_equiv_pos_as_xyz
  1  'x, y, z'
loop_
 _atom_site_type_symbol
 _atom_site_label
 _atom_site_symmetry_multiplicity
 _atom_site_fract_x
 _atom_site_fract_y
 _atom_site_fract_z
 _atom_site_occupancy
  V  V0  1  0.12708164  0.37660958  0.26269314  1
  V  V1  1  -0.00000832  0.87520314  0.37410982  1
  V  V2  1  0.50443465  0.50457386  -0.00079592  1
  V  V3  1  0.62449097  0.74845721  0.87476286  1
  V  V4  1  0.74962259  0.12854529  0.37858456  1
  V  V5  1  0.74947030  0.00239374  0.75650203  1
  V  V6  1  0.12974075  0.49618220  0.62618168  1
  V  V7  1  0.00470264  0.25526517  0.26276839  1
  V  V8  1  0.63384597  0.63753562  0.50431768  1
  V  V9  1  0.24960651  0.00114720  0.24956714  1
  V  V10  1  0.87727340  0.13062481  0.24820809  1
  V  V11  1  0.00126283  0.00234201  0.00348306  1
  V  V12  1  0.37647253  -0.00089814  0.37422865  1
  V  V13  1  0.87820528  0.37415100  0.48598248  1
  V  V14  1  0.75054432  0.74783862  -0.00199896  1
  V  V15  1  0.50069700  0.86343066  0.36439464  1
  V  V16  1  0.24954266  0.75259361  0.50569330  1
  V  V17  1  0.38265466  0.75006629  0.13193273  1
  V  V18  1  0.00117073  0.00070440  0.50044896  1
  V  V19  1  0.74856993  0.25103383  -0.00280756  1
  V  V20  1  0.49230432  0.12590906  0.62557664  1
  V  V21  1  0.25091661  0.87634901  0.12636364  1
  V  V22  1  0.12309289  0.87226797  0.74965391  1
  V  V23  1  0.37538747  0.00123716  0.87542491  1
  V  V24  1  0.37112858  0.87143545  0.50738494  1
  V  V25  1  0.62398984  -0.00093572  0.62411711  1
  V  V26  1  -0.00159793  0.49198748  0.49204858  1
  V  V27  1  0.38041144  0.37580707  0.49733091  1
  V  V28  1  0.49976326  -0.00317609  0.50076952  1
  V  V29  1  0.12787734  0.25021298  0.87662790  1
  V  V30  1  0.13142274  0.37675975  0.75030526  1
  V  V31  1  0.49114408  0.74460439  0.74994329  1
  V  V32  1  -0.00116466  0.87468831  0.87418621  1
  V  V33  1  0.87782950  0.73771523  0.12734784  1
  V  V34  1  0.24741342  0.13107727  0.37346165  1
  V  V35  1  0.75555894  0.62570085  0.86345269  1
  V  V36  1  0.74740394  0.87427097  0.12827654  1
  V  V37  1  0.25044345  -0.00413871  0.74863815  1
  V  V38  1  0.38487115  0.49483631  0.36823197  1
  V  V39  1  0.49928395  0.87555050  0.87494446  1
  V  V40  1  0.38426769  0.62638135  0.25132245  1
  V  V41  1  0.74992834  0.25143953  0.50595585  1
  V  V42  1  0.49127872  0.62467379  0.62644096  1
  V  V43  1  0.25124427  0.12577858  0.87595545  1
  V  V44  1  0.86863385  0.12473476  0.75607013  1
  V  V45  1  0.87759704  0.25501158  0.11900311  1
  V  V46  1  0.12511264  0.74941097  0.37511313  1
  V  V47  1  0.62665125  0.48754857  0.63107993  1
  V  V48  1  0.38410570  0.25442619  0.12932863  1
  V  V49  1  0.12496493  0.12979099  0.49773073  1
  V  V50  1  0.37395086  0.50405528  0.86183311  1
  V  V51  1  0.37498544  0.37905478  -0.00019072  1
  V  V52  1  0.63358726  0.74937168  0.36512551  1
  V  V53  1  0.87077886  0.25603909  0.62807476  1
  V  V54  1  0.25635854  0.37025912  0.62704221  1
  V  V55  1  -0.00408032  0.50658409  0.00539537  1
  V  V56  1  -0.00123454  0.73971486  0.24643195  1
  V  V57  1  0.62404699  0.00185197  0.12662514  1
  V  V58  1  0.25033331  0.61641894  0.37026940  1
  V  V59  1  0.25370162  0.62226057  0.86374980  1
  V  V60  1  0.38317004  0.13131409  0.24950021  1
  V  V61  1  0.75304156  0.37858573  0.13155899  1
  V  V62  1  0.87484558  -0.00026463  0.37582342  1
  V  V63  1  0.62436869  0.87318761  0.74918571  1
  V  V64  1  0.12297499  0.62191517  0.50262412  1
  V  V65  1  0.25134900  0.25145307  -0.00090022  1
  V  V66  1  0.25489937  0.24827058  0.50412426  1
  V  V67  1  0.87696264  0.74167413  0.62987950  1
  V  V68  1  0.24903311  0.74667815  0.00106220  1
  V  V69  1  0.62797512  0.49982513  0.13377703  1
  V  V70  1  0.61675167  0.25333021  0.37045157  1
  V  V71  1  0.74986066  0.87007134  0.62108457  1
  V  V72  1  0.75269194  0.48695713  0.74362434  1
  V  V73  1  0.50891446  0.37683009  0.86857957  1
  V  V74  1  0.12799137  -0.00500603  0.62459486  1
  V  V75  1  -0.00710418  0.37751804  0.88109165  1
  V  V76  1  0.24733323  0.38346532  0.12738696  1
  V  V77  1  0.12532599  0.87573344  0.25013956  1
  V  V78  1  0.00002871  0.24868803  0.74992022  1
  V  V79  1  0.74767870  -0.00452109  0.25092133  1
  V  V80  1  0.49847046  0.25154344  0.74648990  1
  V  V81  1  0.62753219  0.24316038  0.87184054  1
  V  V82  1  0.87143915  0.87190532  0.50123922  1
  V  V83  1  0.87508934  0.87557649  0.00062849  1
  V  V84  1  0.37615344  0.87667188  0.00047541  1
  Zn  Zn85  1  0.00547368  0.13014006  0.12444736  1
  Zn  Zn86  1  0.61134163  0.37535806  0.25899339  1
  Zn  Zn87  1  -0.01250245  0.61165224  0.63554948  1
  Zn  Zn88  1  0.12398525  0.62422885  0.00834457  1
  Zn  Zn89  1  0.12315326  0.50562659  0.13063209  1
  Zn  Zn90  1  0.50648747  0.13311458  0.12503481  1
  Zn  Zn91  1  -0.00645180  0.73671075  0.75601111  1
  Zn  Zn92  1  0.50795772  0.63112938  0.13079967  1
  Zn  Zn93  1  0.62762523  0.62358402  -0.00175838  1
  Zn  Zn94  1  0.87015640  0.00556562  0.87922105  1
  Zn  Zn95  1  0.86304875  0.60842094  0.27843867  1
  Zn  Zn96  1  0.50203743  0.00437439  -0.00019681  1
  Zn  Zn97  1  0.50411799  0.50005834  0.49759935  1
  Zn  Zn98  1  0.12646941  0.12562171  0.00278801  1
  Zn  Zn99  1  0.87639614  0.50670137  0.86706929  1
  Zn  Zn100  1  0.37063371  0.13106128  0.74641208  1
  Zn  Zn101  1  0.12374441  0.74529919  0.87606854  1
  Zn  Zn102  1  0.12627779  0.00388369  0.12534676  1
  Zn  Zn103  1  0.62701865  0.12404712  -0.00264182  1
  Zn  Zn104  1  0.36553069  0.74484520  0.63161006  1
  Zn  Zn105  1  0.62330671  0.12426139  0.50060639  1
  Zn  Zn106  1  -0.00020731  0.12425789  0.62595435  1
  Zn  Zn107  1  0.18934999  0.19201458  0.18461952  1
  Zn  Zn108  1  0.18730879  0.18504024  0.68620752  1
  Zn  Zn109  1  0.19051277  0.68603629  0.18815212  1
  Zn  Zn110  1  0.18146821  0.68567675  0.68826217  1
  Zn  Zn111  1  0.69070499  0.18862548  0.18912239  1
  Zn  Zn112  1  0.68143178  0.18674446  0.68866877  1
  Zn  Zn113  1  0.69160891  0.68640720  0.18616192  1
  Zn  Zn114  1  0.68596703  0.68408921  0.68514825  1
  Zn  Zn115  1  0.31103014  0.31343955  0.31201020  1
  Zn  Zn116  1  0.31788151  0.31410721  0.81355979  1
  Zn  Zn117  1  0.31197356  0.81004616  0.31592782  1
  Zn  Zn118  1  0.31010403  0.81394919  0.81514616  1
  Zn  Zn119  1  0.80956510  0.43354593  0.31257390  1
  Zn  Zn120  1  0.80963288  0.31292605  0.81240436  1
  Zn  Zn121  1  0.81459461  0.80575169  0.31269207  1
  Zn  Zn122  1  0.81251991  0.81373819  0.81045736  1
  Zn  Zn123  1  0.19106557  0.43594210  0.44000032  1
  Zn  Zn124  1  0.18495134  0.44167027  0.93784134  1
  Zn  Zn125  1  0.18912974  0.93896571  0.43575101  1
  Zn  Zn126  1  0.18663448  0.93653941  0.93759104  1
  Zn  Zn127  1  0.67947192  0.42987751  0.45389431  1
  Zn  Zn128  1  0.69359021  0.43559499  0.93824526  1
  Zn  Zn129  1  0.68401845  0.93335205  0.43576941  1
  Zn  Zn130  1  0.68535462  0.93495859  0.94033693  1
  Zn  Zn131  1  0.31495404  0.06553339  0.06353492  1
  Zn  Zn132  1  0.31171524  0.05834267  0.56187600  1
  Zn  Zn133  1  0.31456612  0.56661529  0.06265621  1
  Zn  Zn134  1  0.31051508  0.55890286  0.55868312  1
  Zn  Zn135  1  0.81188266  0.06621624  0.06156389  1
  Zn  Zn136  1  0.81372909  0.06281041  0.56889625  1
  Zn  Zn137  1  0.81417530  0.55906836  0.05324568  1
  Zn  Zn138  1  0.81004690  0.56119665  0.45576802  1
  Zn  Zn139  1  0.44214181  0.44060729  0.19158959  1
  Zn  Zn140  1  0.44029731  0.43655759  0.68464520  1
  Zn  Zn141  1  0.43646307  0.93937103  0.18808093  1
  Zn  Zn142  1  0.43645396  0.93551068  0.68871732  1
  Zn  Zn143  1  0.94219362  0.43785728  0.19040310  1
  Zn  Zn144  1  0.93755359  0.43856683  0.68621163  1
  Zn  Zn145  1  0.93593446  0.93439906  0.18727953  1
  Zn  Zn146  1  0.93732727  0.93829413  0.68706399  1
  Zn  Zn147  1  0.06265636  0.06369275  0.31212236  1
  Zn  Zn148  1  0.06242213  0.06213544  0.81628866  1
  Zn  Zn149  1  0.06141803  0.55919943  0.31245431  1
  Zn  Zn150  1  0.06970258  0.56247729  0.81578420  1
  Zn  Zn151  1  0.56363062  0.06052755  0.31495568  1
  Zn  Zn152  1  0.56153538  0.06394457  0.80966563  1
  Zn  Zn153  1  0.68264138  0.56909323  0.32030607  1
  Zn  Zn154  1  0.56589849  0.56341657  0.81028362  1
  Zn  Zn155  1  0.43521943  0.18562395  0.44028513  1
  Zn  Zn156  1  0.44116398  0.18651060  0.93840944  1
  Zn  Zn157  1  0.43991155  0.68304120  0.43984309  1
  Zn  Zn158  1  0.43482651  0.68775318  0.93866560  1
  Zn  Zn159  1  0.93637870  0.18784982  0.43835975  1
  Zn  Zn160  1  0.93665418  0.18884029  0.93831839  1
  Zn  Zn161  1  0.94297107  0.68966858  0.44411897  1
  Zn  Zn162  1  0.93513387  0.68742294  0.93820236  1
  Zn  Zn163  1  0.06499790  0.31607083  0.06511734  1
  Zn  Zn164  1  0.06224464  0.31085944  0.56247476  1
  Zn  Zn165  1  0.06330799  0.81287356  0.06465828  1
  Zn  Zn166  1  0.05916471  0.81176143  0.56362298  1
  Zn  Zn167  1  0.56676387  0.31853260  0.05756079  1
  Zn  Zn168  1  0.56145099  0.30656958  0.56003408  1
  Zn  Zn169  1  0.56438189  0.81591708  0.06135925  1
  Zn  Zn170  1  0.55653991  0.81213919  0.56279583  1
  O  O171  1  0.12365197  0.12241627  0.12104894  1
  O  O172  1  0.12336529  0.11464270  0.61569771  1
  O  O173  1  0.13385324  0.61810606  0.12235319  1
  O  O174  1  0.13224539  0.61128539  0.61449917  1
  O  O175  1  0.62599547  0.11488920  0.12765127  1
  O  O176  1  0.61365382  0.11546539  0.62320895  1
  O  O177  1  0.62715424  0.61214755  0.11934317  1
  O  O178  1  0.61310145  0.62347017  0.61768379  1
  O  O179  1  0.36231502  0.38810106  0.38225497  1
  O  O180  1  0.38142193  0.38405992  0.88413550  1
  O  O181  1  0.38388283  0.87766015  0.38267759  1
  O  O182  1  0.37943692  0.88114309  0.88112326  1
  O  O183  1  0.87444315  0.36875603  0.38850880  1
  O  O184  1  0.89190618  0.37420478  0.86820201  1
  O  O185  1  0.87878221  0.87964930  0.38308450  1
  O  O186  1  0.88381332  0.87584089  0.88120057  1
  O  O187  1  0.25695102  0.00970754  0.37025534  1
  O  O188  1  0.25379866  0.00531086  0.86786247  1
  O  O189  1  0.25648531  0.51207870  0.38363631  1
  O  O190  1  0.25864110  0.51378987  0.88129631  1
  O  O191  1  0.75381817  0.00502691  0.36912001  1
  O  O192  1  0.75012208  -0.00912438  0.86055726  1
  O  O193  1  0.74302906  0.49463756  0.38447172  1
  O  O194  1  0.74880231  0.50650533  0.86358228  1
  O  O195  1  0.25468015  0.48525637  0.11870169  1
  O  O196  1  0.23802908  0.48601169  0.61620863  1
  O  O197  1  0.25253327  0.99353694  0.13199419  1
  O  O198  1  0.23946374  1.00407596  0.63550606  1
  O  O199  1  0.73949449  0.48811511  0.11084097  1
  O  O200  1  0.73376395  0.50054003  0.63792444  1
  O  O201  1  0.74630402  0.99408692  0.13208162  1
  O  O202  1  0.74451926  0.99106378  0.63386360  1
  O  O203  1  0.01075073  0.36117863  0.24728698  1
  O  O204  1  0.00937345  0.36544044  0.75679862  1
  O  O205  1  0.00477580  0.86909832  0.25678428  1
  O  O206  1  0.00719985  0.87894599  0.76015532  1
  O  O207  1  0.50125402  0.36879133  0.24786177  1
  O  O208  1  0.49460053  0.36724911  0.76025543  1
  O  O209  1  0.49377464  0.87745206  0.26624041  1
  O  O210  1  0.50549640  0.86687107  0.75458031  1
  O  O211  1  0.48624667  0.11905507  0.24888120  1
  O  O212  1  0.49632180  0.13114080  0.74149044  1
  O  O213  1  0.48364950  0.62594935  0.24854090  1
  O  O214  1  0.50444259  0.63644454  0.74249063  1
  O  O215  1  0.99352401  0.13330073  0.24928329  1
  O  O216  1  0.99404255  0.13599102  0.75253248  1
  O  O217  1  0.99934019  0.63912300  0.25786794  1
  O  O218  1  1.01525922  0.62677328  0.74361307  1
  O  O219  1  0.37196484  0.26290373  0.00440970  1
  O  O220  1  0.36316369  0.25871592  0.49459383  1
  O  O221  1  0.36740662  0.75657691  0.00809870  1
  O  O222  1  0.36526434  0.75501542  0.49939331  1
  O  O223  1  0.86829847  0.24634406  0.01161882  1
  O  O224  1  0.87214092  0.25528784  0.50852531  1
  O  O225  1  0.87094479  0.75678248  0.00828077  1
  O  O226  1  0.88163542  0.76725873  0.51185478  1
  O  O227  1  0.13457280  0.23727375  0.50630670  1
  O  O228  1  0.13353234  0.25214269  0.99328543  1
  O  O229  1  0.12810721  0.74198231  0.49681616  1
  O  O230  1  0.13796426  0.75195748  0.99896959  1
  O  O231  1  0.63552414  0.24587497  0.49518007  1
  O  O232  1  0.63024837  0.24939171  0.99051450  1
  O  O233  1  0.61984351  0.74142462  0.49834945  1
  O  O234  1  0.63267342  0.75018242  0.99290543  1
  O  O235  1  0.48699559  0.25487942  0.11698487  1
  O  O236  1  0.50705223  0.23789933  0.63373969  1
  O  O237  1  0.48750959  0.74946681  0.11678932  1
  O  O238  1  0.49544617  0.74238865  0.63402650  1
  O  O239  1  0.99039581  0.25156918  0.12700081  1
  O  O240  1  0.99361324  0.24820166  0.63692926  1
  O  O241  1  0.99001062  0.75793748  0.13501661  1
  O  O242  1  0.98620513  0.75159721  0.62810946  1
  O  O243  1  -0.00326187  0.24765971  0.36124797  1
  O  O244  1  0.00522541  0.25964118  0.86912181  1
  O  O245  1  0.00625720  0.75694404  0.36910004  1
  O  O246  1  0.00224393  0.76195615  0.87563090  1
  O  O247  1  0.51862064  0.23808285  0.38461171  1
  O  O248  1  0.50736872  0.25852534  0.86954425  1
  O  O249  1  0.50131202  0.76043612  0.37722151  1
  O  O250  1  0.50289882  0.75425686  0.86873408  1
  O  O251  1  0.24617205  0.12970683  0.49464005  1
  O  O252  1  0.25172868  0.13370628  0.99322673  1
  O  O253  1  0.24084753  0.63132105  0.49245975  1
  O  O254  1  0.25397893  0.63734393  0.99423563  1
  O  O255  1  0.75292818  0.12862494  0.49353462  1
  O  O256  1  0.74707933  0.14382019  1.00726687  1
  O  O257  1  0.73168842  0.62542507  0.51244038  1
  O  O258  1  0.74882725  0.63159549  0.98707680  1
  O  O259  1  0.25901132  0.37245949  0.00321354  1
  O  O260  1  0.25448826  0.36463697  0.50771802  1
  O  O261  1  0.25620167  0.86765177  0.00409199  1
  O  O262  1  0.25803975  0.86420634  0.49070962  1
  O  O263  1  0.74534110  0.36203525  0.01249845  1
  O  O264  1  0.76503822  0.36012431  0.50185206  1
  O  O265  1  0.75606095  0.86903010  0.00750114  1
  O  O266  1  0.75983207  0.88492283  0.51004201  1
  O  O267  1  0.11266865  0.48059755  0.24769296  1
  O  O268  1  0.12215563  0.48465415  0.74011877  1
  O  O269  1  0.13160318  0.99372778  0.25015465  1
  O  O270  1  0.12994300  0.99459438  0.74416927  1
  O  O271  1  0.62764319  0.50139674  0.23446306  1
  O  O272  1  0.62974841  0.50115678  0.73859707  1
  O  O273  1  0.64046553  1.00521561  0.24423450  1
  O  O274  1  0.63105706  0.99376723  0.74460620  1
  O  O275  1  0.36825234  0.01007506  0.25431930  1
  O  O276  1  0.36358990  -0.00283598  0.75553162  1
  O  O277  1  0.37396254  0.50707622  0.26219796  1
  O  O278  1  0.37753751  0.49484622  0.76339533  1
  O  O279  1  0.86939484  0.00947255  0.25445137  1
  O  O280  1  0.86729069  0.00805791  0.74997536  1
  O  O281  1  0.88123698  0.49877109  0.25702379  1
  O  O282  1  0.85938035  0.49710555  0.74692693  1
  O  O283  1  0.13533100  0.37282965  0.36175747  1
  O  O284  1  0.12119656  0.37034221  0.86531823  1
  O  O285  1  0.12034695  0.87021334  0.37061704  1
  O  O286  1  0.11557927  0.87467950  0.86682422  1
  O  O287  1  0.62930278  0.35678721  0.37973499  1
  O  O288  1  0.61220250  0.36896908  0.88075915  1
  O  O289  1  0.60907225  0.86366942  0.38135151  1
  O  O290  1  0.61931819  0.86838736  0.86936139  1
  O  O291  1  0.37536176  0.13669941  0.13374396  1
  O  O292  1  0.38721793  0.11720887  0.62617589  1
  O  O293  1  0.37485940  0.63379223  0.13416320  1
  O  O294  1  0.38579418  0.62321413  0.61859785  1
  O  O295  1  0.87464629  0.13422759  0.13520732  1
  O  O296  1  0.87976438  0.13389090  0.63671647  1
  O  O297  1  0.86914261  0.63851258  0.11931381  1
  O  O298  1  0.87259299  0.64380827  0.61587470  1
  O  O299  1  0.26134115  0.26133194  0.11765625  1
  O  O300  1  0.24792691  0.25662662  0.61605247  1
  O  O301  1  0.26018428  0.75723229  0.11820422  1
  O  O302  1  0.24790052  0.74271199  0.61048258  1
  O  O303  1  0.75506268  0.26133562  0.12187354  1
  O  O304  1  0.75710355  0.23864092  0.61572353  1
  O  O305  1  0.75670164  0.75840503  0.12001597  1
  O  O306  1  0.75886091  0.76356065  0.63066536  1
  O  O307  1  0.25246893  0.23716537  0.38436213  1
  O  O308  1  0.24770118  0.24650510  0.87926021  1
  O  O309  1  0.24364549  0.74068619  0.38546311  1
  O  O310  1  0.25242166  0.74018942  0.88391131  1
  O  O311  1  0.74316493  0.23551693  0.38904521  1
  O  O312  1  0.73786829  0.26036278  0.88291737  1
  O  O313  1  0.73186899  0.76543138  0.37850748  1
  O  O314  1  0.74512077  0.74542075  0.87683928  1
  O  O315  1  0.00051757  0.11426307  -0.00044424  1
  O  O316  1  0.00946976  0.12031714  0.49886997  1
  O  O317  1  0.00346431  0.61056803  -0.01047170  1
  O  O318  1  0.01260944  0.61571709  0.50875053  1
  O  O319  1  0.50470592  0.12100741  0.00681759  1
  O  O320  1  0.49881327  0.11526417  0.50863677  1
  O  O321  1  0.50018210  0.61408917  0.00196472  1
  O  O322  1  0.50700781  0.62213141  0.51117501  1
  O  O323  1  0.48337759  0.37412336  0.50642414  1
  O  O324  1  0.49193447  0.38447839  0.99097956  1
  O  O325  1  0.48920780  0.87889072  0.49297678  1
  O  O326  1  0.49415356  0.87878608  0.99224266  1
  O  O327  1  0.98779497  0.37560319  0.50436337  1
  O  O328  1  1.00480440  0.37938448  0.98413161  1
  O  O329  1  0.99347583  0.88194197  0.49388161  1
  O  O330  1  0.99587384  0.88192369  0.99343344  1
  O  O331  1  0.48288851  0.49770456  0.37832882  1
  O  O332  1  0.49517915  0.49594562  0.87956781  1
  O  O333  1  0.49589609  0.99037558  0.38102622  1
  O  O334  1  0.49381270  0.99257566  0.87263132  1
  O  O335  1  1.00590820  0.49983673  0.39360642  1
  O  O336  1  1.00180512  0.48620565  0.87535490  1
  O  O337  1  0.99426333  0.99525166  0.37972871  1
  O  O338  1  0.99712531  0.99120210  0.88412234  1
  O  O339  1  -0.00065634  0.00004495  0.11423373  1
  O  O340  1  0.00971770  0.00260370  0.61945571  1
  O  O341  1  -0.00166770  0.49082957  0.10646982  1
  O  O342  1  0.01240523  0.49467894  0.61633027  1
  O  O343  1  0.51564689  -0.00347109  0.12740023  1
  O  O344  1  0.50482244  0.00385239  0.62175625  1
  O  O345  1  0.51328580  0.50148379  0.11633799  1
  O  O346  1  0.50961069  0.50935629  0.62884811  1
  O  O347  1  0.23498980  0.36509383  0.24036174  1
  O  O348  1  0.24110086  0.36389826  0.74095116  1
  O  O349  1  0.24583959  0.88065399  0.24796182  1
  O  O350  1  0.23774390  0.88667400  0.75821491  1
  O  O351  1  0.73813437  0.37914904  0.23352307  1
  O  O352  1  0.74524966  0.38795265  0.75489662  1
  O  O353  1  0.76099835  0.88666688  0.24129727  1
  O  O354  1  0.74458321  0.88254646  0.74055852  1
  O  O355  1  0.25586562  0.12295632  0.25811850  1
  O  O356  1  0.25001502  0.11498601  0.75575742  1
  O  O357  1  0.25850047  0.63208537  0.26579941  1
  O  O358  1  0.24847276  0.63187487  0.76488848  1
  O  O359  1  0.76094672  0.11865686  0.25852913  1
  O  O360  1  0.75670581  0.11390384  0.74299175  1
  O  O361  1  0.75327887  0.62617053  0.25460610  1
  O  O362  1  0.74284901  0.61680463  0.75846773  1
  O  O363  1  0.36724834  0.12067956  0.36864072  1
  O  O364  1  0.36904331  0.11866194  0.87275602  1
  O  O365  1  0.37037285  0.61510762  0.37197027  1
  O  O366  1  0.36423767  0.61795640  0.87876479  1
  O  O367  1  0.86845228  0.12051094  0.36827920  1
  O  O368  1  0.87676542  0.12609439  0.86064789  1
  O  O369  1  0.87076826  0.62833696  0.39026285  1
  O  O370  1  0.86114126  0.62729769  0.87342734  1
  O  O371  1  0.13456061  0.37843295  0.13120429  1
  O  O372  1  0.13347377  0.37676533  0.63088222  1
  O  O373  1  0.13371025  0.87715202  0.13284028  1
  O  O374  1  0.11817822  0.88613734  0.63375881  1
  O  O375  1  0.63215255  0.38656502  0.12510742  1
  O  O376  1  0.61705761  0.38931144  0.61869033  1
  O  O377  1  0.64039769  0.88240369  0.12200233  1
  O  O378  1  0.63100281  0.87836505  0.62847478  1
  O  O379  1  0.11178816  0.25617467  0.24584032  1
  O  O380  1  0.11756240  0.25538143  0.75392027  1
  O  O381  1  0.11884133  0.75622157  0.25573507  1
  O  O382  1  0.12387399  0.76429465  0.75063765  1
  O  O383  1  0.63234025  0.24720793  0.26822358  1
  O  O384  1  0.61282849  0.24724361  0.75903246  1
  O  O385  1  0.62374664  0.74135687  0.26632564  1
  O  O386  1  0.61606498  0.75570671  0.75472122  1
  O  O387  1  0.36837304  0.24221146  0.24139873  1
  O  O388  1  0.39142122  0.24818140  0.75569183  1
  O  O389  1  0.36873822  0.74403918  0.23977750  1
  O  O390  1  0.38597712  0.75883445  0.74848699  1
  O  O391  1  0.88966732  0.24122882  0.23936839  1
  O  O392  1  0.87870163  0.24420742  0.74649852  1
  O  O393  1  0.88426172  0.74942335  0.24232908  1
  O  O394  1  0.87658752  0.75627249  0.73504929  1
  O  O395  1  0.37545684  0.49158508  0.48936685  1
  O  O396  1  0.38476179  0.49310764  0.99611432  1
  O  O397  1  0.37738690  0.99053437  0.49359803  1
  O  O398  1  0.37544017  0.99345550  0.99394170  1
  O  O399  1  0.88141466  0.47983722  0.50581319  1
  O  O400  1  0.89048837  0.50087105  0.98832703  1
  O  O401  1  0.88108588  0.99392404  0.49661681  1
  O  O402  1  0.88091811  0.99516477  0.99887072  1
  O  O403  1  0.11428621  0.00034871  0.00161912  1
  O  O404  1  0.12320435  0.00587748  0.50720167  1
  O  O405  1  0.10993659  0.49895422  0.00050954  1
  O  O406  1  0.11961724  0.50201873  0.50694194  1
  O  O407  1  0.62761734  0.00256169  0.01219086  1
  O  O408  1  0.61782182  -0.00134506  0.50670518  1
  O  O409  1  0.61520457  0.49839058  0.00324932  1
  O  O410  1  0.62152366  0.50983616  0.51511842  1
  O  O411  1  0.37000662  0.37262282  0.11710562  1
  O  O412  1  0.36250457  0.38409438  0.61546176  1
  O  O413  1  0.37088286  0.86916643  0.12158556  1
  O  O414  1  0.37759147  0.87176781  0.61075287  1
  O  O415  1  0.86128732  0.36779949  0.13175062  1
  O  O416  1  0.87714763  0.35800065  0.62627286  1
  O  O417  1  0.86466092  0.86910440  0.11954302  1
  O  O418  1  0.86735527  0.87489658  0.61806394  1
  O  O419  1  0.13600797  0.11641023  0.38705840  1
  O  O420  1  0.13255454  0.13279618  0.87717062  1
  O  O421  1  0.13079934  0.62764394  0.38391789  1
  O  O422  1  0.14257380  0.62546357  0.88288122  1
  O  O423  1  0.63569096  0.12766821  0.37851191  1
  O  O424  1  0.62085761  0.13819712  0.87553121  1
  O  O425  1  0.62249368  0.63919276  0.39241663  1
  O  O426  1  0.63313334  0.63270519  0.87659810  1
