# generated using pymatgen
data_V85Zn86O256
_symmetry_space_group_name_H-M   'P 1'
_cell_length_a   16.99974662
_cell_length_b   16.97628326
_cell_length_c   16.98042982
_cell_angle_alpha   89.75762969
_cell_angle_beta   90.01302292
_cell_angle_gamma   89.85534052
_symmetry_Int_Tables_number   1
_chemical_formula_structural   V85Zn86O256
_chemical_formula_sum   'V85 Zn86 O256'
_cell_volume   4900.36532414
_cell_formula_units_Z   1
loop_
 _symmetry_equiv_pos_site_id
 _symmetry_equiv_pos_as_xyz
  1  'x, y, z'
loop_
 _atom_site_type_symbol
 _atom_site_label
 _atom_site_symmetry_multiplicity
 _atom_site_fract_x
 _atom_site_fract_y
 _atom_site_fract_z
 _atom_site_occupancy
  V  V0  1  0.37997036  0.88497206  -0.00164262  1
  V  V1  1  0.12463362  -0.00397412  0.13052030  1
  V  V2  1  0.25648977  0.01273651  0.24958667  1
  V  V3  1  0.11626772  0.37373753  0.25358055  1
  V  V4  1  0.49669871  0.12341690  0.12732694  1
  V  V5  1  0.24973922  0.24955211  -0.00047705  1
  V  V6  1  0.50158270  0.74937159  0.75027499  1
  V  V7  1  0.37673753  0.12022002  0.75617423  1
  V  V8  1  0.74753334  0.12578460  0.37629793  1
  V  V9  1  0.37926237  0.87407338  0.49073626  1
  V  V10  1  0.62269735  0.12500894  0.00222987  1
  V  V11  1  0.62651884  0.86905895  0.75178287  1
  V  V12  1  0.62365392  0.38280865  0.24276310  1
  V  V13  1  0.00456379  0.50535952  -0.00258739  1
  V  V14  1  0.87304229  0.25733312  0.61741934  1
  V  V15  1  0.00030035  0.64012749  0.62982383  1
  V  V16  1  0.12375272  0.23082543  0.37358268  1
  V  V17  1  -0.00190467  0.86912804  0.87055512  1
  V  V18  1  0.37674819  0.37338442  -0.00150913  1
  V  V19  1  0.25623815  0.59279874  0.34603299  1
  V  V20  1  0.87696416  0.50013109  0.87272951  1
  V  V21  1  0.87236600  0.87399143  0.00112573  1
  V  V22  1  0.88120540  -0.00172795  0.38089046  1
  V  V23  1  0.24770060  0.23618504  0.49567465  1
  V  V24  1  0.87819210  0.62128158  0.25896443  1
  V  V25  1  0.87676513  0.74828523  0.12755509  1
  V  V26  1  0.49223268  0.38432206  0.37316449  1
  V  V27  1  0.63003171  0.24912327  0.87530750  1
  V  V28  1  0.00082286  0.37437788  0.87242572  1
  V  V29  1  0.12577238  0.37381186  0.74726853  1
  V  V30  1  0.75564513  0.50042027  0.25210600  1
  V  V31  1  0.75311556  0.37122610  0.12602952  1
  V  V32  1  0.12299450  0.74610590  0.88180502  1
  V  V33  1  0.49194123  0.74345013  0.25681374  1
  V  V34  1  0.37140516  0.38440227  0.49521020  1
  V  V35  1  0.62152720  0.25126414  0.37582073  1
  V  V36  1  -0.00011966  0.24439917  0.74535346  1
  V  V37  1  0.25007555  0.37552294  0.62110543  1
  V  V38  1  0.00489453  0.62797386  0.12131853  1
  V  V39  1  0.12336116  0.50364907  0.62174690  1
  V  V40  1  0.63170456  0.37445651  0.74193291  1
  V  V41  1  0.87576025  0.36952088  0.00271955  1
  V  V42  1  0.75323335  0.49700397  0.74073791  1
  V  V43  1  0.24492934  0.74972691  0.48691498  1
  V  V44  1  0.87825313  0.64263705  0.74807338  1
  V  V45  1  0.25402421  -0.00129609  0.75737994  1
  V  V46  1  0.25024215  0.87237454  0.12588202  1
  V  V47  1  0.51562811  0.50832549  -0.00135063  1
  V  V48  1  0.25034783  0.87635715  0.62809444  1
  V  V49  1  0.75267780  0.75093792  0.49614334  1
  V  V50  1  0.74941945  0.87533308  0.12639483  1
  V  V51  1  0.50215540  0.37325204  0.87223710  1
  V  V52  1  0.62269496  -0.00069005  0.12544795  1
  V  V53  1  0.12586864  0.24877203  0.87304770  1
  V  V54  1  0.37290385  0.24677570  0.12686324  1
  V  V55  1  0.87281750  -0.00023585  0.87477213  1
  V  V56  1  0.24519169  0.62360888  0.88128255  1
  V  V57  1  0.49916263  0.12357247  0.62604203  1
  V  V58  1  0.74229277  0.74444851  0.00453567  1
  V  V59  1  0.25071546  0.49966548  0.74956081  1
  V  V60  1  0.49238772  0.24838193  0.24980670  1
  V  V61  1  0.00192473  0.12471397  0.59801736  1
  V  V62  1  0.37446894  0.74986741  0.62558969  1
  V  V63  1  0.37489232  0.01796182  0.36943239  1
  V  V64  1  -0.00266203  0.49926141  0.49170982  1
  V  V65  1  0.74546152  0.62600188  0.87857314  1
  V  V66  1  0.62704325  -0.00150381  0.62346571  1
  V  V67  1  0.75088679  0.12339581  0.87450816  1
  V  V68  1  0.25279660  0.12249362  0.87620702  1
  V  V69  1  0.75716335  0.86878610  0.62271993  1
  V  V70  1  0.00456591  0.76024546  0.26353651  1
  V  V71  1  0.12179289  0.87156860  0.75159981  1
  V  V72  1  0.12240716  0.00682838  0.61718298  1
  V  V73  1  0.12645022  0.50087591  0.12746583  1
  V  V74  1  0.88673664  0.87506050  0.49960275  1
  V  V75  1  0.50112515  -0.00497255  0.49449269  1
  V  V76  1  0.74723733  0.25807398  0.50407066  1
  V  V77  1  -0.00047067  -0.00108357  0.00060766  1
  V  V78  1  0.75157399  -0.00061652  0.74810050  1
  V  V79  1  0.62361800  0.62538698  0.49953816  1
  V  V80  1  0.12435322  0.12388658  -0.00045475  1
  V  V81  1  -0.00317524  0.13425174  0.13511257  1
  V  V82  1  0.24842848  0.37712552  0.13149100  1
  V  V83  1  0.75000324  -0.00128046  0.25262685  1
  V  V84  1  0.37539731  0.49988731  0.87216506  1
  Zn  Zn85  1  0.37308922  0.24946632  0.62451301  1
  Zn  Zn86  1  0.37527789  0.62528414  0.75016083  1
  Zn  Zn87  1  0.48812074  0.88379618  0.87653045  1
  Zn  Zn88  1  0.49726100  0.50405931  0.49985965  1
  Zn  Zn89  1  0.51950319  0.61648764  0.13252799  1
  Zn  Zn90  1  0.37670514  0.74391511  0.12642781  1
  Zn  Zn91  1  0.62586529  0.49524397  0.61907173  1
  Zn  Zn92  1  0.50026637  0.24847847  0.74839722  1
  Zn  Zn93  1  0.24953946  0.74559610  0.00424336  1
  Zn  Zn94  1  0.87036710  0.14421251  0.23684935  1
  Zn  Zn95  1  0.75836709  0.24599474  0.01050234  1
  Zn  Zn96  1  0.87440211  0.12344543  0.74345816  1
  Zn  Zn97  1  0.12303563  0.63406823  0.48515207  1
  Zn  Zn98  1  0.50045538  0.62097342  0.62452249  1
  Zn  Zn99  1  0.61715179  0.75792525  0.37762963  1
  Zn  Zn100  1  0.86281703  0.38898461  0.49206227  1
  Zn  Zn101  1  0.61251886  0.74206977  0.89175529  1
  Zn  Zn102  1  -0.00828337  0.37003609  0.36636140  1
  Zn  Zn103  1  0.13937766  0.86133076  0.28240047  1
  Zn  Zn104  1  0.75389877  0.62100236  0.37758387  1
  Zn  Zn105  1  0.62184655  0.12573852  0.50198954  1
  Zn  Zn106  1  0.61291409  0.87606629  0.26222207  1
  Zn  Zn107  1  0.18045761  0.18857167  0.18802151  1
  Zn  Zn108  1  0.18742241  0.18513619  0.68269797  1
  Zn  Zn109  1  0.18546598  0.68830248  0.19157207  1
  Zn  Zn110  1  0.18833003  0.68817933  0.69061813  1
  Zn  Zn111  1  0.68457057  0.19079133  0.19108289  1
  Zn  Zn112  1  0.68804636  0.18710231  0.68732391  1
  Zn  Zn113  1  0.68352726  0.68841007  0.19642813  1
  Zn  Zn114  1  0.69093755  0.68358593  0.68435020  1
  Zn  Zn115  1  0.30733984  0.31197256  0.31527846  1
  Zn  Zn116  1  0.31450094  0.30927239  0.80921757  1
  Zn  Zn117  1  0.32088607  0.81663025  0.30759132  1
  Zn  Zn118  1  0.31122036  0.81044848  0.81687801  1
  Zn  Zn119  1  0.81709137  0.31808103  0.31455663  1
  Zn  Zn120  1  0.81538966  0.31083761  0.80925435  1
  Zn  Zn121  1  0.81437260  0.81374902  0.31476605  1
  Zn  Zn122  1  0.80546914  0.81488122  0.81857274  1
  Zn  Zn123  1  0.18652281  0.43864403  0.43466469  1
  Zn  Zn124  1  0.18751514  0.43599577  0.93850477  1
  Zn  Zn125  1  0.19979592  0.93799585  0.43967301  1
  Zn  Zn126  1  0.18777309  0.93459226  0.94144168  1
  Zn  Zn127  1  0.68270196  0.43949853  0.43113565  1
  Zn  Zn128  1  0.69437209  0.43169576  0.93015532  1
  Zn  Zn129  1  0.68653895  0.93406741  0.43768960  1
  Zn  Zn130  1  0.65768668  0.94847634  0.92332794  1
  Zn  Zn131  1  0.31322000  0.06026487  0.06294037  1
  Zn  Zn132  1  0.31518292  0.05733317  0.56705379  1
  Zn  Zn133  1  0.31529964  0.55444190  0.05713524  1
  Zn  Zn134  1  0.31080030  0.56711586  0.56044954  1
  Zn  Zn135  1  0.81231271  0.06292805  0.06176947  1
  Zn  Zn136  1  0.81441341  0.06669360  0.55958216  1
  Zn  Zn137  1  0.69485107  0.55666017  0.06316920  1
  Zn  Zn138  1  0.81795330  0.57040210  0.56444718  1
  Zn  Zn139  1  0.44000421  0.43976542  0.17975078  1
  Zn  Zn140  1  0.43825963  0.43785260  0.68270678  1
  Zn  Zn141  1  0.43711477  0.93331719  0.18778358  1
  Zn  Zn142  1  0.43868640  0.93562925  0.68519489  1
  Zn  Zn143  1  0.93670749  0.43879482  0.18408912  1
  Zn  Zn144  1  0.93905247  0.43837216  0.68178798  1
  Zn  Zn145  1  0.93585151  0.94207312  0.19166818  1
  Zn  Zn146  1  0.93985253  0.94185322  0.68323680  1
  Zn  Zn147  1  0.08554467  0.02665562  0.34299998  1
  Zn  Zn148  1  0.06390534  0.05886941  0.81063296  1
  Zn  Zn149  1  0.07231653  0.57183626  0.30937983  1
  Zn  Zn150  1  0.06332793  0.56480612  0.80767905  1
  Zn  Zn151  1  0.56149414  0.06199809  0.31139755  1
  Zn  Zn152  1  0.55999621  0.05611877  0.81338531  1
  Zn  Zn153  1  0.56715989  0.56679764  0.31554797  1
  Zn  Zn154  1  0.56476443  0.56130322  0.80881829  1
  Zn  Zn155  1  0.43507410  0.19210058  0.44157627  1
  Zn  Zn156  1  0.43920982  0.18574943  0.93899821  1
  Zn  Zn157  1  0.43060678  0.67946823  0.43050762  1
  Zn  Zn158  1  0.43011125  0.69235448  0.93847389  1
  Zn  Zn159  1  0.92535312  0.20178774  0.41088431  1
  Zn  Zn160  1  0.94000438  0.18449238  0.93671860  1
  Zn  Zn161  1  0.93936192  0.68908416  0.44277603  1
  Zn  Zn162  1  0.93225432  0.68724209  0.93769116  1
  Zn  Zn163  1  0.06158418  0.31407197  0.06152147  1
  Zn  Zn164  1  0.06432711  0.31136397  0.55617039  1
  Zn  Zn165  1  0.06311428  0.81384322  0.06224781  1
  Zn  Zn166  1  0.06841560  0.81998457  0.56106568  1
  Zn  Zn167  1  0.56384666  0.31202046  0.06155663  1
  Zn  Zn168  1  0.55660865  0.31287647  0.56037525  1
  Zn  Zn169  1  0.55561293  0.80877221  0.07937588  1
  Zn  Zn170  1  0.56510678  0.81061188  0.56392304  1
  O  O171  1  0.11695025  0.11587312  0.11843029  1
  O  O172  1  0.11308850  0.11843912  0.62978302  1
  O  O173  1  0.11252744  0.61738218  0.12851414  1
  O  O174  1  0.11489800  0.61759150  0.63187372  1
  O  O175  1  0.61909844  0.12247128  0.12054608  1
  O  O176  1  0.61464093  0.11774969  0.62723568  1
  O  O177  1  0.63192590  0.62284559  0.12422834  1
  O  O178  1  0.62509523  0.62261281  0.61198076  1
  O  O179  1  0.38305363  0.36865453  0.38172921  1
  O  O180  1  0.38433800  0.37651619  0.87696517  1
  O  O181  1  0.37549103  0.88258914  0.38858674  1
  O  O182  1  0.37207350  0.87129771  0.89177779  1
  O  O183  1  0.88133979  0.38177975  0.38084205  1
  O  O184  1  0.88150827  0.38187626  0.87699807  1
  O  O185  1  0.86954816  0.88768392  0.38683267  1
  O  O186  1  0.88097456  0.87925924  0.87961161  1
  O  O187  1  0.26828908  0.00208063  0.36700812  1
  O  O188  1  0.24160041  0.00566802  0.86445506  1
  O  O189  1  0.25585172  0.49245706  0.36182597  1
  O  O190  1  0.25306055  0.50346472  0.86996457  1
  O  O191  1  0.74675029  0.00834283  0.36794276  1
  O  O192  1  0.75178987  0.00363543  0.86902801  1
  O  O193  1  0.74779582  0.49994955  0.35750162  1
  O  O194  1  0.76014011  0.50755968  0.86708548  1
  O  O195  1  0.23596638  0.48698300  0.11041617  1
  O  O196  1  0.24135186  0.49753233  0.62868735  1
  O  O197  1  0.24450036  0.99300350  0.13033419  1
  O  O198  1  0.24488089  0.99661213  0.63882090  1
  O  O199  1  0.74527910  0.48182591  0.13798444  1
  O  O200  1  0.75433365  0.50425270  0.63815277  1
  O  O201  1  0.74515501  0.99819697  0.13577995  1
  O  O202  1  0.74653374  0.99306093  0.62756473  1
  O  O203  1  0.01122545  0.37592707  0.24588745  1
  O  O204  1  0.00529038  0.36429000  0.75108936  1
  O  O205  1  -0.00573546  0.86114040  0.24901457  1
  O  O206  1  0.00864751  0.88324855  0.76044206  1
  O  O207  1  0.50373075  0.37057672  0.25270696  1
  O  O208  1  0.50885730  0.37383826  0.75994210  1
  O  O209  1  0.50275427  0.85285794  0.23133653  1
  O  O210  1  0.51066928  0.86828656  0.74865310  1
  O  O211  1  0.50759986  0.13885061  0.24000061  1
  O  O212  1  0.49356686  0.11987640  0.74482819  1
  O  O213  1  0.50756010  0.63655268  0.25100342  1
  O  O214  1  0.49815633  0.63666191  0.74868250  1
  O  O215  1  1.00201029  0.11842033  0.23275410  1
  O  O216  1  0.99868216  0.13872253  0.75161270  1
  O  O217  1  0.99699674  0.63525418  0.24241126  1
  O  O218  1  0.99279997  0.62336846  0.73853305  1
  O  O219  1  0.37009526  0.25435672  0.00541532  1
  O  O220  1  0.36203545  0.26021740  0.50091258  1
  O  O221  1  0.36603388  0.75424752  0.00964473  1
  O  O222  1  0.36758124  0.75739467  0.50780273  1
  O  O223  1  0.87539894  0.26509664  -0.01181333  1
  O  O224  1  0.86176289  0.25012892  0.50299403  1
  O  O225  1  0.86807487  0.75309367  0.01118572  1
  O  O226  1  0.86778412  0.76595677  0.49449413  1
  O  O227  1  0.14036477  0.25218701  0.49033342  1
  O  O228  1  0.13022164  0.24545810  0.99219844  1
  O  O229  1  0.14149337  0.75662038  0.50199081  1
  O  O230  1  0.12906625  0.75534513  0.98626316  1
  O  O231  1  0.62628647  0.24988117  0.49076941  1
  O  O232  1  0.63016663  0.24383133  0.99116241  1
  O  O233  1  0.63393084  0.74332872  0.50034935  1
  O  O234  1  0.63927000  0.75850240  1.00581358  1
  O  O235  1  0.49462645  0.24541732  0.13181791  1
  O  O236  1  0.49829616  0.23526367  0.62592919  1
  O  O237  1  0.49336498  0.73096781  0.13172100  1
  O  O238  1  0.48913953  0.75095428  0.63169990  1
  O  O239  1  1.00879430  0.23367975  0.12184389  1
  O  O240  1  0.99636010  0.24296013  0.62694870  1
  O  O241  1  0.99423855  0.74557151  0.12711095  1
  O  O242  1  1.01043851  0.73782278  0.62208813  1
  O  O243  1  0.02517073  0.25662480  0.39053063  1
  O  O244  1  0.00567335  0.25437381  0.86498761  1
  O  O245  1  -0.00058839  0.74629313  0.36216319  1
  O  O246  1  0.00491619  0.76138315  0.88106312  1
  O  O247  1  0.50422189  0.25589323  0.36820989  1
  O  O248  1  0.51152181  0.25681339  0.87484291  1
  O  O249  1  0.49351823  0.74739626  0.36194705  1
  O  O250  1  0.49965608  0.75603892  0.86423778  1
  O  O251  1  0.25842672  0.13805006  0.50613240  1
  O  O252  1  0.24509231  0.12969239  0.99618456  1
  O  O253  1  0.24639340  0.64555598  0.50632250  1
  O  O254  1  0.25153126  0.61982113  0.98543643  1
  O  O255  1  0.74127062  0.13449410  0.49276762  1
  O  O256  1  0.74172715  0.12917987  0.99536340  1
  O  O257  1  0.74760198  0.63498874  0.50099799  1
  O  O258  1  0.75230362  0.63012178  0.98990837  1
  O  O259  1  0.25557050  0.36786504  0.00593628  1
  O  O260  1  0.25580777  0.37126702  0.50340843  1
  O  O261  1  0.25807737  0.87406860  0.00983657  1
  O  O262  1  0.26093585  0.86746000  0.50839069  1
  O  O263  1  0.75826253  0.37394373  0.00713251  1
  O  O264  1  0.74393230  0.36237382  0.49421972  1
  O  O265  1  0.75734929  0.86496033  0.00863900  1
  O  O266  1  0.75469840  0.86831607  0.50797905  1
  O  O267  1  0.11838708  0.49139989  0.23329750  1
  O  O268  1  0.12940784  0.49308091  0.74128943  1
  O  O269  1  0.13642399  1.00169837  0.23617010  1
  O  O270  1  0.13406536  0.99131036  0.74501429  1
  O  O271  1  0.63146472  0.48712175  0.25443512  1
  O  O272  1  0.63670219  0.49116948  0.74890513  1
  O  O273  1  0.63390158  1.00078762  0.24238763  1
  O  O274  1  0.63301251  0.98773423  0.74192912  1
  O  O275  1  0.37416332  -0.00311235  0.26365478  1
  O  O276  1  0.36573986  0.00636094  0.74681303  1
  O  O277  1  0.38057702  0.53730231  0.20384524  1
  O  O278  1  0.36855626  0.49874108  0.75515821  1
  O  O279  1  0.86314815  0.00192630  0.26390591  1
  O  O280  1  0.86900150  0.00025671  0.75643360  1
  O  O281  1  0.86891372  0.51108934  0.24206944  1
  O  O282  1  0.87191125  0.49981248  0.75847733  1
  O  O283  1  0.12132750  0.37824924  0.36092994  1
  O  O284  1  0.12045733  0.36884983  0.86804611  1
  O  O285  1  0.11481530  0.91929735  0.37228219  1
  O  O286  1  0.11700055  0.86934125  0.87027376  1
  O  O287  1  0.61370647  0.36600871  0.36625992  1
  O  O288  1  0.62089206  0.36644494  0.86631164  1
  O  O289  1  0.62050673  0.87327692  0.37548761  1
  O  O290  1  0.64511468  0.85408887  0.85442605  1
  O  O291  1  0.38850416  0.13069871  0.11689818  1
  O  O292  1  0.38468108  0.12240683  0.63603045  1
  O  O293  1  0.38759531  0.59100957  0.14049373  1
  O  O294  1  0.37527170  0.63865039  0.62759247  1
  O  O295  1  0.88899980  0.12054109  0.12442985  1
  O  O296  1  0.88593165  0.13388055  0.62351534  1
  O  O297  1  0.88940186  0.63911526  0.13784094  1
  O  O298  1  0.89172289  0.62634068  0.63363067  1
  O  O299  1  0.25229573  0.25649731  0.11900976  1
  O  O300  1  0.24743917  0.25634938  0.61233112  1
  O  O301  1  0.24828244  0.76074594  0.12713935  1
  O  O302  1  0.25880179  0.75809107  0.62525528  1
  O  O303  1  0.75062537  0.26287952  0.12934395  1
  O  O304  1  0.75955665  0.24259728  0.61538306  1
  O  O305  1  0.76075655  0.75373863  0.12298129  1
  O  O306  1  0.74970716  0.76079044  0.61511459  1
  O  O307  1  0.24121211  0.25053927  0.38711273  1
  O  O308  1  0.24524273  0.24374871  0.87917364  1
  O  O309  1  0.25264784  0.76289687  0.38791693  1
  O  O310  1  0.24061805  0.73938641  0.87536962  1
  O  O311  1  0.73597389  0.24376247  0.38226347  1
  O  O312  1  0.74139274  0.24446493  0.87358082  1
  O  O313  1  0.75048814  0.74932798  0.38794350  1
  O  O314  1  0.75593137  0.73921496  0.88970515  1
  O  O315  1  0.00593705  0.11681744  0.00420248  1
  O  O316  1  -0.00580884  0.13301333  0.50109996  1
  O  O317  1  -0.00864328  0.61544518  0.00811620  1
  O  O318  1  0.00560768  0.62148025  0.51310318  1
  O  O319  1  0.51389440  0.13300490  0.01172716  1
  O  O320  1  0.49816785  0.11578922  0.50955807  1
  O  O321  1  0.49885308  0.60805511  -0.01133062  1
  O  O322  1  0.50917544  0.62558517  0.49856867  1
  O  O323  1  0.48920900  0.37449635  0.48969966  1
  O  O324  1  0.49932100  0.37908016  0.98733565  1
  O  O325  1  0.49169384  0.88702695  0.51065958  1
  O  O326  1  0.48176726  0.86573440  1.00775802  1
  O  O327  1  1.00778231  0.39442321  0.49680035  1
  O  O328  1  0.99444299  0.38256029  0.99351256  1
  O  O329  1  0.98511331  0.87259005  0.50449168  1
  O  O330  1  0.99307978  0.87940786  0.99152834  1
  O  O331  1  0.50366055  0.48647063  0.37488340  1
  O  O332  1  0.49829592  0.49010178  0.87775943  1
  O  O333  1  0.48980927  1.00667762  0.38443479  1
  O  O334  1  0.54776626  0.97712348  0.88906202  1
  O  O335  1  1.01115682  0.51422877  0.39248430  1
  O  O336  1  0.99710229  0.49611231  0.87719803  1
  O  O337  1  0.97685305  1.01231793  0.37347241  1
  O  O338  1  0.99511602  0.99082502  0.88021044  1
  O  O339  1  0.00800393  0.00198375  0.11992448  1
  O  O340  1  0.00931016  0.01310308  0.62720278  1
  O  O341  1  0.00595192  0.50803947  0.11558157  1
  O  O342  1  0.01013331  0.50705355  0.61791274  1
  O  O343  1  0.51180813  0.01185726  0.13694837  1
  O  O344  1  0.50453627  0.00647839  0.61724939  1
  O  O345  1  0.50801658  0.49427722  0.10050670  1
  O  O346  1  0.50562135  0.50326472  0.61977691  1
  O  O347  1  0.24223963  0.37018641  0.23549222  1
  O  O348  1  0.24534813  0.37860354  0.74285436  1
  O  O349  1  0.25004111  0.88493357  0.24193670  1
  O  O350  1  0.24378327  0.88245580  0.74932144  1
  O  O351  1  0.74422281  0.37860356  0.24601458  1
  O  O352  1  0.74229277  0.38436624  0.75759929  1
  O  O353  1  0.75177186  0.88532331  0.24403556  1
  O  O354  1  0.74796427  0.87747722  0.73890462  1
  O  O355  1  0.25250876  0.11178488  0.23721121  1
  O  O356  1  0.25741702  0.11808210  0.75453326  1
  O  O357  1  0.24973478  0.61558954  0.24734151  1
  O  O358  1  0.25131461  0.61694234  0.75957222  1
  O  O359  1  0.74956838  0.11843584  0.25881511  1
  O  O360  1  0.75156240  0.11735413  0.75590370  1
  O  O361  1  0.76203128  0.61738623  0.25041389  1
  O  O362  1  0.76108366  0.61779613  0.75516719  1
  O  O363  1  0.37786724  0.11672408  0.37528719  1
  O  O364  1  0.37088197  0.12810743  0.86563598  1
  O  O365  1  0.34557697  0.62565543  0.38213404  1
  O  O366  1  0.36396521  0.61831725  0.87117337  1
  O  O367  1  0.85509737  0.10644914  0.39071112  1
  O  O368  1  0.86842025  0.11725433  0.87400920  1
  O  O369  1  0.87623220  0.63098926  0.36262724  1
  O  O370  1  0.87090569  0.61696596  0.86619281  1
  O  O371  1  0.13015574  0.37900443  0.13093942  1
  O  O372  1  0.12942350  0.38401232  0.62771457  1
  O  O373  1  0.13426516  0.88519001  0.12029110  1
  O  O374  1  0.12912077  0.88403238  0.63560773  1
  O  O375  1  0.63196033  0.36683969  0.13632785  1
  O  O376  1  0.61948207  0.37111299  0.63897813  1
  O  O377  1  0.63206041  0.88807933  0.12416773  1
  O  O378  1  0.63597971  0.87876697  0.63137472  1
  O  O379  1  0.13347402  0.25757311  0.26672739  1
  O  O380  1  0.11855744  0.25407033  0.75238614  1
  O  O381  1  0.10985958  0.75599672  0.24669166  1
  O  O382  1  0.13038187  0.76580598  0.75946246  1
  O  O383  1  0.61437166  0.25944156  0.25894020  1
  O  O384  1  0.62479177  0.25580841  0.75906400  1
  O  O385  1  0.61507822  0.75447793  0.25645995  1
  O  O386  1  0.61445036  0.75535729  0.73843029  1
  O  O387  1  0.38586393  0.25751502  0.24480954  1
  O  O388  1  0.37826546  0.23621727  0.74562237  1
  O  O389  1  0.38536885  0.74870300  0.24468936  1
  O  O390  1  0.38384739  0.75507411  0.74184171  1
  O  O391  1  0.88476304  0.23040294  0.30288496  1
  O  O392  1  0.88407656  0.25007406  0.73770207  1
  O  O393  1  0.88389315  0.74566248  0.24450440  1
  O  O394  1  0.86990633  0.74093152  0.75591563  1
  O  O395  1  0.37327212  0.48801510  0.50371086  1
  O  O396  1  0.38759729  0.49006986  0.98949453  1
  O  O397  1  0.38024424  0.99502616  0.49061664  1
  O  O398  1  0.37438479  0.98559417  1.00346689  1
  O  O399  1  0.89318637  0.50428716  0.50787847  1
  O  O400  1  0.88740031  0.48856642  0.98215932  1
  O  O401  1  0.86647077  0.98705552  0.49088706  1
  O  O402  1  0.87818235  0.99287688  0.99420851  1
  O  O403  1  0.12068870  0.00443305  0.00867666  1
  O  O404  1  0.14095047  -0.00085249  0.52014430  1
  O  O405  1  0.11094868  0.49193410  0.00714763  1
  O  O406  1  0.12115661  0.50670123  0.51080812  1
  O  O407  1  0.63720170  0.01440110  0.01733041  1
  O  O408  1  0.61558383  0.00162521  0.50539317  1
  O  O409  1  0.61998908  0.49854326  -0.01216411  1
  O  O410  1  0.62583818  0.51009839  0.50013662  1
  O  O411  1  0.36668690  0.36875928  0.11905530  1
  O  O412  1  0.36857735  0.37126590  0.61552798  1
  O  O413  1  0.36219016  0.87609973  0.11783097  1
  O  O414  1  0.36997347  0.86938528  0.61724953  1
  O  O415  1  0.86885848  0.38008699  0.11187861  1
  O  O416  1  0.88321286  0.36141979  0.61418388  1
  O  O417  1  0.87117575  0.86728498  0.12226354  1
  O  O418  1  0.86748160  0.88375455  0.61173808  1
  O  O419  1  0.12260328  0.13230451  0.36923016  1
  O  O420  1  0.13103174  0.12943461  0.87920902  1
  O  O421  1  0.15367197  0.61898114  0.37484057  1
  O  O422  1  0.13076297  0.63550549  0.86644748  1
  O  O423  1  0.62930406  0.13529542  0.37446499  1
  O  O424  1  0.62938912  0.13205703  0.88259136  1
  O  O425  1  0.63211554  0.63004732  0.38905749  1
  O  O426  1  0.64114572  0.63043106  0.86385894  1
