# generated using pymatgen
data_V85Zn86O256
_symmetry_space_group_name_H-M   'P 1'
_cell_length_a   16.96194331
_cell_length_b   16.96101432
_cell_length_c   16.95148972
_cell_angle_alpha   89.99699999
_cell_angle_beta   90.05590066
_cell_angle_gamma   89.97364751
_symmetry_Int_Tables_number   1
_chemical_formula_structural   V85Zn86O256
_chemical_formula_sum   'V85 Zn86 O256'
_cell_volume   4876.80112651
_cell_formula_units_Z   1
loop_
 _symmetry_equiv_pos_site_id
 _symmetry_equiv_pos_as_xyz
  1  'x, y, z'
loop_
 _atom_site_type_symbol
 _atom_site_label
 _atom_site_symmetry_multiplicity
 _atom_site_fract_x
 _atom_site_fract_y
 _atom_site_fract_z
 _atom_site_occupancy
  V  V0  1  0.37577026  0.74255555  0.62635737  1
  V  V1  1  0.12389973  0.62651003  0.00188921  1
  V  V2  1  0.62021784  0.37441224  0.25349940  1
  V  V3  1  -0.00848523  0.87847857  0.87627968  1
  V  V4  1  -0.00991513  0.49409219  -0.00493609  1
  V  V5  1  0.37283818  0.62226504  0.75956155  1
  V  V6  1  0.25040546  -0.00161670  0.75050395  1
  V  V7  1  0.62073990  0.75150406  0.37006211  1
  V  V8  1  0.00005153  0.00606127  0.50651775  1
  V  V9  1  0.75010134  0.49826023  0.24892227  1
  V  V10  1  0.13264326  0.25392814  0.37436497  1
  V  V11  1  0.12971897  0.74559447  0.37348877  1
  V  V12  1  0.12520238  0.49986556  0.62591985  1
  V  V13  1  0.88115366  0.24332146  0.62394460  1
  V  V14  1  0.00162017  0.00280825  0.00060531  1
  V  V15  1  0.25013292  0.73754256  0.49782203  1
  V  V16  1  0.74919423  0.24685242  0.49862412  1
  V  V17  1  0.37323436  0.38124468  -0.00961349  1
  V  V18  1  0.49526033  0.50159816  -0.00513874  1
  V  V19  1  0.62614814  0.62505627  0.50279418  1
  V  V20  1  0.62440051  0.87198032  0.75036306  1
  V  V21  1  0.24904555  0.75211241  0.00273570  1
  V  V22  1  0.12112117  0.62491931  0.50394453  1
  V  V23  1  0.50320528  0.49397563  0.48713840  1
  V  V24  1  0.12341976  0.24839045  0.87584753  1
  V  V25  1  0.74097187  0.36899862  0.63811193  1
  V  V26  1  0.75299705  0.61760279  0.86654811  1
  V  V27  1  0.87488800  0.49973162  0.37674527  1
  V  V28  1  0.87562636  0.00045240  0.37530034  1
  V  V29  1  0.37439359  0.00006684  0.87527030  1
  V  V30  1  0.75144580  0.62370984  0.37696827  1
  V  V31  1  0.12751722  0.37142126  0.74793969  1
  V  V32  1  0.62285903  -0.00085312  0.62386824  1
  V  V33  1  0.75296540  0.87684437  0.12427687  1
  V  V34  1  0.36869672  0.00182017  0.37096712  1
  V  V35  1  -0.01089277  0.73798985  0.73761521  1
  V  V36  1  0.49620616  0.25271447  0.25412996  1
  V  V37  1  0.88177354  0.12143055  0.74590672  1
  V  V38  1  0.62474994  0.00597901  0.12375417  1
  V  V39  1  0.12435518  0.87274367  0.75041074  1
  V  V40  1  0.87204012  0.37306153  0.50235739  1
  V  V41  1  0.61861244  0.50039072  0.12386995  1
  V  V42  1  0.75653022  0.86576920  0.62525706  1
  V  V43  1  0.00254504  0.37529788  0.37222704  1
  V  V44  1  0.87486351  0.62672576  0.25046427  1
  V  V45  1  0.37587981  0.50104965  0.37107161  1
  V  V46  1  0.12382529  0.49897157  0.12997328  1
  V  V47  1  0.74986545  0.12453461  0.37265617  1
  V  V48  1  0.50092744  -0.00471070  0.49909389  1
  V  V49  1  -0.00172112  0.25457382  0.24719988  1
  V  V50  1  0.25020276  0.88242975  0.13151530  1
  V  V51  1  0.37542183  0.87172695  0.49993842  1
  V  V52  1  0.24751030  0.87491123  0.62478925  1
  V  V53  1  0.76189487  0.25712316  0.00012080  1
  V  V54  1  0.24786091  0.12485106  0.87708831  1
  V  V55  1  0.50491836  0.36865226  0.86492871  1
  V  V56  1  0.24649319  0.37908038  0.13055030  1
  V  V57  1  0.87567070  0.13152681  0.24257817  1
  V  V58  1  0.87739414  0.86845850  0.50200968  1
  V  V59  1  -0.00236499  0.62640765  0.12522471  1
  V  V60  1  0.00055954  0.75150799  0.24998580  1
  V  V61  1  0.62129973  0.25036366  0.37558664  1
  V  V62  1  0.12352095  0.74909432  0.87550402  1
  V  V63  1  0.62198082  0.48992557  0.64078240  1
  V  V64  1  0.24850337  0.51452862  0.25144949  1
  V  V65  1  0.62391767  0.13462874  -0.00335204  1
  V  V66  1  0.39263960  0.63268541  0.24756916  1
  V  V67  1  0.24455603  0.24899350  0.00072059  1
  V  V68  1  0.38564164  0.13306226  0.73879460  1
  V  V69  1  -0.00101009  0.50173991  0.50843312  1
  V  V70  1  0.74964609  0.00211365  0.24819891  1
  V  V71  1  0.62055525  0.62547669  0.00400220  1
  V  V72  1  0.00902884  0.12931662  0.12197400  1
  V  V73  1  0.37497915  0.87670917  0.00152002  1
  V  V74  1  0.50054680  0.87665641  0.87447633  1
  V  V75  1  0.38949421  0.75062317  0.12831389  1
  V  V76  1  0.75757595  -0.00337554  0.75502929  1
  V  V77  1  0.76013723  0.37281968  0.12068422  1
  V  V78  1  0.62448113  0.12237725  0.49996404  1
  V  V79  1  0.75290528  0.74869607  0.00001358  1
  V  V80  1  0.24908767  0.50034137  0.75944902  1
  V  V81  1  0.12778717  0.88594088  0.25135404  1
  V  V82  1  0.37573383  0.25250736  0.12499389  1
  V  V83  1  0.12881084  0.13118713  0.50800542  1
  V  V84  1  0.75583719  0.12334257  0.87441784  1
  Zn  Zn85  1  0.25417727  0.62053921  0.88235873  1
  Zn  Zn86  1  0.24662483  0.12022182  0.37048569  1
  Zn  Zn87  1  0.00087071  0.87670702  0.37436722  1
  Zn  Zn88  1  0.00673451  0.23994999  0.74392825  1
  Zn  Zn89  1  0.13225977  0.01005762  0.12507408  1
  Zn  Zn90  1  0.86745796  0.50125501  0.86423761  1
  Zn  Zn91  1  0.49854794  0.12787559  0.12253307  1
  Zn  Zn92  1  0.25664104  0.35610496  0.60770421  1
  Zn  Zn93  1  0.62098522  0.86751650  0.24365209  1
  Zn  Zn94  1  0.75780021  0.74457105  0.50355178  1
  Zn  Zn95  1  0.36942745  0.12064776  0.24556614  1
  Zn  Zn96  1  0.62491713  0.74728505  0.87429479  1
  Zn  Zn97  1  0.49982329  0.00528338  -0.00069347  1
  Zn  Zn98  1  0.50096942  0.62135992  0.62860504  1
  Zn  Zn99  1  0.87076829  0.88518737  -0.00611460  1
  Zn  Zn100  1  0.62741040  0.25376810  0.84851306  1
  Zn  Zn101  1  -0.00914292  0.36883110  0.87514181  1
  Zn  Zn102  1  0.87601920  0.75255493  0.12550280  1
  Zn  Zn103  1  0.12017970  0.00740197  0.62840956  1
  Zn  Zn104  1  0.49472070  0.86718081  0.36556198  1
  Zn  Zn105  1  0.37629249  0.36990618  0.49832844  1
  Zn  Zn106  1  0.49849812  0.74685532  0.75075205  1
  Zn  Zn107  1  0.18927378  0.19072011  0.19618334  1
  Zn  Zn108  1  0.19929094  0.18973100  0.68777420  1
  Zn  Zn109  1  0.18938236  0.69255941  0.18488289  1
  Zn  Zn110  1  0.18483102  0.68375582  0.68805366  1
  Zn  Zn111  1  0.68826026  0.19153027  0.18435868  1
  Zn  Zn112  1  0.69056357  0.18350572  0.68473283  1
  Zn  Zn113  1  0.68755073  0.68562013  0.18650397  1
  Zn  Zn114  1  0.68713693  0.68415794  0.68536489  1
  Zn  Zn115  1  0.31289377  0.32223295  0.31278409  1
  Zn  Zn116  1  0.31390398  0.31105209  0.80589909  1
  Zn  Zn117  1  0.31224361  0.81200994  0.31270208  1
  Zn  Zn118  1  0.31181693  0.81039036  0.81384929  1
  Zn  Zn119  1  0.81106647  0.31368216  0.31230969  1
  Zn  Zn120  1  0.81614918  0.30928642  0.81473310  1
  Zn  Zn121  1  0.80850934  0.81272671  0.31453304  1
  Zn  Zn122  1  0.81286574  0.80348914  0.81187397  1
  Zn  Zn123  1  0.19317069  0.43950442  0.43552817  1
  Zn  Zn124  1  0.18047082  0.43506968  0.94036166  1
  Zn  Zn125  1  0.18522711  0.93510194  0.44070608  1
  Zn  Zn126  1  0.18293227  0.93789524  0.94102079  1
  Zn  Zn127  1  0.68742368  0.43391187  0.44003201  1
  Zn  Zn128  1  0.68268799  0.43648365  0.93409473  1
  Zn  Zn129  1  0.69250008  0.93422618  0.43742486  1
  Zn  Zn130  1  0.68657807  0.94033670  0.93857796  1
  Zn  Zn131  1  0.31196139  0.06414078  0.06069478  1
  Zn  Zn132  1  0.31012011  0.06575891  0.55913642  1
  Zn  Zn133  1  0.31459438  0.56767648  0.06664883  1
  Zn  Zn134  1  0.32648321  0.53223811  0.57734194  1
  Zn  Zn135  1  0.81705032  0.06632930  0.06016545  1
  Zn  Zn136  1  0.81092680  0.05639633  0.56445844  1
  Zn  Zn137  1  0.80969489  0.56215719  0.06231488  1
  Zn  Zn138  1  0.80678396  0.55274858  0.56986409  1
  Zn  Zn139  1  0.43476175  0.43909463  0.18533765  1
  Zn  Zn140  1  0.43284281  0.44093987  0.68615782  1
  Zn  Zn141  1  0.44294537  0.93516512  0.18820261  1
  Zn  Zn142  1  0.43561162  0.93993606  0.68715989  1
  Zn  Zn143  1  0.93864135  0.44030516  0.18784929  1
  Zn  Zn144  1  0.92772311  0.42279781  0.70222871  1
  Zn  Zn145  1  0.94100011  0.94239630  0.18661805  1
  Zn  Zn146  1  0.94024888  0.93119944  0.68780999  1
  Zn  Zn147  1  0.05955677  0.06780119  0.31764451  1
  Zn  Zn148  1  0.06458081  0.05856021  0.81567924  1
  Zn  Zn149  1  0.06259952  0.56478350  0.31565946  1
  Zn  Zn150  1  0.06350274  0.56348076  0.81302708  1
  Zn  Zn151  1  0.55571505  0.06287318  0.30984124  1
  Zn  Zn152  1  0.56651800  0.06448889  0.81168781  1
  Zn  Zn153  1  0.56599001  0.56722172  0.31063183  1
  Zn  Zn154  1  0.55842212  0.56319991  0.81939699  1
  Zn  Zn155  1  0.44564642  0.18167020  0.44256686  1
  Zn  Zn156  1  0.43451330  0.18977124  0.93335552  1
  Zn  Zn157  1  0.43719199  0.67857561  0.43710003  1
  Zn  Zn158  1  0.43866281  0.69241940  0.94051195  1
  Zn  Zn159  1  0.94062413  0.18647597  0.43626428  1
  Zn  Zn160  1  0.93889708  0.18330992  0.93689194  1
  Zn  Zn161  1  0.94202267  0.68714321  0.43557412  1
  Zn  Zn162  1  0.93613529  0.68590437  0.93351256  1
  Zn  Zn163  1  0.06037437  0.31515682  0.06356204  1
  Zn  Zn164  1  0.06549868  0.31601513  0.56125871  1
  Zn  Zn165  1  0.06199177  0.81750096  0.06379393  1
  Zn  Zn166  1  0.05964934  0.81342494  0.56103903  1
  Zn  Zn167  1  0.56320448  0.31615286  0.06077575  1
  Zn  Zn168  1  0.54587886  0.30398270  0.67612393  1
  Zn  Zn169  1  0.56636391  0.81724841  0.05905366  1
  Zn  Zn170  1  0.56342386  0.81054815  0.56018536  1
  O  O171  1  0.11396539  0.12780528  0.13400665  1
  O  O172  1  0.12802067  0.12733714  0.61191004  1
  O  O173  1  0.11835337  0.61938719  0.12068553  1
  O  O174  1  0.12250834  0.61723145  0.61324010  1
  O  O175  1  0.62624577  0.12111400  0.11457878  1
  O  O176  1  0.63765608  0.10667241  0.61234653  1
  O  O177  1  0.63064852  0.61304612  0.11546083  1
  O  O178  1  0.62829338  0.61064119  0.61784855  1
  O  O179  1  0.37798789  0.39584510  0.37292187  1
  O  O180  1  0.38059366  0.37127128  0.88572397  1
  O  O181  1  0.37574495  0.88252444  0.38187975  1
  O  O182  1  0.38137824  0.87905085  0.87951283  1
  O  O183  1  0.88065240  0.37996602  0.38190951  1
  O  O184  1  0.88872216  0.39640655  0.82629988  1
  O  O185  1  0.87333929  0.88306985  0.38339120  1
  O  O186  1  0.88724619  0.86923465  0.87473895  1
  O  O187  1  0.26635792  -0.00467506  0.38290352  1
  O  O188  1  0.25219974  0.00658711  0.87336493  1
  O  O189  1  0.25716089  0.50039483  0.35933489  1
  O  O190  1  0.23830768  0.50211203  0.86477516  1
  O  O191  1  0.75420432  0.00542759  0.36794599  1
  O  O192  1  0.74623362  0.00831935  0.86500021  1
  O  O193  1  0.75532072  0.50284457  0.36993923  1
  O  O194  1  0.74819526  0.51267267  0.88135599  1
  O  O195  1  0.24221240  0.49743397  0.12908984  1
  O  O196  1  0.23147343  0.50725140  0.63993319  1
  O  O197  1  0.25000804  0.98792360  0.12032398  1
  O  O198  1  0.24918342  0.98626154  0.62840502  1
  O  O199  1  0.73913631  0.49276520  0.12773630  1
  O  O200  1  0.72895513  0.48271814  0.61819325  1
  O  O201  1  0.74482926  0.99645203  0.12660751  1
  O  O202  1  0.74202419  0.98701294  0.63379569  1
  O  O203  1  -0.00772964  0.36962971  0.26195515  1
  O  O204  1  0.02049326  0.36718623  0.74539958  1
  O  O205  1  0.00905810  0.86951859  0.24998157  1
  O  O206  1  0.00583360  0.86691353  0.75840821  1
  O  O207  1  0.51105006  0.36759618  0.24164292  1
  O  O208  1  0.48974207  0.37535206  0.76026919  1
  O  O209  1  0.51117885  0.87899958  0.25494014  1
  O  O210  1  0.50830013  0.87630949  0.75657395  1
  O  O211  1  0.49147466  0.13845476  0.24475827  1
  O  O212  1  0.48414474  0.11479444  0.75460549  1
  O  O213  1  0.49173074  0.62488049  0.24413439  1
  O  O214  1  0.48949828  0.62651562  0.74973709  1
  O  O215  1  0.99316547  0.13442093  0.24469247  1
  O  O216  1  0.98654646  0.12008405  0.75558929  1
  O  O217  1  0.99463330  0.63022900  0.24578455  1
  O  O218  1  1.00552692  0.63953885  0.75389394  1
  O  O219  1  0.36457258  0.26044830  0.00615513  1
  O  O220  1  0.43178127  0.26315316  0.53021186  1
  O  O221  1  0.36995713  0.75682842  0.00895750  1
  O  O222  1  0.36796576  0.74860380  0.50579565  1
  O  O223  1  0.86091999  0.25154710  -0.00823810  1
  O  O224  1  0.86953955  0.25155198  0.50436788  1
  O  O225  1  0.86187287  0.75009125  0.00315387  1
  O  O226  1  0.87791631  0.76310805  0.49402877  1
  O  O227  1  0.11567762  0.23895993  0.48915170  1
  O  O228  1  0.13631787  0.25957237  0.99166769  1
  O  O229  1  0.12945475  0.74387592  0.49472389  1
  O  O230  1  0.12774895  0.74716727  0.99480145  1
  O  O231  1  0.63152832  0.23302791  0.49322134  1
  O  O232  1  0.63214518  0.24157674  0.99920747  1
  O  O233  1  0.63109382  0.73842062  0.49600205  1
  O  O234  1  0.63344267  0.74200725  1.00107612  1
  O  O235  1  0.49035243  0.25340189  0.13051536  1
  O  O236  1  0.45934243  0.25202085  0.60433821  1
  O  O237  1  0.48862010  0.75897395  0.12015822  1
  O  O238  1  0.48645485  0.74851094  0.62523888  1
  O  O239  1  1.00629361  0.24730491  0.13758178  1
  O  O240  1  0.98475536  0.25519930  0.62247569  1
  O  O241  1  0.99851197  0.74445142  0.13103496  1
  O  O242  1  1.00518075  0.75254761  0.63870195  1
  O  O243  1  0.00414003  0.25896130  0.36862001  1
  O  O244  1  0.01154820  0.24896164  0.87442058  1
  O  O245  1  0.01227505  0.75253739  0.36895360  1
  O  O246  1  0.00869936  0.75702291  0.87204141  1
  O  O247  1  0.50387292  0.24574545  0.36312332  1
  O  O248  1  0.50137006  0.26616900  0.87974227  1
  O  O249  1  0.51727787  0.74670618  0.38347738  1
  O  O250  1  0.50319061  0.76461340  0.87307394  1
  O  O251  1  0.23233013  0.11904807  0.49147887  1
  O  O252  1  0.25483734  0.13809321  0.99042959  1
  O  O253  1  0.23994138  0.63484049  0.50640928  1
  O  O254  1  0.24352123  0.63310355  1.00168874  1
  O  O255  1  0.74379386  0.12406436  0.49212030  1
  O  O256  1  0.74710030  0.13579280  0.99302885  1
  O  O257  1  0.74463311  0.62128486  0.49788175  1
  O  O258  1  0.74032456  0.63173315  0.99617882  1
  O  O259  1  0.25574885  0.37130382  0.00701459  1
  O  O260  1  0.26143963  0.37445710  0.49281730  1
  O  O261  1  0.25515942  0.87115956  0.00826919  1
  O  O262  1  0.25378044  0.86342267  0.50907146  1
  O  O263  1  0.74318783  0.36381232  0.00333088  1
  O  O264  1  0.75362310  0.36547422  0.50596477  1
  O  O265  1  0.75027120  0.86823425  0.00510131  1
  O  O266  1  0.76027941  0.87413889  0.50950234  1
  O  O267  1  0.13076467  0.50898748  0.23822765  1
  O  O268  1  0.12690852  0.49235674  0.74465867  1
  O  O269  1  0.11974263  0.98854111  0.25425353  1
  O  O270  1  0.13195086  0.99229913  0.74720348  1
  O  O271  1  0.62869448  0.49400775  0.24308420  1
  O  O272  1  0.61664035  0.50221295  0.73813962  1
  O  O273  1  0.63245842  1.00945458  0.23671508  1
  O  O274  1  0.63396387  0.99097243  0.74291811  1
  O  O275  1  0.38327890  0.00067752  0.26837401  1
  O  O276  1  0.36730080  0.00167936  0.75801594  1
  O  O277  1  0.37136503  0.51347112  0.24942410  1
  O  O278  1  0.36151787  0.51240100  0.74817541  1
  O  O279  1  0.87005408  0.01004155  0.25456359  1
  O  O280  1  0.86368307  0.00447824  0.74131763  1
  O  O281  1  0.86986314  0.50598436  0.25695827  1
  O  O282  1  0.87101871  0.52423167  0.71970866  1
  O  O283  1  0.11223262  0.36506215  0.38530482  1
  O  O284  1  0.12341699  0.36360235  0.86678824  1
  O  O285  1  0.12523686  0.86481064  0.36842046  1
  O  O286  1  0.11740900  0.86605379  0.87107529  1
  O  O287  1  0.63197382  0.36803413  0.36076288  1
  O  O288  1  0.60949031  0.37272361  0.87282632  1
  O  O289  1  0.63006747  0.85736659  0.37820555  1
  O  O290  1  0.61891189  0.87659973  0.86657191  1
  O  O291  1  0.37421856  0.14177766  0.12184265  1
  O  O292  1  0.37164148  0.11344212  0.64030054  1
  O  O293  1  0.37423478  0.63697626  0.13609774  1
  O  O294  1  0.37389363  0.63031850  0.63489063  1
  O  O295  1  0.88416308  0.12502319  0.13771279  1
  O  O296  1  0.86572115  0.13194326  0.63312645  1
  O  O297  1  0.87874992  0.62592782  0.13299188  1
  O  O298  1  0.87074966  0.58233855  0.66536891  1
  O  O299  1  0.25342507  0.26029847  0.11965648  1
  O  O300  1  0.26235293  0.24722328  0.62167803  1
  O  O301  1  0.25795691  0.76232114  0.11990955  1
  O  O302  1  0.25701058  0.75452901  0.61915439  1
  O  O303  1  0.74777171  0.25730104  0.10971836  1
  O  O304  1  0.75726036  0.25228648  0.61644502  1
  O  O305  1  0.74779070  0.75980220  0.11829873  1
  O  O306  1  0.74715902  0.76155999  0.62467704  1
  O  O307  1  0.23337711  0.25984815  0.36955256  1
  O  O308  1  0.24410901  0.24502945  0.88189416  1
  O  O309  1  0.24069966  0.75433450  0.38622336  1
  O  O310  1  0.23781378  0.75348248  0.88364345  1
  O  O311  1  0.74302984  0.24372486  0.37865493  1
  O  O312  1  0.74521567  0.24574046  0.88304017  1
  O  O313  1  0.74174480  0.74096568  0.38045368  1
  O  O314  1  0.74651877  0.74041504  0.88487066  1
  O  O315  1  -0.00412834  0.12125739  0.01287157  1
  O  O316  1  0.01115304  0.11581720  0.49481160  1
  O  O317  1  0.00391954  0.61693628  0.00564479  1
  O  O318  1  0.00654497  0.61178896  0.49618776  1
  O  O319  1  0.51002009  0.12677063  -0.00196597  1
  O  O320  1  0.51588772  0.10900865  0.49887337  1
  O  O321  1  0.50987747  0.61645583  -0.00850361  1
  O  O322  1  0.51410206  0.62045117  0.50503639  1
  O  O323  1  0.49741751  0.39668242  0.49341167  1
  O  O324  1  0.49203177  0.38169806  0.99192406  1
  O  O325  1  0.49515004  0.87989565  0.49504483  1
  O  O326  1  0.49535954  0.87908911  0.98980387  1
  O  O327  1  0.99280921  0.38217463  0.49174513  1
  O  O328  1  1.00237728  0.38959644  0.99704370  1
  O  O329  1  0.99322679  0.88376724  0.49672538  1
  O  O330  1  0.99551528  0.88121539  0.99417682  1
  O  O331  1  0.49597223  0.50860598  0.38038779  1
  O  O332  1  0.50157484  0.48650675  0.88695520  1
  O  O333  1  0.49298319  0.99687907  0.38654895  1
  O  O334  1  0.49629595  0.98948758  0.87528061  1
  O  O335  1  0.99620933  0.49265661  0.38270882  1
  O  O336  1  1.00094165  0.50256179  0.88930855  1
  O  O337  1  0.99252583  0.99887315  0.38476335  1
  O  O338  1  1.00667786  0.98799628  0.88403612  1
  O  O339  1  0.00561581  0.01200049  0.12117489  1
  O  O340  1  0.00278714  -0.00633106  0.61238479  1
  O  O341  1  0.00615435  0.50386080  0.11727842  1
  O  O342  1  0.01030864  0.48691424  0.61366316  1
  O  O343  1  0.51195697  0.00489866  0.12107424  1
  O  O344  1  0.51313462  -0.01197077  0.61431012  1
  O  O345  1  0.51137123  0.49158107  0.11337171  1
  O  O346  1  0.51270250  0.50103210  0.61244510  1
  O  O347  1  0.25722038  0.39028309  0.23480847  1
  O  O348  1  0.24105894  0.38364843  0.75152511  1
  O  O349  1  0.24118798  0.86968137  0.24162358  1
  O  O350  1  0.24571279  0.87752512  0.74336840  1
  O  O351  1  0.74126341  0.37777992  0.24151986  1
  O  O352  1  0.74439259  0.36101266  0.73680671  1
  O  O353  1  0.74360094  0.88190459  0.24085319  1
  O  O354  1  0.74482098  0.87826518  0.74711006  1
  O  O355  1  0.25855708  0.13114044  0.25859969  1
  O  O356  1  0.25890284  0.11694207  0.76071052  1
  O  O357  1  0.25713278  0.61775296  0.24190134  1
  O  O358  1  0.25403754  0.61905737  0.75583435  1
  O  O359  1  0.75769150  0.12439863  0.25201494  1
  O  O360  1  0.75709323  0.11501909  0.75591837  1
  O  O361  1  0.75453597  0.61711802  0.25548644  1
  O  O362  1  0.74047138  0.63010077  0.76863703  1
  O  O363  1  0.37430652  0.11012605  0.38559934  1
  O  O364  1  0.36482365  0.11960504  0.87036646  1
  O  O365  1  0.37759774  0.62038767  0.35552350  1
  O  O366  1  0.37182347  0.63602750  0.86473712  1
  O  O367  1  0.86973546  0.12033835  0.36628735  1
  O  O368  1  0.86243915  0.13095744  0.86402657  1
  O  O369  1  0.87132421  0.61880568  0.37109823  1
  O  O370  1  0.85887060  0.62058082  0.87802220  1
  O  O371  1  0.13471503  0.38745007  0.11972048  1
  O  O372  1  0.13269635  0.38181206  0.62966376  1
  O  O373  1  0.13401142  0.87568550  0.13550558  1
  O  O374  1  0.13696416  0.87182947  0.62945653  1
  O  O375  1  0.63363713  0.38219449  0.13222840  1
  O  O376  1  0.62260998  0.38269109  0.62736177  1
  O  O377  1  0.63628503  0.88783657  0.12075971  1
  O  O378  1  0.63327593  0.87977837  0.63136700  1
  O  O379  1  0.11200629  0.25006107  0.26611721  1
  O  O380  1  0.12798061  0.25358628  0.75808405  1
  O  O381  1  0.12168452  0.75482087  0.25799595  1
  O  O382  1  0.12114665  0.75396686  0.75940930  1
  O  O383  1  0.61688651  0.25550693  0.25272205  1
  O  O384  1  0.60956102  0.23610179  0.73835788  1
  O  O385  1  0.62970765  0.74489972  0.26611993  1
  O  O386  1  0.62243102  0.76235833  0.74923461  1
  O  O387  1  0.38228091  0.26056947  0.24024556  1
  O  O388  1  0.37565029  0.23329282  0.75305455  1
  O  O389  1  0.37303432  0.73976007  0.24473750  1
  O  O390  1  0.37241374  0.74231818  0.74091375  1
  O  O391  1  0.88485969  0.24181850  0.25808828  1
  O  O392  1  0.87746045  0.23783807  0.74051649  1
  O  O393  1  0.88062547  0.74488660  0.25088900  1
  O  O394  1  0.88955915  0.74969356  0.74962080  1
  O  O395  1  0.39235459  0.52168286  0.48326463  1
  O  O396  1  0.38339716  0.49312176  1.00933613  1
  O  O397  1  0.38405169  0.99261038  0.49651540  1
  O  O398  1  0.37708851  0.99489556  0.99337706  1
  O  O399  1  0.88127166  0.49454847  0.49785073  1
  O  O400  1  0.88834450  0.50352289  0.99918900  1
  O  O401  1  0.88115050  0.99389688  0.49548480  1
  O  O402  1  0.89161700  1.00092462  1.00398178  1
  O  O403  1  0.11003222  -0.00308621  0.00608438  1
  O  O404  1  0.11757445  0.01056532  0.49961075  1
  O  O405  1  0.11691508  0.50648348  0.01064467  1
  O  O406  1  0.11954980  0.50596672  0.50493971  1
  O  O407  1  0.62787076  0.01427606  0.00745108  1
  O  O408  1  0.62165717  0.00037311  0.50396772  1
  O  O409  1  0.61678469  0.50553678  0.00641541  1
  O  O410  1  0.61585134  0.50763453  0.49519273  1
  O  O411  1  0.36679430  0.36949744  0.11471854  1
  O  O412  1  0.35902876  0.41819607  0.60642263  1
  O  O413  1  0.36872234  0.87104984  0.12271973  1
  O  O414  1  0.36646091  0.86462120  0.62171347  1
  O  O415  1  0.85929681  0.38231607  0.12890707  1
  O  O416  1  0.86273832  0.36384191  0.62163802  1
  O  O417  1  0.86146712  0.87660152  0.12498317  1
  O  O418  1  0.86625591  0.87998971  0.61497460  1
  O  O419  1  0.12466025  0.14014268  0.38166410  1
  O  O420  1  0.13732511  0.13493036  0.86843104  1
  O  O421  1  0.12189575  0.63521817  0.38744196  1
  O  O422  1  0.12606426  0.63629834  0.88326408  1
  O  O423  1  0.62976100  0.12731471  0.37999578  1
  O  O424  1  0.63739974  0.12755399  0.88047989  1
  O  O425  1  0.63188383  0.63201098  0.38306492  1
  O  O426  1  0.63269384  0.62538207  0.88744389  1
