# generated using pymatgen
data_V85Zn86O256
_symmetry_space_group_name_H-M   'P 1'
_cell_length_a   16.96404309
_cell_length_b   16.96695335
_cell_length_c   16.97554552
_cell_angle_alpha   90.05722250
_cell_angle_beta   90.02474161
_cell_angle_gamma   90.10660710
_symmetry_Int_Tables_number   1
_chemical_formula_structural   V85Zn86O256
_chemical_formula_sum   'V85 Zn86 O256'
_cell_volume   4886.02812947
_cell_formula_units_Z   1
loop_
 _symmetry_equiv_pos_site_id
 _symmetry_equiv_pos_as_xyz
  1  'x, y, z'
loop_
 _atom_site_type_symbol
 _atom_site_label
 _atom_site_symmetry_multiplicity
 _atom_site_fract_x
 _atom_site_fract_y
 _atom_site_fract_z
 _atom_site_occupancy
  V  V0  1  0.24797815  -0.00438835  0.74987802  1
  V  V1  1  -0.00256378  0.37490496  0.87417207  1
  V  V2  1  0.12576531  0.50014558  0.62563865  1
  V  V3  1  0.62368502  0.24740082  0.88981334  1
  V  V4  1  0.62887859  -0.00564464  0.12267253  1
  V  V5  1  0.62749632  0.13235588  0.49056008  1
  V  V6  1  0.50551120  0.00375201  0.00022935  1
  V  V7  1  0.25251188  0.24873123  0.49629864  1
  V  V8  1  0.62390044  0.37067874  0.26583314  1
  V  V9  1  0.88002510  0.12775847  0.24993522  1
  V  V10  1  0.62336024  0.00254337  0.62109209  1
  V  V11  1  0.37361434  0.12620263  0.25433717  1
  V  V12  1  -0.00060269  0.25166839  0.74698306  1
  V  V13  1  0.64005341  0.61713906  0.00064782  1
  V  V14  1  0.49541435  0.63146841  0.11578282  1
  V  V15  1  0.86876611  0.36850871  -0.00172270  1
  V  V16  1  0.25297515  0.87198959  0.12663424  1
  V  V17  1  0.37639369  0.25136533  0.62212616  1
  V  V18  1  0.37930051  0.48739134  0.37776850  1
  V  V19  1  0.25023905  0.62489569  0.37446953  1
  V  V20  1  0.12541941  0.62585514  -0.00010013  1
  V  V21  1  0.24924350  0.00587897  0.25363582  1
  V  V22  1  0.25192233  0.62398771  0.87575878  1
  V  V23  1  0.25161955  0.37737969  0.12324210  1
  V  V24  1  -0.00016894  0.87674028  0.37618868  1
  V  V25  1  -0.00523938  0.49571133  0.49992495  1
  V  V26  1  -0.00011678  0.75046334  0.24792430  1
  V  V27  1  0.39055787  0.38126619  -0.00244374  1
  V  V28  1  0.37513859  0.75357306  0.61848467  1
  V  V29  1  0.12492401  0.87576962  0.24975780  1
  V  V30  1  0.86786318  0.76285191  0.11875163  1
  V  V31  1  0.25377852  0.74990314  0.00138183  1
  V  V32  1  0.37268644  -0.00457692  0.37820146  1
  V  V33  1  0.12287277  0.37228871  0.24876595  1
  V  V34  1  -0.00235590  0.12036019  0.62194700  1
  V  V35  1  0.49998335  0.62505133  0.62723278  1
  V  V36  1  -0.00140166  0.49908407  -0.00197031  1
  V  V37  1  -0.00301364  -0.00326590  -0.01390479  1
  V  V38  1  0.12078407  -0.00586456  0.62699452  1
  V  V39  1  0.61815732  0.87323885  0.25036387  1
  V  V40  1  -0.00237082  0.37294203  0.37353748  1
  V  V41  1  0.49616671  -0.00597751  0.49677930  1
  V  V42  1  0.87358364  0.24795306  0.12464579  1
  V  V43  1  0.87818998  0.74953009  0.63111134  1
  V  V44  1  0.75325407  0.01101836  0.75035007  1
  V  V45  1  0.12836586  0.12549778  -0.00137856  1
  V  V46  1  0.75202578  -0.00673933  0.24519457  1
  V  V47  1  0.11655058  0.76178059  0.86397993  1
  V  V48  1  -0.00015034  0.62649880  0.63611510  1
  V  V49  1  0.74970992  0.62550477  0.37289747  1
  V  V50  1  0.87439929  0.62491742  0.24796901  1
  V  V51  1  0.62157665  0.87786919  0.75374479  1
  V  V52  1  0.25221833  0.49940211  0.75154714  1
  V  V53  1  0.74753513  0.49778778  0.25051515  1
  V  V54  1  0.87931724  0.87909968  0.50166459  1
  V  V55  1  0.62779805  0.37442000  0.75338340  1
  V  V56  1  0.25504919  0.37478966  0.62016126  1
  V  V57  1  0.39687429  0.49888098  0.87744433  1
  V  V58  1  0.25246444  0.87555477  0.61890872  1
  V  V59  1  -0.00052063  0.62529694  0.12372286  1
  V  V60  1  0.75011656  0.75097198  0.49799517  1
  V  V61  1  0.38392574  0.63944660  0.25045199  1
  V  V62  1  0.49628603  0.48687355  0.50042584  1
  V  V63  1  0.37616018  0.62503691  0.74991121  1
  V  V64  1  0.85701356  0.61934873  0.75595770  1
  V  V65  1  0.62924017  0.50138243  0.63020234  1
  V  V66  1  0.12476905  0.24667871  0.37277846  1
  V  V67  1  0.12480230  0.12135709  0.49906034  1
  V  V68  1  0.87464744  0.25511235  0.61685658  1
  V  V69  1  0.61928740  0.75101825  0.37021830  1
  V  V70  1  0.87567366  0.00128586  0.37792778  1
  V  V71  1  0.37569519  0.00130348  0.87414359  1
  V  V72  1  0.75284786  0.37688902  0.62133501  1
  V  V73  1  0.12605927  0.25154943  0.87379712  1
  V  V74  1  0.50125778  0.25285850  0.75261939  1
  V  V75  1  0.37675536  0.87293503  0.00443035  1
  V  V76  1  0.25281695  0.25219645  -0.00141358  1
  V  V77  1  0.50505574  0.25348850  0.26292137  1
  V  V78  1  0.12463954  0.62741058  0.49954989  1
  V  V79  1  0.75086559  0.12999353  0.89009229  1
  V  V80  1  0.87521926  0.49812927  0.37604503  1
  V  V81  1  0.12531370  0.37522236  0.74956108  1
  V  V82  1  0.74815426  0.37157550  0.12626366  1
  V  V83  1  0.50599140  0.12466445  0.12538003  1
  V  V84  1  0.00181632  0.12776614  0.12573384  1
  Zn  Zn85  1  0.60810575  0.49265486  0.12465978  1
  Zn  Zn86  1  0.75258794  0.25898227  0.48904781  1
  Zn  Zn87  1  0.49878254  0.75276640  0.75125096  1
  Zn  Zn88  1  0.25228137  0.12701954  0.87123769  1
  Zn  Zn89  1  0.62613065  0.74019493  0.87988794  1
  Zn  Zn90  1  0.12403257  0.75006893  0.37487087  1
  Zn  Zn91  1  0.62292862  0.62454092  0.49814704  1
  Zn  Zn92  1  0.87660688  0.12703495  0.75369702  1
  Zn  Zn93  1  0.49063104  0.86577535  0.37544580  1
  Zn  Zn94  1  0.12486325  0.50078307  0.12701266  1
  Zn  Zn95  1  0.49853961  0.12611173  0.62305255  1
  Zn  Zn96  1  0.37689453  0.12588469  0.74980961  1
  Zn  Zn97  1  0.25292196  0.75604544  0.49718118  1
  Zn  Zn98  1  0.85534799  0.49742453  0.87267275  1
  Zn  Zn99  1  0.74290582  0.77165318  -0.00356068  1
  Zn  Zn100  1  0.75167809  0.87818965  0.62557101  1
  Zn  Zn101  1  0.50097303  0.87272386  0.87834468  1
  Zn  Zn102  1  0.88341485  0.87884852  -0.02734380  1
  Zn  Zn103  1  0.25277034  0.50077591  0.24907283  1
  Zn  Zn104  1  0.12518340  -0.00010985  0.12368886  1
  Zn  Zn105  1  0.37942635  0.25280768  0.12384403  1
  Zn  Zn106  1  0.74496972  0.13248142  0.36799442  1
  Zn  Zn107  1  0.18892696  0.19148149  0.18522593  1
  Zn  Zn108  1  0.18912496  0.18396754  0.68669882  1
  Zn  Zn109  1  0.18888556  0.68782155  0.18825245  1
  Zn  Zn110  1  0.18950007  0.68961573  0.68879787  1
  Zn  Zn111  1  0.68881155  0.18536878  0.18899078  1
  Zn  Zn112  1  0.68581195  0.19163447  0.68127952  1
  Zn  Zn113  1  0.68446557  0.68769016  0.18268838  1
  Zn  Zn114  1  0.68680060  0.69314948  0.68204610  1
  Zn  Zn115  1  0.31086729  0.30918119  0.31006112  1
  Zn  Zn116  1  0.31672752  0.31701317  0.81428052  1
  Zn  Zn117  1  0.30847504  0.81360880  0.31515482  1
  Zn  Zn118  1  0.30921186  0.81276571  0.81090802  1
  Zn  Zn119  1  0.81436664  0.31077604  0.31176778  1
  Zn  Zn120  1  0.80854396  0.30894807  0.80950943  1
  Zn  Zn121  1  0.81167324  0.81199623  0.30946585  1
  Zn  Zn122  1  0.79974711  0.80958735  0.81147594  1
  Zn  Zn123  1  0.18688253  0.43784099  0.43715726  1
  Zn  Zn124  1  0.18994151  0.43900035  0.93776693  1
  Zn  Zn125  1  0.18645533  0.94074834  0.43832132  1
  Zn  Zn126  1  0.18663985  0.93835748  0.93673864  1
  Zn  Zn127  1  0.68525995  0.44175452  0.44256123  1
  Zn  Zn128  1  0.67880531  0.43295194  0.94248968  1
  Zn  Zn129  1  0.68920805  0.93870301  0.43394271  1
  Zn  Zn130  1  0.69549520  0.94208504  0.93504682  1
  Zn  Zn131  1  0.31558320  0.06157691  0.06661171  1
  Zn  Zn132  1  0.31035064  0.06563124  0.56255006  1
  Zn  Zn133  1  0.31855659  0.56125425  0.06328696  1
  Zn  Zn134  1  0.31395158  0.56305033  0.56010820  1
  Zn  Zn135  1  0.81526106  0.05481477  0.06183979  1
  Zn  Zn136  1  0.81026722  0.06660443  0.56263372  1
  Zn  Zn137  1  0.81551580  0.55745535  0.06568571  1
  Zn  Zn138  1  0.81243617  0.56365947  0.56275249  1
  Zn  Zn139  1  0.43597380  0.44240251  0.19109217  1
  Zn  Zn140  1  0.44203416  0.43772234  0.69157906  1
  Zn  Zn141  1  0.43813805  0.93692857  0.18905322  1
  Zn  Zn142  1  0.43619239  0.93859961  0.68391694  1
  Zn  Zn143  1  0.93761275  0.43636740  0.18874515  1
  Zn  Zn144  1  0.93419545  0.44000069  0.68805198  1
  Zn  Zn145  1  0.94259243  0.94273428  0.18500738  1
  Zn  Zn146  1  0.93667648  0.93552243  0.69725873  1
  Zn  Zn147  1  0.06186125  0.06143660  0.31365981  1
  Zn  Zn148  1  0.06511952  0.06476910  0.80766295  1
  Zn  Zn149  1  0.06321985  0.55942629  0.31025556  1
  Zn  Zn150  1  0.06427981  0.56395058  0.81701705  1
  Zn  Zn151  1  0.55943111  0.05939146  0.31150521  1
  Zn  Zn152  1  0.56382439  0.06843138  0.81347646  1
  Zn  Zn153  1  0.56130846  0.55941033  0.31126135  1
  Zn  Zn154  1  0.67731705  0.55947755  0.81694712  1
  Zn  Zn155  1  0.43699312  0.18200057  0.43965919  1
  Zn  Zn156  1  0.43890679  0.18950983  0.93889604  1
  Zn  Zn157  1  0.43766311  0.67938886  0.44013581  1
  Zn  Zn158  1  0.44375193  0.68802826  0.93172569  1
  Zn  Zn159  1  0.94056449  0.18788890  0.43742841  1
  Zn  Zn160  1  0.93696962  0.18539445  0.93676776  1
  Zn  Zn161  1  0.93752484  0.68739074  0.43883342  1
  Zn  Zn162  1  0.93591450  0.68893359  0.93530242  1
  Zn  Zn163  1  0.06102853  0.31118344  0.06208839  1
  Zn  Zn164  1  0.06410208  0.31132617  0.56051029  1
  Zn  Zn165  1  0.06352923  0.81290737  0.05890248  1
  Zn  Zn166  1  0.06151832  0.81193342  0.56532799  1
  Zn  Zn167  1  0.56403566  0.30941089  0.07185767  1
  Zn  Zn168  1  0.56486002  0.31274519  0.56490059  1
  Zn  Zn169  1  0.56040087  0.80629243  0.06764997  1
  Zn  Zn170  1  0.56241012  0.81445402  0.56256611  1
  O  O171  1  0.11828025  0.12865492  0.11561419  1
  O  O172  1  0.11700363  0.11817165  0.61875830  1
  O  O173  1  0.11840702  0.62421175  0.11846364  1
  O  O174  1  0.11878132  0.62105102  0.61949497  1
  O  O175  1  0.61467979  0.11135797  0.13405772  1
  O  O176  1  0.62362473  0.11560431  0.61308129  1
  O  O177  1  0.61307891  0.62246887  0.11877145  1
  O  O178  1  0.61795730  0.61856983  0.62524967  1
  O  O179  1  0.36896724  0.38919189  0.37137852  1
  O  O180  1  0.37409505  0.38557531  0.88541660  1
  O  O181  1  0.37453883  0.88886378  0.37084946  1
  O  O182  1  0.37531077  0.88584842  0.88410940  1
  O  O183  1  0.88954650  0.38179472  0.36594284  1
  O  O184  1  0.87848080  0.37101637  0.88279668  1
  O  O185  1  0.88032649  0.88111249  0.38065723  1
  O  O186  1  0.89198790  0.87438311  0.84571384  1
  O  O187  1  0.25564629  -0.00335797  0.36209190  1
  O  O188  1  0.25805930  -0.00006109  0.86719335  1
  O  O189  1  0.26011277  0.50892569  0.37877568  1
  O  O190  1  0.25126568  0.50725274  0.86743114  1
  O  O191  1  0.76187656  0.00462830  0.36522469  1
  O  O192  1  0.73948800  0.01985811  0.85860350  1
  O  O193  1  0.75512920  0.50514349  0.37146428  1
  O  O194  1  0.74423656  0.48857661  0.87094942  1
  O  O195  1  0.24701044  0.48875619  0.12488868  1
  O  O196  1  0.24747506  0.49295530  0.62901318  1
  O  O197  1  0.24934162  0.99026080  0.13465355  1
  O  O198  1  0.24488379  0.99397956  0.63002992  1
  O  O199  1  0.75639785  0.48422727  0.13563404  1
  O  O200  1  0.73833303  0.49471204  0.61827751  1
  O  O201  1  0.74006511  1.00533079  0.13310282  1
  O  O202  1  0.74031510  1.00114566  0.63177454  1
  O  O203  1  0.01176004  0.37981737  0.25937628  1
  O  O204  1  0.00542838  0.37230092  0.75372043  1
  O  O205  1  0.00512531  0.87178533  0.25687030  1
  O  O206  1  -0.04303236  0.87536876  0.79648147  1
  O  O207  1  0.50674417  0.36011859  0.24395548  1
  O  O208  1  0.51248482  0.36344578  0.74542025  1
  O  O209  1  0.51321533  0.88093240  0.25575536  1
  O  O210  1  0.51279697  0.87918818  0.74845159  1
  O  O211  1  0.49478621  0.13294006  0.24505948  1
  O  O212  1  0.49947536  0.13753090  0.74433963  1
  O  O213  1  0.48594267  0.62874108  0.25565038  1
  O  O214  1  0.49277425  0.62846845  0.73330860  1
  O  O215  1  0.99065734  0.11543003  0.23825771  1
  O  O216  1  0.99980465  0.13283584  0.73885071  1
  O  O217  1  0.99520566  0.62903563  0.24509332  1
  O  O218  1  0.99531956  0.61923380  0.73828886  1
  O  O219  1  0.37071080  0.26084446  0.00022822  1
  O  O220  1  0.36428951  0.24309970  0.50768619  1
  O  O221  1  0.36507034  0.76207875  -0.00908864  1
  O  O222  1  0.37206520  0.74117031  0.51427693  1
  O  O223  1  0.87920083  0.25953833  0.00979221  1
  O  O224  1  0.87732906  0.24750342  0.51344942  1
  O  O225  1  0.87975747  0.75556369  0.01191300  1
  O  O226  1  0.86791003  0.75676462  0.50625625  1
  O  O227  1  0.13223834  0.24299707  0.49376557  1
  O  O228  1  0.13006697  0.24363406  0.99426503  1
  O  O229  1  0.12355439  0.73674502  0.49908539  1
  O  O230  1  0.13758663  0.74549056  0.99413214  1
  O  O231  1  0.62218002  0.23410349  0.50417711  1
  O  O232  1  0.61932922  0.25206143  0.98847219  1
  O  O233  1  0.63706713  0.75229139  0.49355242  1
  O  O234  1  0.62789932  0.73603985  1.00656155  1
  O  O235  1  0.49900573  0.23744469  0.13397491  1
  O  O236  1  0.48975425  0.25106934  0.63041562  1
  O  O237  1  0.49992949  0.73213734  0.13183453  1
  O  O238  1  0.49326688  0.74411144  0.62462325  1
  O  O239  1  0.98998255  0.23745005  0.11963556  1
  O  O240  1  0.99532394  0.24489706  0.62796453  1
  O  O241  1  0.99302306  0.74486541  0.12865429  1
  O  O242  1  0.98870154  0.73901887  0.61908603  1
  O  O243  1  0.01208080  0.26260844  0.38347811  1
  O  O244  1  0.00544149  0.25509923  0.86828333  1
  O  O245  1  -0.00240395  0.76064744  0.36789443  1
  O  O246  1  0.01869833  0.74644660  0.88332415  1
  O  O247  1  0.49485314  0.24587863  0.36114923  1
  O  O248  1  0.51429956  0.24069088  0.86598466  1
  O  O249  1  0.51541743  0.74913197  0.38751938  1
  O  O250  1  0.50986768  0.75638692  0.86841852  1
  O  O251  1  0.23655546  0.13729333  0.50651365  1
  O  O252  1  0.24261044  0.13081955  1.00311439  1
  O  O253  1  0.23931122  0.62434690  0.49340166  1
  O  O254  1  0.24865595  0.63324638  0.99836522  1
  O  O255  1  0.73568604  0.12542625  0.49730688  1
  O  O256  1  0.75182606  0.11809607  0.98832482  1
  O  O257  1  0.75080246  0.63632110  0.49327357  1
  O  O258  1  0.74062026  0.62441979  1.01033324  1
  O  O259  1  0.25277231  0.37008263  0.00806875  1
  O  O260  1  0.24121882  0.36539019  0.51215854  1
  O  O261  1  0.25697697  0.87105101  0.00790382  1
  O  O262  1  0.24590225  0.87522961  0.51305244  1
  O  O263  1  0.76045870  0.37888005  0.01306911  1
  O  O264  1  0.74055112  0.37319712  0.51547123  1
  O  O265  1  0.77199519  0.88357099  -0.01133777  1
  O  O266  1  0.76156263  0.86763828  0.49905256  1
  O  O267  1  0.13060147  0.48752861  0.24845133  1
  O  O268  1  0.13082892  0.49542024  0.74471919  1
  O  O269  1  0.13384428  0.99634025  0.24917833  1
  O  O270  1  0.13566823  1.00580099  0.73824133  1
  O  O271  1  0.63019213  0.48876537  0.24876142  1
  O  O272  1  0.62156559  0.49014672  0.73806494  1
  O  O273  1  0.63282140  0.99338514  0.24473357  1
  O  O274  1  0.62839308  0.99769634  0.73919249  1
  O  O275  1  0.36885192  0.00611937  0.25626271  1
  O  O276  1  0.37013937  0.00069770  0.75877673  1
  O  O277  1  0.37285765  0.50918956  0.26701800  1
  O  O278  1  0.37159263  0.50376694  0.75782864  1
  O  O279  1  0.86959514  0.00519804  0.25486984  1
  O  O280  1  0.85555183  0.00625600  0.74200260  1
  O  O281  1  0.86960836  0.50515893  0.25611058  1
  O  O282  1  0.87304650  0.51555439  0.74948816  1
  O  O283  1  0.11933168  0.36923588  0.36798302  1
  O  O284  1  0.11901989  0.37069239  0.86944479  1
  O  O285  1  0.11499156  0.87574640  0.37165315  1
  O  O286  1  0.13259960  0.86093605  0.87641757  1
  O  O287  1  0.62862260  0.37700514  0.36467672  1
  O  O288  1  0.63124827  0.35609131  0.86603812  1
  O  O289  1  0.62507967  0.86731318  0.36780523  1
  O  O290  1  0.62317282  0.88747327  0.85808752  1
  O  O291  1  0.38722705  0.12263143  0.13696937  1
  O  O292  1  0.37485067  0.13927038  0.62772777  1
  O  O293  1  0.38071847  0.62220676  0.14134069  1
  O  O294  1  0.37960548  0.63065881  0.63022889  1
  O  O295  1  0.88084176  0.12952891  0.12922014  1
  O  O296  1  0.88420292  0.13215829  0.62483645  1
  O  O297  1  0.88138208  0.63242740  0.12990657  1
  O  O298  1  0.87997324  0.62958239  0.63384770  1
  O  O299  1  0.25458019  0.26081804  0.11796987  1
  O  O300  1  0.25565898  0.25684438  0.61912498  1
  O  O301  1  0.24701770  0.76108916  0.11519949  1
  O  O302  1  0.25616204  0.75871198  0.62400689  1
  O  O303  1  0.76031645  0.25883759  0.13062045  1
  O  O304  1  0.75866770  0.25727457  0.61941363  1
  O  O305  1  0.76583028  0.74879137  0.12301120  1
  O  O306  1  0.75873690  0.75385823  0.61324769  1
  O  O307  1  0.23908925  0.25712554  0.38586461  1
  O  O308  1  0.24463481  0.25016578  0.88024024  1
  O  O309  1  0.24542438  0.73951238  0.37968197  1
  O  O310  1  0.24529033  0.74397613  0.88359711  1
  O  O311  1  0.75810448  0.24375006  0.37802213  1
  O  O312  1  0.73672172  0.23948148  0.87225985  1
  O  O313  1  0.74479434  0.74605453  0.38147077  1
  O  O314  1  0.73926341  0.75100079  0.88160641  1
  O  O315  1  0.00965727  0.11993209  0.00495560  1
  O  O316  1  0.01030818  0.12906752  0.51313649  1
  O  O317  1  0.00293961  0.61576239  0.00327116  1
  O  O318  1  0.00649480  0.61650296  0.50642970  1
  O  O319  1  0.49282669  0.11326177  0.01200044  1
  O  O320  1  0.51191303  0.11487995  0.50019708  1
  O  O321  1  0.49601593  0.62666580  0.01358289  1
  O  O322  1  0.50146615  0.61596567  0.51379957  1
  O  O323  1  0.50164035  0.38754199  0.50654192  1
  O  O324  1  0.48873390  0.37355301  1.01230483  1
  O  O325  1  0.50418755  0.88990152  0.49675156  1
  O  O326  1  0.49137414  0.88344267  1.00332158  1
  O  O327  1  1.01002226  0.38831348  0.49032125  1
  O  O328  1  0.99128582  0.38018827  0.99600721  1
  O  O329  1  0.98833614  0.86790495  0.49060881  1
  O  O330  1  1.00152855  0.89213093  1.00131639  1
  O  O331  1  0.48714967  0.50503020  0.38441654  1
  O  O332  1  0.49224518  0.50352839  0.87197808  1
  O  O333  1  0.48973988  0.99797230  0.38076665  1
  O  O334  1  0.49400555  1.00098839  0.88403329  1
  O  O335  1  0.99642273  0.49391943  0.38174310  1
  O  O336  1  0.99770518  0.49362636  0.88488201  1
  O  O337  1  0.98863595  0.98728443  0.36925874  1
  O  O338  1  1.00730688  1.00855333  0.88707465  1
  O  O339  1  0.00425232  0.01317485  0.11476819  1
  O  O340  1  0.00752205  0.00721844  0.63658239  1
  O  O341  1  -0.00107221  0.50406687  0.11386046  1
  O  O342  1  0.00438743  0.50650562  0.61758552  1
  O  O343  1  0.50720993  0.00535067  0.11980734  1
  O  O344  1  0.50529519  0.00300156  0.61517175  1
  O  O345  1  0.49781838  0.52061059  0.13861150  1
  O  O346  1  0.50579119  0.50595714  0.62010395  1
  O  O347  1  0.24281276  0.37467894  0.23982265  1
  O  O348  1  0.24455791  0.37930254  0.74059467  1
  O  O349  1  0.24589787  0.88223258  0.24321237  1
  O  O350  1  0.25401759  0.88766453  0.73826528  1
  O  O351  1  0.74305136  0.37710056  0.24510609  1
  O  O352  1  0.73742787  0.36713903  0.73635528  1
  O  O353  1  0.74226743  0.88769547  0.25446383  1
  O  O354  1  0.73835207  0.89287057  0.74746120  1
  O  O355  1  0.25958752  0.11580035  0.23910959  1
  O  O356  1  0.25464423  0.11222490  0.75022572  1
  O  O357  1  0.25669385  0.62300414  0.25899135  1
  O  O358  1  0.25769011  0.61822571  0.75346827  1
  O  O359  1  0.76260343  0.11400735  0.24878320  1
  O  O360  1  0.74704677  0.11752063  0.74646303  1
  O  O361  1  0.75395011  0.61848727  0.25357393  1
  O  O362  1  0.75294613  0.62364493  0.74816979  1
  O  O363  1  0.37773632  0.11550960  0.36079910  1
  O  O364  1  0.37355853  0.11226513  0.87672953  1
  O  O365  1  0.36612704  0.62179686  0.36803038  1
  O  O366  1  0.37116211  0.61839779  0.86974931  1
  O  O367  1  0.88464432  0.11501745  0.36623115  1
  O  O368  1  0.85637890  0.13737444  0.86978838  1
  O  O369  1  0.87015381  0.62062316  0.36798883  1
  O  O370  1  0.87707096  0.62699543  0.85687250  1
  O  O371  1  0.13106612  0.37209661  0.13270427  1
  O  O372  1  0.13280348  0.38005414  0.63028431  1
  O  O373  1  0.13557435  0.87724781  0.13030251  1
  O  O374  1  0.12985546  0.88620858  0.62119047  1
  O  O375  1  0.63570673  0.37400678  0.13395909  1
  O  O376  1  0.63099593  0.38265125  0.63257781  1
  O  O377  1  0.61879955  0.88585185  0.13459817  1
  O  O378  1  0.62695413  0.88757597  0.63107975  1
  O  O379  1  0.13208620  0.25831051  0.26168685  1
  O  O380  1  0.12075665  0.25528817  0.75298016  1
  O  O381  1  0.11851179  0.75740526  0.25205695  1
  O  O382  1  0.12868696  0.74592299  0.76442464  1
  O  O383  1  0.61277680  0.25308552  0.24851208  1
  O  O384  1  0.61652444  0.25690235  0.74791741  1
  O  O385  1  0.63545147  0.76099198  0.25970155  1
  O  O386  1  0.62776498  0.77153646  0.74347537  1
  O  O387  1  0.38444544  0.24324667  0.24773562  1
  O  O388  1  0.38381520  0.25156246  0.74413808  1
  O  O389  1  0.37084070  0.73840044  0.25628340  1
  O  O390  1  0.37507222  0.74376685  0.74040047  1
  O  O391  1  0.87494098  0.23678713  0.23899545  1
  O  O392  1  0.88173921  0.24917434  0.73698329  1
  O  O393  1  0.87923141  0.74502601  0.24041746  1
  O  O394  1  0.86287473  0.73763277  0.73595132  1
  O  O395  1  0.38115513  0.50483556  0.48729933  1
  O  O396  1  0.37110326  0.49184776  0.98944352  1
  O  O397  1  0.38238844  1.01327066  0.48888746  1
  O  O398  1  0.38168380  0.99228240  0.99422011  1
  O  O399  1  0.88702932  0.50673187  0.49366161  1
  O  O400  1  0.88311386  0.48930452  0.99706777  1
  O  O401  1  0.86683500  0.99048166  0.49083160  1
  O  O402  1  0.89403281  1.00414854  0.99800906  1
  O  O403  1  0.12029414  0.01118440  0.00120802  1
  O  O404  1  0.13068031  0.01177006  0.51107080  1
  O  O405  1  0.11417357  0.50455913  0.00103186  1
  O  O406  1  0.11753525  0.50939818  0.50511529  1
  O  O407  1  0.61423411  -0.00829445  0.00800317  1
  O  O408  1  0.61962689  0.00551393  0.50445000  1
  O  O409  1  0.62726215  0.51094724  0.01042374  1
  O  O410  1  0.61485320  0.50408923  0.51040519  1
  O  O411  1  0.36579840  0.37762742  0.11852132  1
  O  O412  1  0.36424383  0.36602270  0.63110513  1
  O  O413  1  0.36618288  0.88155172  0.11577414  1
  O  O414  1  0.36672494  0.86520579  0.62782938  1
  O  O415  1  0.87103732  0.36546343  0.12123258  1
  O  O416  1  0.86497850  0.36888064  0.63041125  1
  O  O417  1  0.88059099  0.86225434  0.12995973  1
  O  O418  1  0.87811831  0.86765571  0.61887834  1
  O  O419  1  0.11380937  0.13465945  0.38537716  1
  O  O420  1  0.12834845  0.13262705  0.88430579  1
  O  O421  1  0.13186375  0.62295714  0.38224243  1
  O  O422  1  0.13356035  0.63120829  0.88246901  1
  O  O423  1  0.62511589  0.11711738  0.38695652  1
  O  O424  1  0.63557949  0.13767262  0.87277423  1
  O  O425  1  0.63169021  0.63329239  0.37452111  1
  O  O426  1  0.62176196  0.62094337  0.89675904  1
