# generated using pymatgen
data_V85Zn86O256
_symmetry_space_group_name_H-M   'P 1'
_cell_length_a   16.99721723
_cell_length_b   16.99739677
_cell_length_c   16.99443007
_cell_angle_alpha   90.29733953
_cell_angle_beta   90.05474589
_cell_angle_gamma   89.88331739
_symmetry_Int_Tables_number   1
_chemical_formula_structural   V85Zn86O256
_chemical_formula_sum   'V85 Zn86 O256'
_cell_volume   4909.75588396
_cell_formula_units_Z   1
loop_
 _symmetry_equiv_pos_site_id
 _symmetry_equiv_pos_as_xyz
  1  'x, y, z'
loop_
 _atom_site_type_symbol
 _atom_site_label
 _atom_site_symmetry_multiplicity
 _atom_site_fract_x
 _atom_site_fract_y
 _atom_site_fract_z
 _atom_site_occupancy
  V  V0  1  0.37536749  0.49890037  0.37536819  1
  V  V1  1  0.50361811  0.24748544  0.24748189  1
  V  V2  1  0.87785042  0.75132532  0.62333733  1
  V  V3  1  0.74601549  0.01775518  0.75572292  1
  V  V4  1  0.87489742  0.62719437  0.23992931  1
  V  V5  1  0.88151293  0.11085285  0.24738542  1
  V  V6  1  -0.00251938  0.00306133  0.49863774  1
  V  V7  1  0.24835799  0.87136265  0.61419048  1
  V  V8  1  0.87473400  0.36910436  -0.00143026  1
  V  V9  1  0.25225178  -0.00093115  0.74816539  1
  V  V10  1  0.75315535  0.36868404  0.12199769  1
  V  V11  1  0.50003380  0.62389283  0.62503437  1
  V  V12  1  0.50415529  0.12089610  0.61045079  1
  V  V13  1  -0.00347370  0.24865861  0.24511273  1
  V  V14  1  0.00176972  0.87909989  0.87538782  1
  V  V15  1  0.12898583  0.87582982  0.24313814  1
  V  V16  1  0.12569502  0.00186034  0.62279278  1
  V  V17  1  0.25298179  0.62745122  0.87680105  1
  V  V18  1  0.37141299  0.62465357  0.25138647  1
  V  V19  1  0.12048292  0.12851010  0.00886861  1
  V  V20  1  0.12843527  0.75200072  0.87578823  1
  V  V21  1  0.74569697  0.87326072  0.63279254  1
  V  V22  1  -0.00521103  0.74718509  0.23720052  1
  V  V23  1  0.50099981  0.75950841  0.25477091  1
  V  V24  1  0.37599551  0.12345811  0.24540465  1
  V  V25  1  0.86048497  0.87102787  0.00253911  1
  V  V26  1  -0.00474893  0.87543652  0.37445821  1
  V  V27  1  0.75462112  0.11517816  0.38077602  1
  V  V28  1  0.12682252  0.74629041  0.38080651  1
  V  V29  1  0.37528049  0.50192056  0.87550158  1
  V  V30  1  0.50031153  0.37463738  0.87417207  1
  V  V31  1  0.86812596  0.01405701  0.87567530  1
  V  V32  1  0.49809002  0.49769762  0.00180800  1
  V  V33  1  0.37308159  0.37482458  -0.00103451  1
  V  V34  1  0.74918570  0.50586721  0.25652325  1
  V  V35  1  0.37476878  0.37412979  0.49911649  1
  V  V36  1  0.62789365  0.37388993  0.25132048  1
  V  V37  1  0.63011723  0.24403835  0.38053299  1
  V  V38  1  0.49983727  0.87559751  0.88340677  1
  V  V39  1  0.12256903  0.49867915  0.61867904  1
  V  V40  1  0.24855406  0.25021068  -0.00118642  1
  V  V41  1  0.37598655  0.62603736  0.75182093  1
  V  V42  1  0.37661713  0.12352905  0.74909981  1
  V  V43  1  0.11984616  0.62652413  0.00367598  1
  V  V44  1  0.11910774  0.37113284  0.74943040  1
  V  V45  1  0.50852884  0.00882158  0.00452373  1
  V  V46  1  0.24709714  0.24969176  0.49437993  1
  V  V47  1  0.11880797  0.25080995  0.87048507  1
  V  V48  1  0.49911538  0.49908855  0.50020830  1
  V  V49  1  0.12089947  0.12872657  0.49355631  1
  V  V50  1  0.87552367  0.50691099  0.37596984  1
  V  V51  1  0.88043244  0.24398131  0.63339488  1
  V  V52  1  0.00170391  0.61971687  0.61574205  1
  V  V53  1  0.49737385  0.62323577  0.12647062  1
  V  V54  1  0.11708244  0.50610393  0.12570991  1
  V  V55  1  0.73172885  -0.01315192  0.24322057  1
  V  V56  1  0.87428793  0.87900628  0.49975213  1
  V  V57  1  0.50095758  0.24848425  0.75012861  1
  V  V58  1  0.62414597  0.50012932  0.12319727  1
  V  V59  1  0.62523485  0.37400515  0.75080172  1
  V  V60  1  0.37755061  0.24958178  0.12307018  1
  V  V61  1  0.24809081  0.12360606  0.37004869  1
  V  V62  1  0.00132188  0.37517959  0.37471267  1
  V  V63  1  0.62467603  0.74846458  0.37633178  1
  V  V64  1  0.74967984  0.74034569  0.49616845  1
  V  V65  1  0.12652964  0.87685342  0.74997233  1
  V  V66  1  0.37645147  0.24826380  0.62262793  1
  V  V67  1  0.62305921  0.00136658  0.61503164  1
  V  V68  1  0.25534785  0.76325887  0.00485008  1
  V  V69  1  0.37098646  0.76474008  0.12579905  1
  V  V70  1  0.24853359  0.50127260  0.25155319  1
  V  V71  1  0.75196593  0.37288517  0.62244859  1
  V  V72  1  -0.00129409  0.00618109  0.00733112  1
  V  V73  1  0.24962218  0.37707770  0.12506729  1
  V  V74  1  0.38481244  0.88119620  0.49687540  1
  V  V75  1  0.75214001  0.50071600  0.75444347  1
  V  V76  1  0.62407600  0.49756396  0.62379714  1
  V  V77  1  0.88052872  0.37732183  0.49801872  1
  V  V78  1  0.63520301  0.23735019  0.88433430  1
  V  V79  1  0.36980313  0.74825961  0.61718720  1
  V  V80  1  0.50241792  0.76072870  0.74688990  1
  V  V81  1  0.37406090  -0.00171037  0.88153132  1
  V  V82  1  0.12426651  0.36933713  0.25313083  1
  V  V83  1  0.87583739  0.62259255  0.75000830  1
  V  V84  1  0.24893777  0.50006421  0.75042451  1
  Zn  Zn85  1  0.24937157  0.37477164  0.62445952  1
  Zn  Zn86  1  -0.00215071  0.37751276  0.87377604  1
  Zn  Zn87  1  0.63874535  0.65103241  -0.00755114  1
  Zn  Zn88  1  0.00469962  0.74815148  0.74816957  1
  Zn  Zn89  1  0.87809929  0.50462336  0.88051476  1
  Zn  Zn90  1  0.12874651  -0.00042095  0.12377048  1
  Zn  Zn91  1  -0.00347593  0.50477808  0.00052968  1
  Zn  Zn92  1  0.01529156  0.14892210  0.65874372  1
  Zn  Zn93  1  0.62984864  0.61839525  0.49509975  1
  Zn  Zn94  1  0.13013604  0.62517741  0.50167797  1
  Zn  Zn95  1  0.25492244  0.62997076  0.38665306  1
  Zn  Zn96  1  0.84674796  0.75098544  0.11461228  1
  Zn  Zn97  1  0.75055127  0.64907140  0.88677824  1
  Zn  Zn98  1  0.66490705  0.81007137  0.81216662  1
  Zn  Zn99  1  0.52528899  0.12308189  0.11968889  1
  Zn  Zn100  1  0.24959902  0.12570950  0.87585102  1
  Zn  Zn101  1  0.25839349  -0.00975681  0.24186014  1
  Zn  Zn102  1  0.87607613  0.23951798  0.12045307  1
  Zn  Zn103  1  0.38291859  0.00550182  0.38035866  1
  Zn  Zn104  1  0.50187766  0.37310280  0.37617116  1
  Zn  Zn105  1  0.75022314  0.24352599  0.50082670  1
  Zn  Zn106  1  0.51462547  0.88914808  0.37527851  1
  Zn  Zn107  1  0.18920597  0.18973390  0.18581624  1
  Zn  Zn108  1  0.19114660  0.18793969  0.68386776  1
  Zn  Zn109  1  0.18728309  0.69188122  0.18799442  1
  Zn  Zn110  1  0.18799771  0.68714462  0.68759370  1
  Zn  Zn111  1  0.70180349  0.18586584  0.19974537  1
  Zn  Zn112  1  0.68516148  0.18869963  0.68731031  1
  Zn  Zn113  1  0.68149322  0.68386980  0.19488383  1
  Zn  Zn114  1  0.68842845  0.68259029  0.68220467  1
  Zn  Zn115  1  0.31232776  0.31150210  0.31274398  1
  Zn  Zn116  1  0.30854522  0.31267194  0.81183465  1
  Zn  Zn117  1  0.31168269  0.80963667  0.31510881  1
  Zn  Zn118  1  0.31545075  0.81333973  0.81051349  1
  Zn  Zn119  1  0.81537258  0.30958342  0.31180653  1
  Zn  Zn120  1  0.81167642  0.30864966  0.81382406  1
  Zn  Zn121  1  0.81051795  0.80830955  0.31527967  1
  Zn  Zn122  1  0.83017745  0.81874476  0.81012428  1
  Zn  Zn123  1  0.18965553  0.43850524  0.43551977  1
  Zn  Zn124  1  0.18584692  0.43906309  0.93666873  1
  Zn  Zn125  1  0.18758678  0.94009562  0.43059310  1
  Zn  Zn126  1  0.18772549  0.94329897  0.93817295  1
  Zn  Zn127  1  0.68955312  0.43473681  0.43768809  1
  Zn  Zn128  1  0.68752170  0.43675272  0.93658188  1
  Zn  Zn129  1  0.69102360  0.93320704  0.43717162  1
  Zn  Zn130  1  0.68402023  0.94354027  0.93607967  1
  Zn  Zn131  1  0.30772199  0.06053467  0.06407310  1
  Zn  Zn132  1  0.31097844  0.06295205  0.56185531  1
  Zn  Zn133  1  0.30809829  0.56696778  0.06239360  1
  Zn  Zn134  1  0.30823159  0.56284918  0.56161466  1
  Zn  Zn135  1  0.80645520  0.05374931  0.07100463  1
  Zn  Zn136  1  0.81114147  0.06075220  0.56693265  1
  Zn  Zn137  1  0.80803288  0.55888549  0.05920734  1
  Zn  Zn138  1  0.81533225  0.55886176  0.56394970  1
  Zn  Zn139  1  0.43725426  0.43491953  0.19003067  1
  Zn  Zn140  1  0.43613416  0.43622323  0.68708448  1
  Zn  Zn141  1  0.44414240  0.94236868  0.18735095  1
  Zn  Zn142  1  0.43787525  0.93795168  0.68411718  1
  Zn  Zn143  1  0.93632302  0.43725681  0.18730954  1
  Zn  Zn144  1  0.93971244  0.43666845  0.68554357  1
  Zn  Zn145  1  0.93688445  0.93044772  0.18267625  1
  Zn  Zn146  1  0.95275881  0.98068116  0.70726302  1
  Zn  Zn147  1  0.05998911  0.06057160  0.31472091  1
  Zn  Zn148  1  0.06477343  0.06479262  0.82081740  1
  Zn  Zn149  1  0.05677509  0.56267436  0.30982206  1
  Zn  Zn150  1  0.06126034  0.56037794  0.81246612  1
  Zn  Zn151  1  0.56461217  0.06139384  0.31589465  1
  Zn  Zn152  1  0.56392197  0.05783445  0.80832665  1
  Zn  Zn153  1  0.56060283  0.56565019  0.31555882  1
  Zn  Zn154  1  0.56528767  0.56897999  0.81405539  1
  Zn  Zn155  1  0.43690597  0.18932554  0.43195466  1
  Zn  Zn156  1  0.44168971  0.18740668  0.93581834  1
  Zn  Zn157  1  0.44070828  0.68858452  0.43829662  1
  Zn  Zn158  1  0.45894285  0.70562906  0.95430793  1
  Zn  Zn159  1  0.93420775  0.19245723  0.43273007  1
  Zn  Zn160  1  0.93940084  0.19096978  0.93722452  1
  Zn  Zn161  1  0.93990720  0.68796743  0.43328727  1
  Zn  Zn162  1  0.93723738  0.69195002  0.93481348  1
  Zn  Zn163  1  0.06043360  0.31461248  0.06383344  1
  Zn  Zn164  1  0.06239062  0.31466034  0.56052165  1
  Zn  Zn165  1  0.06041360  0.81283161  0.05849577  1
  Zn  Zn166  1  0.06026789  0.81459379  0.56333920  1
  Zn  Zn167  1  0.56460808  0.31203097  0.06133682  1
  Zn  Zn168  1  0.56103703  0.31079761  0.56247676  1
  Zn  Zn169  1  0.57477802  0.80566414  0.07004921  1
  Zn  Zn170  1  0.56516559  0.81120595  0.56331875  1
  O  O171  1  0.12395388  0.13050555  0.11157500  1
  O  O172  1  0.12351671  0.12096438  0.61320151  1
  O  O173  1  0.13256162  0.61703880  0.11669463  1
  O  O174  1  0.11730718  0.61734835  0.62771399  1
  O  O175  1  0.65200416  0.12560775  0.11111278  1
  O  O176  1  0.61785241  0.11310009  0.62835760  1
  O  O177  1  0.61174968  0.61270814  0.13031624  1
  O  O178  1  0.61762812  0.61383743  0.62107992  1
  O  O179  1  0.37781143  0.38026599  0.37995286  1
  O  O180  1  0.37947920  0.38070670  0.87886799  1
  O  O181  1  0.36953981  0.87140041  0.39287556  1
  O  O182  1  0.38445047  0.89075854  0.86459187  1
  O  O183  1  0.88025090  0.38239553  0.37961755  1
  O  O184  1  0.87422171  0.37204551  0.88935092  1
  O  O185  1  0.88483535  0.86461620  0.38990185  1
  O  O186  1  0.88553490  0.88619707  0.88534807  1
  O  O187  1  0.25682435  0.01122773  0.36704581  1
  O  O188  1  0.25832563  0.00256490  0.86738192  1
  O  O189  1  0.25718483  0.50331551  0.36759987  1
  O  O190  1  0.25566560  0.50652454  0.87050246  1
  O  O191  1  0.74361044  0.01229468  0.37027528  1
  O  O192  1  0.75172073  0.00104408  0.86332400  1
  O  O193  1  0.75967282  0.49167941  0.36405367  1
  O  O194  1  0.75707771  0.48936141  0.85770694  1
  O  O195  1  0.24264712  0.49525078  0.13195212  1
  O  O196  1  0.24121236  0.49847151  0.63380251  1
  O  O197  1  0.24124810  1.00384662  0.13167531  1
  O  O198  1  0.24454650  0.99193753  0.62848275  1
  O  O199  1  0.73948577  0.49165636  0.13657020  1
  O  O200  1  0.74652703  0.48958210  0.63094497  1
  O  O201  1  0.75335856  0.98931767  0.14552139  1
  O  O202  1  0.74416732  0.99443652  0.63575114  1
  O  O203  1  0.00569216  0.36942507  0.25441127  1
  O  O204  1  0.01529708  0.37860528  0.75094683  1
  O  O205  1  0.00225651  0.86719577  0.25825009  1
  O  O206  1  0.00617146  0.88472167  0.76301463  1
  O  O207  1  0.51062201  0.36465788  0.24957570  1
  O  O208  1  0.50471527  0.36936794  0.75378236  1
  O  O209  1  0.49393118  0.86209190  0.25326149  1
  O  O210  1  0.49667524  0.86713802  0.75147756  1
  O  O211  1  0.49701031  0.13373256  0.24156604  1
  O  O212  1  0.48991529  0.12753329  0.74106913  1
  O  O213  1  0.48905027  0.62854169  0.24332166  1
  O  O214  1  0.49337182  0.63208247  0.74487014  1
  O  O215  1  0.98853279  0.13354606  0.26239099  1
  O  O216  1  0.99027088  0.08553610  0.74244919  1
  O  O217  1  0.98631459  0.63472816  0.25164125  1
  O  O218  1  0.99069042  0.62561366  0.73969633  1
  O  O219  1  0.37042142  0.25535484  0.00317414  1
  O  O220  1  0.36800540  0.25389159  0.50282548  1
  O  O221  1  0.36699154  0.74479888  0.01398695  1
  O  O222  1  0.37785503  0.75863828  0.51164249  1
  O  O223  1  0.87809120  0.26323042  0.00492153  1
  O  O224  1  0.87113809  0.26375239  0.50472923  1
  O  O225  1  0.87707848  0.76651507  -0.00271399  1
  O  O226  1  0.87049847  0.75414391  0.50686494  1
  O  O227  1  0.13394487  0.23950617  0.50438735  1
  O  O228  1  0.12802131  0.24715389  0.99333872  1
  O  O229  1  0.11607293  0.75282513  0.48285035  1
  O  O230  1  0.13318970  0.74462146  0.99639125  1
  O  O231  1  0.62874856  0.25735964  0.48481437  1
  O  O232  1  0.62095323  0.25507635  0.98345763  1
  O  O233  1  0.63421636  0.74405335  0.49864661  1
  O  O234  1  0.56874705  0.73605041  0.98618022  1
  O  O235  1  0.49916797  0.24606327  0.13214088  1
  O  O236  1  0.49717403  0.24042715  0.63016156  1
  O  O237  1  0.49099389  0.74114531  0.13696828  1
  O  O238  1  0.49030462  0.74570973  0.62932113  1
  O  O239  1  0.99723084  0.25472983  0.14009874  1
  O  O240  1  0.98716092  0.25072091  0.61943154  1
  O  O241  1  0.99574180  0.75621882  0.13665273  1
  O  O242  1  0.99278359  0.74365375  0.62587102  1
  O  O243  1  -0.00586231  0.26595669  0.36212109  1
  O  O244  1  0.01478885  0.25437258  0.87682937  1
  O  O245  1  0.00574796  0.75821035  0.36490412  1
  O  O246  1  0.00746265  0.76350373  0.87144828  1
  O  O247  1  0.51082857  0.24842189  0.36316097  1
  O  O248  1  0.50486295  0.25727036  0.86748682  1
  O  O249  1  0.50418609  0.75456630  0.36908105  1
  O  O250  1  0.48292205  0.77081899  0.86080609  1
  O  O251  1  0.24328931  0.12946042  0.49099449  1
  O  O252  1  0.23976959  0.13371196  0.99803387  1
  O  O253  1  0.24399529  0.62734589  0.49848908  1
  O  O254  1  0.24111535  0.63389667  0.99401348  1
  O  O255  1  0.75869140  0.12433373  0.48445824  1
  O  O256  1  0.70036967  0.11726765  1.04791664  1
  O  O257  1  0.75177575  0.63629409  0.50851670  1
  O  O258  1  0.74978901  0.63382384  1.00299873  1
  O  O259  1  0.25428830  0.37091463  0.00513694  1
  O  O260  1  0.25445508  0.36444049  0.49880895  1
  O  O261  1  0.24337186  0.86199340  -0.00325932  1
  O  O262  1  0.25266444  0.87863654  0.51070439  1
  O  O263  1  0.76231116  0.38344246  0.01024617  1
  O  O264  1  0.75853545  0.37425112  0.51005063  1
  O  O265  1  0.76269754  0.88156762  -0.00940600  1
  O  O266  1  0.75972198  0.86711277  0.50925580  1
  O  O267  1  0.12892621  0.49516785  0.24335538  1
  O  O268  1  0.13106448  0.49237223  0.74323692  1
  O  O269  1  0.11740997  0.98255837  0.25102494  1
  O  O270  1  0.13451193  0.99488406  0.74463371  1
  O  O271  1  0.62903501  0.49303354  0.24601540  1
  O  O272  1  0.63326057  0.49361111  0.74243789  1
  O  O273  1  0.63180903  0.99999046  0.24595164  1
  O  O274  1  0.64071439  1.00017802  0.74246517  1
  O  O275  1  0.37660974  0.01471712  0.24833037  1
  O  O276  1  0.37215224  0.00828260  0.75290870  1
  O  O277  1  0.36999972  0.50579949  0.25440616  1
  O  O278  1  0.36983797  0.50505808  0.75516087  1
  O  O279  1  0.88561759  0.01018754  0.25051541  1
  O  O280  1  0.85440833  -0.00994533  0.76230808  1
  O  O281  1  0.86727080  0.50728667  0.25367175  1
  O  O282  1  0.86868603  0.50736944  0.74621593  1
  O  O283  1  0.11552142  0.38580599  0.36249157  1
  O  O284  1  0.12608283  0.36775594  0.86693258  1
  O  O285  1  0.11476848  0.86528398  0.36797797  1
  O  O286  1  0.11957528  0.87326785  0.87067028  1
  O  O287  1  0.62714551  0.36649346  0.36319136  1
  O  O288  1  0.61822250  0.37059828  0.86794897  1
  O  O289  1  0.62393950  0.85608645  0.38762496  1
  O  O290  1  0.60427281  0.88390612  0.87147391  1
  O  O291  1  0.37170640  0.13455355  0.13526150  1
  O  O292  1  0.38245572  0.12716179  0.63091391  1
  O  O293  1  0.38016666  0.62606112  0.13755267  1
  O  O294  1  0.37877637  0.63142543  0.63076874  1
  O  O295  1  0.86849137  0.12426626  0.14220857  1
  O  O296  1  0.87188258  0.14364069  0.61754602  1
  O  O297  1  0.86372671  0.63292082  0.13626233  1
  O  O298  1  0.88303687  0.63082443  0.62869257  1
  O  O299  1  0.25641899  0.25870476  0.11885146  1
  O  O300  1  0.25802336  0.24827377  0.61040555  1
  O  O301  1  0.26016992  0.74533173  0.11775238  1
  O  O302  1  0.25914324  0.75984322  0.63143810  1
  O  O303  1  0.75346627  0.26627525  0.13488017  1
  O  O304  1  0.75687398  0.25930089  0.62259126  1
  O  O305  1  0.72091404  0.75996097  0.11672231  1
  O  O306  1  0.75730666  0.75529194  0.61816894  1
  O  O307  1  0.25497948  0.23987521  0.38590975  1
  O  O308  1  0.24085857  0.24933586  0.88188020  1
  O  O309  1  0.22975023  0.74764712  0.36776898  1
  O  O310  1  0.24869784  0.74730755  0.88200382  1
  O  O311  1  0.74452655  0.24064245  0.37270995  1
  O  O312  1  0.73400244  0.25080700  0.86930243  1
  O  O313  1  0.74235165  0.75177728  0.38846726  1
  O  O314  1  0.75045926  0.75727017  0.85729719  1
  O  O315  1  0.00790472  0.11716256  -0.00513170  1
  O  O316  1  0.00833551  0.11746772  0.48661260  1
  O  O317  1  0.01637906  0.62943638  -0.00579693  1
  O  O318  1  0.00338283  0.62907087  0.51233222  1
  O  O319  1  0.49859130  0.11456451  0.00241639  1
  O  O320  1  0.49301643  0.12832769  0.51184649  1
  O  O321  1  0.48630997  0.60990324  0.01946637  1
  O  O322  1  0.49802808  0.61583412  0.50863714  1
  O  O323  1  0.49313405  0.38003168  0.49833404  1
  O  O324  1  0.49169058  0.37978613  0.99599615  1
  O  O325  1  0.48656932  0.87250990  0.50153429  1
  O  O326  1  0.49523138  0.88760305  0.98602531  1
  O  O327  1  0.99179120  0.37117975  0.48815922  1
  O  O328  1  0.98577858  0.37872343  1.00221146  1
  O  O329  1  0.99314869  0.88076179  0.49392933  1
  O  O330  1  0.99851857  0.88443181  0.98933048  1
  O  O331  1  0.49357510  0.49668667  0.38078389  1
  O  O332  1  0.49390780  0.49434121  0.88112735  1
  O  O333  1  0.49509648  0.99875213  0.37312621  1
  O  O334  1  0.49263888  0.99483470  0.87926192  1
  O  O335  1  0.98665522  0.48732815  0.36460422  1
  O  O336  1  0.99626315  0.49589534  0.87982182  1
  O  O337  1  1.00489087  0.98593702  0.38727773  1
  O  O338  1  0.99120220  0.99461994  0.88668121  1
  O  O339  1  0.00503153  -0.00742841  0.11016487  1
  O  O340  1  0.00921006  -0.00472721  0.60641474  1
  O  O341  1  0.01420097  0.49786526  0.12575115  1
  O  O342  1  0.01011479  0.50839427  0.62886668  1
  O  O343  1  0.49713493  0.00287894  0.10866621  1
  O  O344  1  0.51583612  0.00471589  0.62950506  1
  O  O345  1  0.50592347  0.50286061  0.12557468  1
  O  O346  1  0.50420404  0.50322528  0.62070958  1
  O  O347  1  0.24219615  0.37881447  0.24653940  1
  O  O348  1  0.24060726  0.38132608  0.74734496  1
  O  O349  1  0.23191444  0.87329323  0.25853339  1
  O  O350  1  0.24675794  0.88054675  0.73931722  1
  O  O351  1  0.74390221  0.38356202  0.24434574  1
  O  O352  1  0.74750552  0.38119367  0.73829211  1
  O  O353  1  0.75451206  0.89173013  0.26825144  1
  O  O354  1  0.74935594  0.87278571  0.73725663  1
  O  O355  1  0.25898197  0.13301994  0.25798750  1
  O  O356  1  0.26240319  0.11905516  0.74649389  1
  O  O357  1  0.25976408  0.62126197  0.25261776  1
  O  O358  1  0.25616564  0.62111469  0.75680003  1
  O  O359  1  0.76272413  0.10820338  0.25856363  1
  O  O360  1  0.75265136  0.11552438  0.74529238  1
  O  O361  1  0.75532719  0.61308577  0.24906064  1
  O  O362  1  0.76227211  0.61349778  0.73969364  1
  O  O363  1  0.36782112  0.12740569  0.36259888  1
  O  O364  1  0.37540392  0.11909458  0.86241709  1
  O  O365  1  0.37671914  0.62057689  0.36474647  1
  O  O366  1  0.37151863  0.61953152  0.87000888  1
  O  O367  1  0.86192642  0.13012081  0.36283000  1
  O  O368  1  0.87412873  0.11290574  0.88486338  1
  O  O369  1  0.87928669  0.61310435  0.36730383  1
  O  O370  1  0.87316267  0.62740357  0.85994625  1
  O  O371  1  0.13057890  0.38445607  0.13340261  1
  O  O372  1  0.12645549  0.38066491  0.63174347  1
  O  O373  1  0.11915530  0.87081662  0.14158757  1
  O  O374  1  0.13151957  0.87947475  0.62852359  1
  O  O375  1  0.63039950  0.38041792  0.13472081  1
  O  O376  1  0.63344987  0.37662661  0.62935941  1
  O  O377  1  0.67456081  0.83005071  0.12201181  1
  O  O378  1  0.63519861  0.88647441  0.61982406  1
  O  O379  1  0.11863470  0.26374319  0.24505466  1
  O  O380  1  0.13264195  0.25696459  0.75657648  1
  O  O381  1  0.11427509  0.75767019  0.25611042  1
  O  O382  1  0.12476507  0.75875013  0.75673508  1
  O  O383  1  0.62173345  0.25554671  0.25444443  1
  O  O384  1  0.61873750  0.25645854  0.75507989  1
  O  O385  1  0.61020690  0.74237170  0.26203148  1
  O  O386  1  0.60790936  0.74396314  0.73907306  1
  O  O387  1  0.38597799  0.24583776  0.24521847  1
  O  O388  1  0.37869765  0.24201682  0.74412587  1
  O  O389  1  0.37901700  0.74174259  0.24672627  1
  O  O390  1  0.38172582  0.74610580  0.73763740  1
  O  O391  1  0.88173287  0.24202744  0.24601960  1
  O  O392  1  0.87322084  0.25799450  0.73228333  1
  O  O393  1  0.87665585  0.74300920  0.24716297  1
  O  O394  1  0.88019734  0.74193268  0.73593322  1
  O  O395  1  0.37911687  0.49326470  0.49552104  1
  O  O396  1  0.37636930  0.49327126  0.99590682  1
  O  O397  1  0.37142698  0.98473175  0.50253128  1
  O  O398  1  0.38009534  1.00972236  0.98577761  1
  O  O399  1  0.86941814  0.48853223  0.48987259  1
  O  O400  1  0.87771412  0.48996978  0.99985573  1
  O  O401  1  0.88243846  0.98809603  0.50853920  1
  O  O402  1  0.87788780  0.99389812  0.99644666  1
  O  O403  1  0.11664067  0.01158902  -0.00204792  1
  O  O404  1  0.11984497  0.00920766  0.50202678  1
  O  O405  1  0.12649766  0.50938633  0.00891927  1
  O  O406  1  0.12964289  0.49703478  0.51562105  1
  O  O407  1  0.60701606  -0.00107655  -0.00373243  1
  O  O408  1  0.63593911  0.00059500  0.51678343  1
  O  O409  1  0.61757113  0.48985772  0.01663414  1
  O  O410  1  0.61904404  0.49713697  0.50507112  1
  O  O411  1  0.37028155  0.36954454  0.12028945  1
  O  O412  1  0.37305602  0.36637666  0.61809950  1
  O  O413  1  0.37737856  0.86298039  0.13384547  1
  O  O414  1  0.36775163  0.86924177  0.61541600  1
  O  O415  1  0.86754087  0.37729868  0.11628068  1
  O  O416  1  0.87065838  0.37016194  0.61664408  1
  O  O417  1  0.87358487  0.87185302  0.10734159  1
  O  O418  1  0.86753933  0.86295530  0.61628075  1
  O  O419  1  0.13584999  0.11986011  0.38226717  1
  O  O420  1  0.12874297  0.13499412  0.88324319  1
  O  O421  1  0.11770927  0.63832569  0.37422673  1
  O  O422  1  0.13253714  0.63214987  0.88074490  1
  O  O423  1  0.64196400  0.13529201  0.36426108  1
  O  O424  1  0.61770687  0.13912999  0.86860729  1
  O  O425  1  0.61888855  0.63875256  0.38031430  1
  O  O426  1  0.64084702  0.60549605  0.88463899  1
