# generated using pymatgen
data_V85Zn86O256
_symmetry_space_group_name_H-M   'P 1'
_cell_length_a   16.98115600
_cell_length_b   16.98825230
_cell_length_c   16.99410342
_cell_angle_alpha   90.03873770
_cell_angle_beta   89.90930790
_cell_angle_gamma   90.13929706
_symmetry_Int_Tables_number   1
_chemical_formula_structural   V85Zn86O256
_chemical_formula_sum   'V85 Zn86 O256'
_cell_volume   4902.43997664
_cell_formula_units_Z   1
loop_
 _symmetry_equiv_pos_site_id
 _symmetry_equiv_pos_as_xyz
  1  'x, y, z'
loop_
 _atom_site_type_symbol
 _atom_site_label
 _atom_site_symmetry_multiplicity
 _atom_site_fract_x
 _atom_site_fract_y
 _atom_site_fract_z
 _atom_site_occupancy
  V  V0  1  0.62245511  0.37194520  0.75071308  1
  V  V1  1  0.25076956  0.25234064  0.49939532  1
  V  V2  1  0.37604492  0.50503233  0.87069331  1
  V  V3  1  0.49480734  -0.00138655  0.49946645  1
  V  V4  1  0.88265289  0.14680622  0.75632548  1
  V  V5  1  0.12098049  0.00000470  0.62593466  1
  V  V6  1  0.24681171  0.87393514  0.62607416  1
  V  V7  1  0.75524747  0.12914863  0.87499424  1
  V  V8  1  0.12172517  0.25187247  0.86933432  1
  V  V9  1  0.62541864  0.12796771  0.49930106  1
  V  V10  1  0.63039369  0.25060740  0.37834887  1
  V  V11  1  0.87467125  -0.00365062  0.37951194  1
  V  V12  1  0.12851549  0.87600423  0.25183818  1
  V  V13  1  0.12541780  0.62446227  0.00059556  1
  V  V14  1  0.75207278  0.61184009  0.37340997  1
  V  V15  1  0.50093460  -0.00261378  -0.00341486  1
  V  V16  1  0.62485320  0.50165481  0.62308990  1
  V  V17  1  0.49564869  0.87877145  0.37639037  1
  V  V18  1  0.49937679  0.37382698  0.37422220  1
  V  V19  1  -0.00175318  0.74677320  0.25160077  1
  V  V20  1  -0.00008779  0.37312822  0.86739698  1
  V  V21  1  0.00206972  0.12248550  0.12413841  1
  V  V22  1  0.12627415  -0.00195809  0.12589514  1
  V  V23  1  0.87672579  0.12339057  0.24935768  1
  V  V24  1  0.25003824  0.75182324  -0.00182963  1
  V  V25  1  0.51700836  0.51021674  -0.00993668  1
  V  V26  1  0.74941592  0.75022768  0.00086771  1
  V  V27  1  -0.00184386  0.87434946  0.37891762  1
  V  V28  1  0.88355230  0.62469507  0.74568021  1
  V  V29  1  0.11595034  0.74932786  0.87222755  1
  V  V30  1  0.49942470  0.63338692  0.63290359  1
  V  V31  1  -0.00733414  -0.00023425  0.50150799  1
  V  V32  1  0.38017960  0.75077002  0.63623079  1
  V  V33  1  0.25029475  0.50148149  0.74731388  1
  V  V34  1  0.62628101  0.13062275  -0.00028346  1
  V  V35  1  0.87607795  0.75759605  0.62018420  1
  V  V36  1  0.25124391  0.87780697  0.12711986  1
  V  V37  1  0.37318854  0.25312625  0.62358305  1
  V  V38  1  0.75244047  0.76438539  0.50066158  1
  V  V39  1  0.00497599  0.62234562  0.61352871  1
  V  V40  1  0.62952286  0.62631296  0.49529903  1
  V  V41  1  0.37157220  0.87916951  0.49653781  1
  V  V42  1  0.14201342  0.49664640  0.12797363  1
  V  V43  1  0.62625169  0.87336040  0.25258590  1
  V  V44  1  -0.00134136  0.14053187  0.62965521  1
  V  V45  1  0.37860759  0.87379561  -0.00205129  1
  V  V46  1  0.50164590  0.24963091  0.25259098  1
  V  V47  1  -0.00699372  0.49196464  0.49118791  1
  V  V48  1  0.24490571  0.00134197  0.75147325  1
  V  V49  1  0.24633035  0.74241688  0.50188239  1
  V  V50  1  0.11487670  0.87289588  0.75160771  1
  V  V51  1  0.12766537  0.25054615  0.37140496  1
  V  V52  1  0.37284359  0.10803330  0.25365749  1
  V  V53  1  0.25447987  0.62843898  0.86807486  1
  V  V54  1  0.14472944  0.37740895  0.24680340  1
  V  V55  1  0.49935564  0.12429846  0.12727181  1
  V  V56  1  0.37105188  0.12588763  0.74933374  1
  V  V57  1  0.24801501  0.12437279  0.87801393  1
  V  V58  1  0.49493721  0.74889066  0.24894865  1
  V  V59  1  0.25371761  0.10788586  0.37232900  1
  V  V60  1  0.86706283  0.25710505  0.12481907  1
  V  V61  1  0.87199336  0.61617097  0.25368118  1
  V  V62  1  0.74427951  0.62467580  0.87940446  1
  V  V63  1  -0.01418664  -0.00356949  0.00147404  1
  V  V64  1  0.75754665  0.87235440  0.12269418  1
  V  V65  1  0.62231850  0.75918355  0.86357303  1
  V  V66  1  0.12369782  0.74018770  0.37989579  1
  V  V67  1  0.62690635  -0.00032417  0.12647592  1
  V  V68  1  0.75121349  0.49980806  0.74625959  1
  V  V69  1  0.75373364  0.35949018  0.61782246  1
  V  V70  1  0.62695879  0.49628246  0.13688800  1
  V  V71  1  0.26393920  0.62492932  0.36382780  1
  V  V72  1  0.49841402  0.12333076  0.62640747  1
  V  V73  1  -0.00329299  0.87804173  0.88255391  1
  V  V74  1  0.50245540  0.63167690  0.11711583  1
  V  V75  1  0.49410931  0.50215436  0.49635265  1
  V  V76  1  0.25315494  0.25889712  0.00442430  1
  V  V77  1  0.75123567  -0.00030105  0.25319636  1
  V  V78  1  0.87588378  0.50091068  0.87636379  1
  V  V79  1  0.12425597  0.12375089  0.49973846  1
  V  V80  1  0.00609035  0.25131305  0.24471083  1
  V  V81  1  -0.00050143  0.62340534  0.12723744  1
  V  V82  1  0.00044918  0.49700126  0.00193365  1
  V  V83  1  0.64915195  -0.00437036  0.63243261  1
  V  V84  1  0.82128456  -0.04736815  0.82081929  1
  Zn  Zn85  1  0.87549249  0.33106992  0.51261526  1
  Zn  Zn86  1  0.86861340  0.37796849  0.00403059  1
  Zn  Zn87  1  0.36729587  0.25111501  0.13015749  1
  Zn  Zn88  1  0.12860688  0.50140336  0.61813840  1
  Zn  Zn89  1  0.87669443  0.74986408  0.12071181  1
  Zn  Zn90  1  0.62168216  0.24960477  0.87428347  1
  Zn  Zn91  1  0.33632659  0.47176082  0.32637847  1
  Zn  Zn92  1  0.37150376  0.74434658  0.12952161  1
  Zn  Zn93  1  0.37114935  0.38152048  0.49647061  1
  Zn  Zn94  1  -0.01044255  0.37855000  0.37245723  1
  Zn  Zn95  1  0.12520294  0.12446460  0.00070347  1
  Zn  Zn96  1  0.37597936  -0.00100253  0.87229463  1
  Zn  Zn97  1  0.73798834  0.26314499  0.00716959  1
  Zn  Zn98  1  0.49582901  0.37018937  0.87207740  1
  Zn  Zn99  1  0.49766013  0.25021819  0.75211079  1
  Zn  Zn100  1  0.50187816  0.87478651  0.85573776  1
  Zn  Zn101  1  0.24943447  0.37991436  0.62525851  1
  Zn  Zn102  1  0.37413659  0.38451570  0.00027941  1
  Zn  Zn103  1  0.12227685  0.37472366  0.74477821  1
  Zn  Zn104  1  0.62660960  0.75132855  0.37803295  1
  Zn  Zn105  1  0.75550712  0.47446354  0.24593877  1
  Zn  Zn106  1  0.75385830  0.12724803  0.37779162  1
  Zn  Zn107  1  0.19199145  0.18215307  0.18883831  1
  Zn  Zn108  1  0.18503506  0.18792741  0.68722071  1
  Zn  Zn109  1  0.18669841  0.68773015  0.18794186  1
  Zn  Zn110  1  0.18599590  0.69003565  0.68867922  1
  Zn  Zn111  1  0.68692774  0.18994818  0.19340876  1
  Zn  Zn112  1  0.68671215  0.17994961  0.69268220  1
  Zn  Zn113  1  0.68380257  0.68219359  0.18697635  1
  Zn  Zn114  1  0.69293984  0.68602813  0.68385900  1
  Zn  Zn115  1  0.31879632  0.29781070  0.31509929  1
  Zn  Zn116  1  0.31137850  0.31657252  0.81414982  1
  Zn  Zn117  1  0.31129201  0.81161462  0.31435743  1
  Zn  Zn118  1  0.30886924  0.81715796  0.81401501  1
  Zn  Zn119  1  0.81449168  0.32356802  0.32182855  1
  Zn  Zn120  1  0.80847440  0.31522532  0.81872521  1
  Zn  Zn121  1  0.81406004  0.80712596  0.31421949  1
  Zn  Zn122  1  0.81249054  0.79536338  0.80705590  1
  Zn  Zn123  1  0.17885678  0.44287214  0.43726622  1
  Zn  Zn124  1  0.18691684  0.43868322  0.93495493  1
  Zn  Zn125  1  0.18096398  0.93227031  0.44171903  1
  Zn  Zn126  1  0.18377747  0.93802106  0.94058443  1
  Zn  Zn127  1  0.68562365  0.43569370  0.43665063  1
  Zn  Zn128  1  0.68898399  0.43482915  0.93718748  1
  Zn  Zn129  1  0.68296322  0.94316357  0.44352413  1
  Zn  Zn130  1  0.68593516  0.93572722  0.94155244  1
  Zn  Zn131  1  0.31462514  0.06348351  0.06376219  1
  Zn  Zn132  1  0.30877070  0.06330456  0.56225474  1
  Zn  Zn133  1  0.31979263  0.56838931  0.05733810  1
  Zn  Zn134  1  0.31562081  0.56894129  0.56266458  1
  Zn  Zn135  1  0.80923877  0.06707900  0.06612605  1
  Zn  Zn136  1  0.81890982  0.12136403  0.56051077  1
  Zn  Zn137  1  0.80994304  0.56329972  0.06557521  1
  Zn  Zn138  1  0.81651724  0.55970974  0.56039479  1
  Zn  Zn139  1  0.43086973  0.43550008  0.17579832  1
  Zn  Zn140  1  0.43659229  0.44316832  0.68554016  1
  Zn  Zn141  1  0.43981183  0.93314922  0.18359487  1
  Zn  Zn142  1  0.43102964  0.94128829  0.68455294  1
  Zn  Zn143  1  0.94480693  0.43655275  0.18961987  1
  Zn  Zn144  1  0.93527238  0.43688100  0.68198734  1
  Zn  Zn145  1  0.94003956  0.93581866  0.19198043  1
  Zn  Zn146  1  0.93606829  0.94320508  0.68488106  1
  Zn  Zn147  1  0.06427565  0.06290917  0.31324825  1
  Zn  Zn148  1  0.05828387  0.06282138  0.81551580  1
  Zn  Zn149  1  0.06561464  0.55849482  0.31165339  1
  Zn  Zn150  1  0.06475265  0.56041320  0.80999977  1
  Zn  Zn151  1  0.56064522  0.06247004  0.31342744  1
  Zn  Zn152  1  0.56602999  0.06018490  0.81025000  1
  Zn  Zn153  1  0.51321948  0.54351853  0.28926576  1
  Zn  Zn154  1  0.56701694  0.56639308  0.80920233  1
  Zn  Zn155  1  0.43536718  0.18415422  0.43590847  1
  Zn  Zn156  1  0.43727654  0.18627382  0.93557844  1
  Zn  Zn157  1  0.43959450  0.69399856  0.44366600  1
  Zn  Zn158  1  0.43999572  0.68950489  0.93334808  1
  Zn  Zn159  1  0.93239092  0.19703987  0.42945849  1
  Zn  Zn160  1  0.94062039  0.18646395  0.94207145  1
  Zn  Zn161  1  0.93335923  0.68349947  0.43770706  1
  Zn  Zn162  1  0.93346027  0.68592943  0.94001486  1
  Zn  Zn163  1  0.06924120  0.31535076  0.06082276  1
  Zn  Zn164  1  0.06916457  0.31990621  0.55997893  1
  Zn  Zn165  1  0.06148205  0.81114900  0.06211733  1
  Zn  Zn166  1  0.05836790  0.81141310  0.56169089  1
  Zn  Zn167  1  0.53439500  0.32899379  0.07368284  1
  Zn  Zn168  1  0.56218589  0.31484483  0.56216479  1
  Zn  Zn169  1  0.57086579  0.80912217  0.05825262  1
  Zn  Zn170  1  0.56923972  0.82111816  0.68058756  1
  O  O171  1  0.12172793  0.11187718  0.12766956  1
  O  O172  1  0.11826912  0.11858195  0.62198650  1
  O  O173  1  0.12034998  0.61716484  0.12119873  1
  O  O174  1  0.10665202  0.62890849  0.63098124  1
  O  O175  1  0.62219005  0.11791921  0.11908751  1
  O  O176  1  0.61291276  0.12507969  0.61677945  1
  O  O177  1  0.61137877  0.61685031  0.12410342  1
  O  O178  1  0.62069037  0.62179909  0.61563173  1
  O  O179  1  0.38337432  0.37432873  0.37690591  1
  O  O180  1  0.37745994  0.38982758  0.87659156  1
  O  O181  1  0.38189741  0.87081327  0.38532784  1
  O  O182  1  0.37784996  0.87795101  0.88550893  1
  O  O183  1  0.89258009  0.32299118  0.39661594  1
  O  O184  1  0.88384142  0.38289039  0.87810358  1
  O  O185  1  0.88241953  0.88789685  0.36794949  1
  O  O186  1  0.88320388  0.87776203  0.86609169  1
  O  O187  1  0.24278475  0.00919449  0.38244458  1
  O  O188  1  0.24583897  0.00943478  0.87160285  1
  O  O189  1  0.24865190  0.51826215  0.38100032  1
  O  O190  1  0.25571474  0.50996293  0.86932161  1
  O  O191  1  0.75842733  -0.00033226  0.37164471  1
  O  O192  1  0.75845597  0.00857315  0.88432328  1
  O  O193  1  0.74007150  0.50846699  0.36521389  1
  O  O194  1  0.75448104  0.50695260  0.86463615  1
  O  O195  1  0.24077414  0.50694121  0.11631302  1
  O  O196  1  0.25247469  0.50535133  0.63388179  1
  O  O197  1  0.24090468  0.98722451  0.11858001  1
  O  O198  1  0.24061521  0.99460006  0.62992777  1
  O  O199  1  0.73212191  0.51220157  0.13243296  1
  O  O200  1  0.74575014  0.49739623  0.63459215  1
  O  O201  1  0.74663800  0.99198537  0.13256128  1
  O  O202  1  0.74395933  1.01919540  0.61539286  1
  O  O203  1  0.00975182  0.36200388  0.25326083  1
  O  O204  1  0.00030785  0.38520020  0.76418997  1
  O  O205  1  0.00921818  0.86704557  0.25739098  1
  O  O206  1  0.01013032  0.88390165  0.76163646  1
  O  O207  1  0.49795479  0.35826061  0.26247818  1
  O  O208  1  0.51073859  0.37749461  0.74750251  1
  O  O209  1  0.50870293  0.87319736  0.25661892  1
  O  O210  1  0.49722526  0.87874069  0.74498269  1
  O  O211  1  0.49233949  0.12739983  0.24752879  1
  O  O212  1  0.49117158  0.12440977  0.73998490  1
  O  O213  1  0.50708411  0.64515581  0.23988599  1
  O  O214  1  0.50535245  0.61995965  0.73120097  1
  O  O215  1  0.99889021  0.13110407  0.24306403  1
  O  O216  1  0.99114740  0.12650698  0.74803496  1
  O  O217  1  0.99351857  0.62702329  0.24781990  1
  O  O218  1  0.98883875  0.61594024  0.74005924  1
  O  O219  1  0.35881953  0.24692264  -0.00364728  1
  O  O220  1  0.36566700  0.24776082  0.50745741  1
  O  O221  1  0.37032060  0.76104898  -0.00188878  1
  O  O222  1  0.36562085  0.76244977  0.50812141  1
  O  O223  1  0.88009067  0.24820847  0.01968846  1
  O  O224  1  0.87093609  0.21549379  0.51893503  1
  O  O225  1  0.85791900  0.74637418  0.00138745  1
  O  O226  1  0.86421362  0.74589113  0.50841648  1
  O  O227  1  0.13220862  0.24485372  0.49025030  1
  O  O228  1  0.13718246  0.24795196  0.99098139  1
  O  O229  1  0.13438211  0.75903188  0.49026270  1
  O  O230  1  0.12978718  0.74564361  0.99106057  1
  O  O231  1  0.61164571  0.23921082  0.48880012  1
  O  O232  1  0.61800525  0.23516060  1.00322083  1
  O  O233  1  0.64586745  0.73752888  0.50349478  1
  O  O234  1  0.63972355  0.75207899  0.98403869  1
  O  O235  1  0.51075760  0.23706866  0.13945138  1
  O  O236  1  0.48922839  0.24013514  0.62286536  1
  O  O237  1  0.50294369  0.74862343  0.12964527  1
  O  O238  1  0.49407038  0.74526622  0.62512729  1
  O  O239  1  1.00362712  0.24318240  0.13200743  1
  O  O240  1  1.01195130  0.23811339  0.62245135  1
  O  O241  1  1.00117510  0.74188087  0.13177807  1
  O  O242  1  0.98645370  0.73483082  0.61140619  1
  O  O243  1  0.01946198  0.23625100  0.36020223  1
  O  O244  1  0.01055931  0.26145368  0.88654393  1
  O  O245  1  0.00613355  0.75283962  0.37451168  1
  O  O246  1  0.00835833  0.75905753  0.88355934  1
  O  O247  1  0.50250027  0.25498282  0.37162961  1
  O  O248  1  0.50291945  0.25178025  0.87010648  1
  O  O249  1  0.50322686  0.76246386  0.36920637  1
  O  O250  1  0.51935903  0.74955941  0.87518280  1
  O  O251  1  0.24458074  0.13240976  0.49339974  1
  O  O252  1  0.24810014  0.12920341  0.99040264  1
  O  O253  1  0.25209011  0.63923332  0.49344093  1
  O  O254  1  0.24383149  0.63220782  0.98928696  1
  O  O255  1  0.72856335  0.12023998  0.49343441  1
  O  O256  1  0.74101356  0.12724288  0.99453672  1
  O  O257  1  0.74531008  0.61850735  0.49099815  1
  O  O258  1  0.75380874  0.62924253  0.98548581  1
  O  O259  1  0.25188729  0.36208088  -0.00578915  1
  O  O260  1  0.24993341  0.36232316  0.49681591  1
  O  O261  1  0.25749186  0.87187806  0.00572073  1
  O  O262  1  0.25411626  0.86815001  0.50534457  1
  O  O263  1  0.75610894  0.37318808  -0.00221234  1
  O  O264  1  0.74728431  0.37723331  0.51611323  1
  O  O265  1  0.74550560  0.86856372  0.01466543  1
  O  O266  1  0.74786917  0.86237271  0.49429294  1
  O  O267  1  0.12302042  0.48868530  0.24047275  1
  O  O268  1  0.13821189  0.49950651  0.74754628  1
  O  O269  1  0.11673482  0.98601321  0.23963712  1
  O  O270  1  0.12611186  0.99306315  0.74578343  1
  O  O271  1  0.61056320  0.50068968  0.23626503  1
  O  O272  1  0.63430230  0.49378133  0.74414214  1
  O  O273  1  0.62960000  0.99187302  0.24748389  1
  O  O274  1  0.63153554  1.01751316  0.73081857  1
  O  O275  1  0.38082528  0.00860687  0.24580072  1
  O  O276  1  0.36189226  0.00787166  0.75071231  1
  O  O277  1  0.40807328  0.50818324  0.25193831  1
  O  O278  1  0.36629361  0.50092189  0.75998093  1
  O  O279  1  0.87248441  0.00471231  0.25847090  1
  O  O280  1  0.87951264  0.00959229  0.76033450  1
  O  O281  1  0.87407367  0.51140416  0.24291968  1
  O  O282  1  0.86687640  0.50512301  0.75427828  1
  O  O283  1  0.12276305  0.36285532  0.36589119  1
  O  O284  1  0.11671941  0.36924997  0.87403562  1
  O  O285  1  0.12030127  0.86608112  0.36751435  1
  O  O286  1  0.11697205  0.86824725  0.87112421  1
  O  O287  1  0.61457120  0.35730918  0.38468575  1
  O  O288  1  0.62502803  0.37476035  0.85978405  1
  O  O289  1  0.61635414  0.87602593  0.36814999  1
  O  O290  1  0.62623769  0.86340066  0.87449311  1
  O  O291  1  0.38136115  0.12732625  0.13340652  1
  O  O292  1  0.37860574  0.13285719  0.62841389  1
  O  O293  1  0.39331392  0.63049777  0.11765622  1
  O  O294  1  0.38844799  0.64042419  0.61477546  1
  O  O295  1  0.88314030  0.13241835  0.13138294  1
  O  O296  1  0.88578712  0.12182709  0.65052372  1
  O  O297  1  0.88156870  0.62751182  0.13406277  1
  O  O298  1  0.88500609  0.62783674  0.62939673  1
  O  O299  1  0.24771661  0.24387125  0.10795525  1
  O  O300  1  0.25663148  0.24656474  0.61452465  1
  O  O301  1  0.24921661  0.76004541  0.11725454  1
  O  O302  1  0.25287066  0.75424733  0.61804806  1
  O  O303  1  0.76469369  0.24318126  0.12614410  1
  O  O304  1  0.74266326  0.26084072  0.62846182  1
  O  O305  1  0.74567321  0.75559561  0.11761707  1
  O  O306  1  0.76385116  0.74323414  0.61106430  1
  O  O307  1  0.24275086  0.23964639  0.38269625  1
  O  O308  1  0.24375933  0.24237679  0.88318539  1
  O  O309  1  0.24328904  0.74369882  0.38243028  1
  O  O310  1  0.23927893  0.74602428  0.87825698  1
  O  O311  1  0.73119038  0.24544589  0.37528800  1
  O  O312  1  0.74464777  0.24062277  0.88337056  1
  O  O313  1  0.75227278  0.74126696  0.38929815  1
  O  O314  1  0.74422341  0.74318753  0.87997870  1
  O  O315  1  0.00557907  0.11414706  0.00661422  1
  O  O316  1  0.00834859  0.11603786  0.50839190  1
  O  O317  1  0.00545077  0.61631827  0.00434085  1
  O  O318  1  -0.00298917  0.61412064  0.50813922  1
  O  O319  1  0.50532087  0.11556774  0.00492779  1
  O  O320  1  0.50087060  0.11651676  0.50599010  1
  O  O321  1  0.50015924  0.61883096  0.00111933  1
  O  O322  1  0.51097065  0.62096738  0.50232460  1
  O  O323  1  0.49687403  0.38338082  0.49402009  1
  O  O324  1  0.50402452  0.40036227  0.98579240  1
  O  O325  1  0.48816435  0.88440741  0.49227915  1
  O  O326  1  0.49419313  0.88332174  1.00244680  1
  O  O327  1  0.99203384  0.38241563  0.50383540  1
  O  O328  1  0.99980072  0.38657786  0.99397956  1
  O  O329  1  1.00518080  0.89013767  0.49448339  1
  O  O330  1  1.00210470  0.88093369  0.99206686  1
  O  O331  1  0.51078233  0.48530133  0.38681863  1
  O  O332  1  0.49305080  0.51337522  0.87933782  1
  O  O333  1  0.50490895  0.99009769  0.38663180  1
  O  O334  1  0.50101763  0.99883780  0.88650046  1
  O  O335  1  1.00281714  0.49563426  0.38547891  1
  O  O336  1  0.99758330  0.49534337  0.88426750  1
  O  O337  1  0.99479545  0.99651001  0.38174124  1
  O  O338  1  1.00673739  0.98901754  0.88862083  1
  O  O339  1  0.00664333  0.00082275  0.12044117  1
  O  O340  1  0.00304377  0.00764982  0.61765507  1
  O  O341  1  0.00864941  0.50422695  0.11643039  1
  O  O342  1  -0.00093222  0.51093970  0.61752077  1
  O  O343  1  0.50675543  0.00401031  0.11607393  1
  O  O344  1  0.49615340  0.01255341  0.61518179  1
  O  O345  1  0.50875542  0.51089371  0.10400162  1
  O  O346  1  0.50479966  0.50884799  0.61459438  1
  O  O347  1  0.24567796  0.37326294  0.26023737  1
  O  O348  1  0.24909597  0.38958674  0.74978450  1
  O  O349  1  0.23910793  0.86659648  0.24052762  1
  O  O350  1  0.23601898  0.88177421  0.74657762  1
  O  O351  1  0.74667321  0.36533939  0.25215720  1
  O  O352  1  0.74373587  0.38278825  0.74234382  1
  O  O353  1  0.74164097  0.87769138  0.24718008  1
  O  O354  1  0.76459930  0.89374986  0.76456834  1
  O  O355  1  0.26044579  0.12714608  0.26009816  1
  O  O356  1  0.25086587  0.12107399  0.75881974  1
  O  O357  1  0.25344484  0.63508350  0.26433245  1
  O  O358  1  0.24290949  0.61960005  0.76134382  1
  O  O359  1  0.75715514  0.11658501  0.25291940  1
  O  O360  1  0.76584144  0.13146052  0.76374501  1
  O  O361  1  0.75791734  0.62992355  0.25965383  1
  O  O362  1  0.75958815  0.61517503  0.75339854  1
  O  O363  1  0.36552144  0.12600071  0.36702069  1
  O  O364  1  0.36313281  0.12253355  0.86866909  1
  O  O365  1  0.36324024  0.63431651  0.37838724  1
  O  O366  1  0.36181478  0.62270208  0.87762105  1
  O  O367  1  0.87551312  0.11459470  0.36515956  1
  O  O368  1  0.87055125  0.13147449  0.86817094  1
  O  O369  1  0.86495728  0.62525611  0.36579851  1
  O  O370  1  0.86889074  0.62137526  0.86441811  1
  O  O371  1  0.12594655  0.38369154  0.13493600  1
  O  O372  1  0.13289714  0.38010007  0.62982857  1
  O  O373  1  0.13148220  0.87809192  0.13190914  1
  O  O374  1  0.12483745  0.87721213  0.63415268  1
  O  O375  1  0.61597492  0.39870738  0.11377914  1
  O  O376  1  0.63332487  0.38079195  0.63138882  1
  O  O377  1  0.63306176  0.88023611  0.13502223  1
  O  O378  1  0.63549165  0.89541532  0.62390417  1
  O  O379  1  0.12543462  0.25627972  0.25224092  1
  O  O380  1  0.13324094  0.25391672  0.76553369  1
  O  O381  1  0.11847490  0.75729268  0.25876728  1
  O  O382  1  0.12675585  0.76103596  0.76165410  1
  O  O383  1  0.61259614  0.23617411  0.26878126  1
  O  O384  1  0.62142916  0.25962956  0.74904655  1
  O  O385  1  0.61905416  0.76299808  0.25220880  1
  O  O386  1  0.63657245  0.75574208  0.75705641  1
  O  O387  1  0.38671639  0.23630280  0.24767567  1
  O  O388  1  0.37143373  0.24514629  0.73900919  1
  O  O389  1  0.39027099  0.76540881  0.24518449  1
  O  O390  1  0.36333385  0.75637351  0.73460482  1
  O  O391  1  0.88942065  0.24261565  0.23808754  1
  O  O392  1  0.87912888  0.24548574  0.75583546  1
  O  O393  1  0.88303673  0.73854613  0.24948058  1
  O  O394  1  0.86894521  0.73516546  0.73148222  1
  O  O395  1  0.38900289  0.50219093  0.50149232  1
  O  O396  1  0.38135647  0.50348096  0.98458643  1
  O  O397  1  0.38022248  0.98995666  0.50684495  1
  O  O398  1  0.38448538  0.99209417  0.99940751  1
  O  O399  1  0.89112181  0.49869914  0.50143255  1
  O  O400  1  0.88622640  0.50306112  0.99674781  1
  O  O401  1  0.88574938  1.01342103  0.48877679  1
  O  O402  1  0.88660288  1.00358387  1.00804891  1
  O  O403  1  0.11650548  -0.00206005  0.01469059  1
  O  O404  1  0.11613821  0.00471905  0.50661481  1
  O  O405  1  0.11874853  0.50410792  0.00638653  1
  O  O406  1  0.10510999  0.49560949  0.50433217  1
  O  O407  1  0.61818734  0.00727060  0.00577301  1
  O  O408  1  0.61235372  0.00819294  0.51093599  1
  O  O409  1  0.61777127  0.51064126  -0.00990539  1
  O  O410  1  0.61765546  0.50755990  0.50504153  1
  O  O411  1  0.41005935  0.35510253  0.10543903  1
  O  O412  1  0.37229857  0.36403090  0.62122242  1
  O  O413  1  0.36647926  0.87427091  0.11477847  1
  O  O414  1  0.36561614  0.86980681  0.61560962  1
  O  O415  1  0.88417174  0.35920358  0.12704680  1
  O  O416  1  0.85805617  0.37365927  0.62556008  1
  O  O417  1  0.86117590  0.86985086  0.13840339  1
  O  O418  1  0.88537569  0.85586508  0.63081704  1
  O  O419  1  0.13459066  0.13051446  0.37744090  1
  O  O420  1  0.13213899  0.13273815  0.87613857  1
  O  O421  1  0.13273035  0.63741640  0.36978274  1
  O  O422  1  0.12928029  0.63314516  0.87926181  1
  O  O423  1  0.61874890  0.13263221  0.38451332  1
  O  O424  1  0.63601275  0.12259868  0.88348754  1
  O  O425  1  0.63507480  0.63067776  0.38697517  1
  O  O426  1  0.63936424  0.63796270  0.86247621  1
