# generated using pymatgen
data_V85Zn86O256
_symmetry_space_group_name_H-M   'P 1'
_cell_length_a   16.97938729
_cell_length_b   16.99148166
_cell_length_c   16.96328714
_cell_angle_alpha   89.90708570
_cell_angle_beta   90.08904505
_cell_angle_gamma   89.99866921
_symmetry_Int_Tables_number   1
_chemical_formula_structural   V85Zn86O256
_chemical_formula_sum   'V85 Zn86 O256'
_cell_volume   4893.97992333
_cell_formula_units_Z   1
loop_
 _symmetry_equiv_pos_site_id
 _symmetry_equiv_pos_as_xyz
  1  'x, y, z'
loop_
 _atom_site_type_symbol
 _atom_site_label
 _atom_site_symmetry_multiplicity
 _atom_site_fract_x
 _atom_site_fract_y
 _atom_site_fract_z
 _atom_site_occupancy
  V  V0  1  0.87692757  0.49356150  0.37968768  1
  V  V1  1  0.75155775  0.24937775  -0.00044461  1
  V  V2  1  0.36893945  0.25204328  0.61882078  1
  V  V3  1  0.12442626  0.87171167  0.24894455  1
  V  V4  1  0.12448673  0.36929035  0.75540834  1
  V  V5  1  0.49957095  0.87400629  0.37678373  1
  V  V6  1  0.12599814  0.62417674  0.50680775  1
  V  V7  1  0.87476000  0.37814262  -0.00020932  1
  V  V8  1  0.00341386  0.36922687  0.37655195  1
  V  V9  1  0.12600369  0.37059088  0.25556919  1
  V  V10  1  0.24708639  0.37618997  0.12387660  1
  V  V11  1  0.74455065  0.87740074  0.63704243  1
  V  V12  1  0.62606124  -0.00463942  0.12297834  1
  V  V13  1  -0.00057724  0.24922473  0.75734609  1
  V  V14  1  0.50218167  0.25189403  0.24922456  1
  V  V15  1  0.74930655  0.12725588  0.38081781  1
  V  V16  1  0.12372971  0.74997631  0.37935495  1
  V  V17  1  0.00669992  0.00074173  0.00594690  1
  V  V18  1  0.37622067  -0.00271007  0.37939282  1
  V  V19  1  0.62486722  0.49893394  0.12472811  1
  V  V20  1  -0.00106216  0.64386191  0.62980453  1
  V  V21  1  -0.00203703  -0.00116807  0.50224391  1
  V  V22  1  0.24459350  0.74778590  -0.00374176  1
  V  V23  1  0.61925710  0.76026387  0.87046199  1
  V  V24  1  0.50053470  0.50245425  0.50595411  1
  V  V25  1  0.50022550  0.12581843  0.62190241  1
  V  V26  1  0.38506518  0.88287624  -0.00412760  1
  V  V27  1  0.50070249  0.37600493  0.37540848  1
  V  V28  1  0.62611582  0.37571917  0.24940921  1
  V  V29  1  0.62958153  0.24948494  0.38158955  1
  V  V30  1  0.37414155  0.24857850  0.11359227  1
  V  V31  1  0.62674699  0.25298259  0.87165458  1
  V  V32  1  0.37645029  0.49921364  0.87399117  1
  V  V33  1  0.24597808  0.13064230  0.37974063  1
  V  V34  1  0.87287989  0.87063610  0.50653019  1
  V  V35  1  0.88413416  0.24713728  0.12566739  1
  V  V36  1  0.62667003  0.49380424  0.63214154  1
  V  V37  1  0.62584284  0.12226889  0.00149570  1
  V  V38  1  0.49983449  0.62360889  0.12394902  1
  V  V39  1  0.75170371  0.62368411  0.37767872  1
  V  V40  1  0.24330464  0.50086723  0.74612442  1
  V  V41  1  0.00630537  0.87314054  0.87139890  1
  V  V42  1  0.50078143  0.37257944  0.87352152  1
  V  V43  1  0.24861331  -0.00437460  0.74885539  1
  V  V44  1  0.87364671  -0.00164072  0.37491647  1
  V  V45  1  0.24903564  0.87671829  0.12803559  1
  V  V46  1  0.75043900  0.50024899  0.25108924  1
  V  V47  1  0.88121481  0.12461617  0.24507434  1
  V  V48  1  0.86641529  0.11997590  0.75191158  1
  V  V49  1  0.62420228  0.74918713  0.37695900  1
  V  V50  1  0.00978404  0.51207607  0.01180041  1
  V  V51  1  0.24567816  0.62554175  0.87753226  1
  V  V52  1  0.50155038  0.11913203  0.12415494  1
  V  V53  1  0.38308725  0.62536061  0.74248822  1
  V  V54  1  0.62583776  -0.00157008  0.64071686  1
  V  V55  1  0.37103451  0.75642679  0.61445258  1
  V  V56  1  0.12489709  0.00097506  0.62483117  1
  V  V57  1  -0.00405251  0.12379729  0.62570899  1
  V  V58  1  0.87021881  0.25085321  0.61489918  1
  V  V59  1  0.50084332  0.76623762  0.74839080  1
  V  V60  1  0.37224633  0.62738648  0.24888122  1
  V  V61  1  0.87921915  0.49903142  0.87375825  1
  V  V62  1  0.24839287  0.62851364  0.37778194  1
  V  V63  1  0.88980551  0.62981645  0.24891640  1
  V  V64  1  -0.00215615  0.86839085  0.37091545  1
  V  V65  1  0.62226445  0.62337394  -0.00183107  1
  V  V66  1  0.24376042  0.50323094  0.24378660  1
  V  V67  1  0.50364969  -0.00279682  0.49974442  1
  V  V68  1  0.87852411  0.63540477  0.74755730  1
  V  V69  1  0.37486704  0.74958593  0.12461085  1
  V  V70  1  0.50306361  0.25369947  0.74710702  1
  V  V71  1  0.74912819  0.62428817  0.87198562  1
  V  V72  1  0.36997188  0.12563144  0.74959794  1
  V  V73  1  0.23480932  0.13261544  0.87734904  1
  V  V74  1  0.75299423  0.36928758  0.61924391  1
  V  V75  1  0.86873983  -0.00650519  0.88060285  1
  V  V76  1  -0.00151147  0.49177088  0.51279829  1
  V  V77  1  0.37424481  0.37776050  0.49875061  1
  V  V78  1  0.74973065  -0.00375115  0.24893241  1
  V  V79  1  0.75225356  0.75004745  0.50633338  1
  V  V80  1  0.49943458  0.74839617  0.25004544  1
  V  V81  1  0.24262724  0.38029688  0.62448401  1
  V  V82  1  0.37608027  0.12394812  0.25113279  1
  V  V83  1  0.62309126  0.62408280  0.50865114  1
  V  V84  1  0.75593682  0.75281982  0.00633097  1
  Zn  Zn85  1  0.38182011  -0.00531750  0.87468586  1
  Zn  Zn86  1  0.24938469  0.00010797  0.24941182  1
  Zn  Zn87  1  0.37470999  0.50130218  0.37418298  1
  Zn  Zn88  1  0.74745386  0.49246416  0.75181493  1
  Zn  Zn89  1  0.62712922  0.86995224  0.24645170  1
  Zn  Zn90  1  0.76943710  0.87512199  0.11927528  1
  Zn  Zn91  1  0.00843543  0.24300181  0.25275617  1
  Zn  Zn92  1  0.22343530  0.25924029  -0.01527402  1
  Zn  Zn93  1  0.25060295  0.87433230  0.60241920  1
  Zn  Zn94  1  0.11703263  0.13122432  0.49390166  1
  Zn  Zn95  1  0.09142589  0.15768777  0.03941080  1
  Zn  Zn96  1  0.49974037  0.49684391  -0.00011065  1
  Zn  Zn97  1  0.75015496  0.37517715  0.12690474  1
  Zn  Zn98  1  0.12282322  0.00599586  0.12924243  1
  Zn  Zn99  1  0.63039141  0.12770022  0.50411848  1
  Zn  Zn100  1  0.01075252  0.36929405  0.88248580  1
  Zn  Zn101  1  0.74463889  0.11543710  0.86882070  1
  Zn  Zn102  1  0.90499229  0.74293760  0.12274505  1
  Zn  Zn103  1  0.37184235  0.37093451  -0.00340089  1
  Zn  Zn104  1  0.22446974  0.27151168  0.47943449  1
  Zn  Zn105  1  0.11906357  0.86475794  0.74106893  1
  Zn  Zn106  1  0.11472136  0.73955263  0.86743229  1
  Zn  Zn107  1  0.19226620  0.19182113  0.19167276  1
  Zn  Zn108  1  0.18378522  0.18818220  0.68417799  1
  Zn  Zn109  1  0.17967077  0.69477445  0.18686296  1
  Zn  Zn110  1  0.19094944  0.68906867  0.68838003  1
  Zn  Zn111  1  0.69220401  0.18756417  0.18946305  1
  Zn  Zn112  1  0.68700335  0.18791962  0.68523086  1
  Zn  Zn113  1  0.68775288  0.68175163  0.19022853  1
  Zn  Zn114  1  0.68603074  0.68808903  0.68995660  1
  Zn  Zn115  1  0.31635219  0.31328246  0.30808338  1
  Zn  Zn116  1  0.31250827  0.31003784  0.81003051  1
  Zn  Zn117  1  0.31473441  0.81154126  0.43214256  1
  Zn  Zn118  1  0.31536614  0.81079600  0.81187586  1
  Zn  Zn119  1  0.81391813  0.31159241  0.31315741  1
  Zn  Zn120  1  0.81045284  0.31329637  0.80506984  1
  Zn  Zn121  1  0.81253524  0.81029243  0.31352289  1
  Zn  Zn122  1  0.81364094  0.81202544  0.81881103  1
  Zn  Zn123  1  0.18377607  0.44752515  0.43635084  1
  Zn  Zn124  1  0.18820179  0.44080627  0.93781932  1
  Zn  Zn125  1  0.18298410  0.94623597  0.43368970  1
  Zn  Zn126  1  0.19181725  0.94185370  0.93639361  1
  Zn  Zn127  1  0.68909761  0.43551105  0.44082508  1
  Zn  Zn128  1  0.68786770  0.43695226  0.93711204  1
  Zn  Zn129  1  0.68520343  0.93739019  0.44028365  1
  Zn  Zn130  1  0.68603022  0.93473526  0.93899678  1
  Zn  Zn131  1  0.30457171  0.06410717  0.06004524  1
  Zn  Zn132  1  0.31254551  0.06053507  0.56022982  1
  Zn  Zn133  1  0.31294042  0.56192097  0.05997850  1
  Zn  Zn134  1  0.31466753  0.56596170  0.56382538  1
  Zn  Zn135  1  0.81508646  0.06215421  0.06065625  1
  Zn  Zn136  1  0.81175518  0.05805189  0.56610601  1
  Zn  Zn137  1  0.81519709  0.56679356  0.06533742  1
  Zn  Zn138  1  0.81495984  0.55990801  0.56674358  1
  Zn  Zn139  1  0.43398426  0.43886196  0.18777616  1
  Zn  Zn140  1  0.43528227  0.43703181  0.68681625  1
  Zn  Zn141  1  0.43670856  0.93412242  0.18853138  1
  Zn  Zn142  1  0.43494177  0.93780914  0.68417215  1
  Zn  Zn143  1  0.93832588  0.43930057  0.18980804  1
  Zn  Zn144  1  0.93259632  0.43389332  0.69198808  1
  Zn  Zn145  1  0.93631636  0.93154234  0.18499021  1
  Zn  Zn146  1  0.93284562  0.93624002  0.69188055  1
  Zn  Zn147  1  0.06239390  0.05639116  0.31198757  1
  Zn  Zn148  1  0.05674949  0.05693857  0.81069558  1
  Zn  Zn149  1  0.06450347  0.55613994  0.31709328  1
  Zn  Zn150  1  0.06106932  0.55832846  0.81089392  1
  Zn  Zn151  1  0.56485749  0.06272561  0.31066065  1
  Zn  Zn152  1  0.55612783  0.06179785  0.81547256  1
  Zn  Zn153  1  0.56346645  0.56262843  0.31542223  1
  Zn  Zn154  1  0.56121293  0.56593825  0.81234525  1
  Zn  Zn155  1  0.43962619  0.18808583  0.43785383  1
  Zn  Zn156  1  0.44777159  0.15952637  0.92487985  1
  Zn  Zn157  1  0.44018184  0.68190297  0.43675681  1
  Zn  Zn158  1  0.43454954  0.69108862  0.93544349  1
  Zn  Zn159  1  0.93480333  0.18564318  0.43563943  1
  Zn  Zn160  1  0.93524776  0.18196997  0.93590903  1
  Zn  Zn161  1  0.93720224  0.68352195  0.44018893  1
  Zn  Zn162  1  0.93708915  0.68745411  0.93582463  1
  Zn  Zn163  1  0.06111818  0.32938647  0.06772675  1
  Zn  Zn164  1  0.05793095  0.30949999  0.56864100  1
  Zn  Zn165  1  0.06703948  0.82231452  0.04961434  1
  Zn  Zn166  1  0.06627449  0.81369538  0.55916617  1
  Zn  Zn167  1  0.56045291  0.31124265  0.06091661  1
  Zn  Zn168  1  0.56368200  0.31677620  0.56338232  1
  Zn  Zn169  1  0.56574622  0.80932446  0.05902324  1
  Zn  Zn170  1  0.56093869  0.81275739  0.56686805  1
  O  O171  1  0.13696118  0.11776757  0.13136789  1
  O  O172  1  0.11527206  0.11344098  0.62535873  1
  O  O173  1  0.07787399  0.67312141  0.12695007  1
  O  O174  1  0.11273429  0.63108504  0.61812023  1
  O  O175  1  0.62207665  0.11788974  0.12166875  1
  O  O176  1  0.61992308  0.11707976  0.62283051  1
  O  O177  1  0.61849379  0.61780069  0.11954893  1
  O  O178  1  0.63405241  0.61576046  0.61288062  1
  O  O179  1  0.38156861  0.37739747  0.38051131  1
  O  O180  1  0.38109187  0.38121694  0.87304965  1
  O  O181  1  0.38887566  0.88480442  0.37412761  1
  O  O182  1  0.37121437  0.87664109  0.89104463  1
  O  O183  1  0.88335835  0.38704081  0.36845654  1
  O  O184  1  0.87096737  0.38422357  0.88371009  1
  O  O185  1  0.88029184  0.87812015  0.38315265  1
  O  O186  1  0.88292856  0.88853770  0.86927614  1
  O  O187  1  0.26238312  0.01154112  0.37111213  1
  O  O188  1  0.25697321  0.01377781  0.86588497  1
  O  O189  1  0.25048850  0.51250837  0.36408495  1
  O  O190  1  0.25913286  0.50434858  0.86669367  1
  O  O191  1  0.75255520  0.00516812  0.36685063  1
  O  O192  1  0.76373805  -0.00301243  0.88121638  1
  O  O193  1  0.75787558  0.50301024  0.37370386  1
  O  O194  1  0.75643139  0.50951000  0.87471772  1
  O  O195  1  0.25903077  0.48962849  0.13289820  1
  O  O196  1  0.25900103  0.49099058  0.63521997  1
  O  O197  1  0.24999038  0.98811577  0.12819257  1
  O  O198  1  0.24185966  1.00100882  0.62998897  1
  O  O199  1  0.74305499  0.49990845  0.13156276  1
  O  O200  1  0.74471817  0.49112516  0.62706519  1
  O  O201  1  0.74563021  0.99708850  0.13169617  1
  O  O202  1  0.73968666  0.98712051  0.62223224  1
  O  O203  1  0.01009503  0.37733244  0.25889999  1
  O  O204  1  0.00802972  0.36765775  0.75114110  1
  O  O205  1  0.00763693  0.88003868  0.26430456  1
  O  O206  1  0.00034603  0.88119022  0.76506757  1
  O  O207  1  0.50538499  0.37197793  0.25562336  1
  O  O208  1  0.49268684  0.36254480  0.75893013  1
  O  O209  1  0.50373181  0.86824242  0.25940900  1
  O  O210  1  0.49424445  0.86498889  0.75396358  1
  O  O211  1  0.49418800  0.13015284  0.24307256  1
  O  O212  1  0.48837310  0.13648233  0.74058974  1
  O  O213  1  0.49442359  0.62814116  0.24598178  1
  O  O214  1  0.48562729  0.62617051  0.75042050  1
  O  O215  1  0.98563657  0.12504872  0.26029504  1
  O  O216  1  0.99044126  0.13098681  0.74521082  1
  O  O217  1  0.98836406  0.61851800  0.25955699  1
  O  O218  1  0.99692814  0.61991879  0.73572966  1
  O  O219  1  0.37944853  0.24250989  0.01140953  1
  O  O220  1  0.37805937  0.25776427  0.50980871  1
  O  O221  1  0.36729322  0.75929719  0.00576051  1
  O  O222  1  0.38001085  0.74727241  0.50949109  1
  O  O223  1  0.86999862  0.25565018  0.00464748  1
  O  O224  1  0.87693662  0.24323711  0.51575248  1
  O  O225  1  0.85842103  0.73797575  0.00471170  1
  O  O226  1  0.86400123  0.75857360  0.49569238  1
  O  O227  1  0.12228622  0.24212744  0.50792204  1
  O  O228  1  0.11183546  0.25799338  0.99797205  1
  O  O229  1  0.12235862  0.73787944  0.49119936  1
  O  O230  1  0.14208854  0.75805084  0.98597694  1
  O  O231  1  0.61906712  0.24883790  0.48545764  1
  O  O232  1  0.63324750  0.24365611  0.99445532  1
  O  O233  1  0.62959919  0.74187175  0.49795318  1
  O  O234  1  0.63020841  0.74159943  0.98913403  1
  O  O235  1  0.49416206  0.24173411  0.13117643  1
  O  O236  1  0.49343935  0.24870982  0.62958872  1
  O  O237  1  0.49748747  0.74275304  0.12987151  1
  O  O238  1  0.48975006  0.75438460  0.63802982  1
  O  O239  1  0.98733979  0.25520303  0.12934449  1
  O  O240  1  0.98777628  0.24417321  0.63556352  1
  O  O241  1  1.02835284  0.73845267  0.12334465  1
  O  O242  1  0.99806210  0.74214020  0.62289954  1
  O  O243  1  -0.01056393  0.26541984  0.37349751  1
  O  O244  1  -0.01107121  0.25231409  0.86118531  1
  O  O245  1  0.00730748  0.76034960  0.38509122  1
  O  O246  1  -0.00065566  0.76837964  0.88582267  1
  O  O247  1  0.50803114  0.25487978  0.36839132  1
  O  O248  1  0.50596889  0.25288242  0.86708462  1
  O  O249  1  0.50355929  0.75628926  0.37183687  1
  O  O250  1  0.50561204  0.74366427  0.85998322  1
  O  O251  1  0.25232390  0.12513537  0.48420837  1
  O  O252  1  0.25035600  0.12932500  0.98148732  1
  O  O253  1  0.23727562  0.61127392  0.49035305  1
  O  O254  1  0.25783138  0.63386024  0.98990690  1
  O  O255  1  0.75029877  0.11574462  0.48457391  1
  O  O256  1  0.74266296  0.13501767  0.99902106  1
  O  O257  1  0.74624238  0.63229500  0.49848205  1
  O  O258  1  0.74348408  0.63078674  0.99018409  1
  O  O259  1  0.25252587  0.37297902  0.00805380  1
  O  O260  1  0.25316925  0.38192467  0.50578650  1
  O  O261  1  0.25620440  0.86836505  0.00913845  1
  O  O262  1  0.25153931  0.88080858  0.49033931  1
  O  O263  1  0.75807384  0.36634718  0.00088711  1
  O  O264  1  0.75155434  0.38021183  0.51768796  1
  O  O265  1  0.74759196  0.85643685  -0.00009334  1
  O  O266  1  0.75586675  0.86768324  0.50342688  1
  O  O267  1  0.13740899  0.49264801  0.25265264  1
  O  O268  1  0.13803416  0.49106956  0.75180061  1
  O  O269  1  0.12828613  0.98447209  0.25199289  1
  O  O270  1  0.13122249  0.99677315  0.73887167  1
  O  O271  1  0.63004681  0.49537450  0.24616989  1
  O  O272  1  0.62454265  0.50949198  0.73531624  1
  O  O273  1  0.63507824  1.00101367  0.24045028  1
  O  O274  1  0.61713799  1.00522642  0.74048794  1
  O  O275  1  0.37828646  0.00901021  0.25999137  1
  O  O276  1  0.36779069  0.01191068  0.74531399  1
  O  O277  1  0.36401519  0.50852307  0.25194242  1
  O  O278  1  0.36815161  0.50443789  0.75576678  1
  O  O279  1  0.86804459  0.00532193  0.25328565  1
  O  O280  1  0.88047346  0.01124538  0.76373155  1
  O  O281  1  0.87033544  0.50883584  0.25917282  1
  O  O282  1  0.87461612  0.50864708  0.76115135  1
  O  O283  1  0.11656548  0.38128335  0.36845303  1
  O  O284  1  0.12808762  0.37615676  0.85996553  1
  O  O285  1  0.11651752  0.86912137  0.37172032  1
  O  O286  1  0.11212894  0.88196046  0.87175864  1
  O  O287  1  0.62193938  0.36798567  0.37030567  1
  O  O288  1  0.61545812  0.36268791  0.88013087  1
  O  O289  1  0.61580426  0.86900474  0.37357156  1
  O  O290  1  0.62843379  0.85960025  0.87612119  1
  O  O291  1  0.38119397  0.12750772  0.13196095  1
  O  O292  1  0.37702640  0.13394640  0.62884596  1
  O  O293  1  0.38005585  0.62944147  0.12839439  1
  O  O294  1  0.36979964  0.63956489  0.63254483  1
  O  O295  1  0.86931732  0.13355613  0.13452825  1
  O  O296  1  0.87603723  0.12772885  0.63303425  1
  O  O297  1  0.87422378  0.62984030  0.14289918  1
  O  O298  1  0.88926472  0.62215696  0.63230543  1
  O  O299  1  0.26072882  0.26090951  0.12551078  1
  O  O300  1  0.25892176  0.26056215  0.62555256  1
  O  O301  1  0.25347434  0.75509489  0.11664213  1
  O  O302  1  0.26661728  0.75462543  0.62781991  1
  O  O303  1  0.75793822  0.25094936  0.11397014  1
  O  O304  1  0.75360534  0.26065276  0.62709837  1
  O  O305  1  0.73891877  0.74653680  0.10919424  1
  O  O306  1  0.74015090  0.76294707  0.61440758  1
  O  O307  1  0.25995978  0.23617845  0.37425451  1
  O  O308  1  0.24510884  0.23937580  0.86889946  1
  O  O309  1  0.24139360  0.73521819  0.37901335  1
  O  O310  1  0.25964071  0.73782482  0.88168425  1
  O  O311  1  0.74144275  0.23937176  0.36739768  1
  O  O312  1  0.74251523  0.25156783  0.88364216  1
  O  O313  1  0.74342138  0.74554399  0.38718664  1
  O  O314  1  0.74341512  0.74113458  0.88256172  1
  O  O315  1  -0.00064755  0.10850131  -0.00618461  1
  O  O316  1  -0.00568516  0.11498966  0.50611575  1
  O  O317  1  -0.00523639  0.61045264  -0.00546701  1
  O  O318  1  0.00363737  0.61848608  0.51456423  1
  O  O319  1  0.51579004  0.13678844  0.01725070  1
  O  O320  1  0.50311821  0.11635117  0.50503897  1
  O  O321  1  0.50441925  0.62405206  0.00456368  1
  O  O322  1  0.51156780  0.61412255  0.49615379  1
  O  O323  1  0.49494243  0.38325297  0.49447145  1
  O  O324  1  0.49450760  0.37333304  0.98613512  1
  O  O325  1  0.50669909  0.88460441  0.48951715  1
  O  O326  1  0.48394091  0.87084494  1.00738432  1
  O  O327  1  1.00704090  0.38757368  0.49570171  1
  O  O328  1  0.98596997  0.38592104  0.99737474  1
  O  O329  1  0.99016643  0.87845771  0.49502424  1
  O  O330  1  0.99869558  0.88922661  0.98616336  1
  O  O331  1  0.50090583  0.49419355  0.38685322  1
  O  O332  1  0.49336072  0.48923735  0.87077222  1
  O  O333  1  0.49709685  0.99449767  0.37946629  1
  O  O334  1  0.47860480  1.04865103  0.89078088  1
  O  O335  1  0.99328488  0.49061599  0.38469867  1
  O  O336  1  0.98934429  0.49641240  0.88138148  1
  O  O337  1  0.99357080  0.98931399  0.38232450  1
  O  O338  1  0.99095417  0.99263198  0.88304405  1
  O  O339  1  -0.00180531  -0.00721825  0.10977095  1
  O  O340  1  0.00463403  0.00262702  0.62221202  1
  O  O341  1  -0.00479394  0.49736973  0.11096687  1
  O  O342  1  -0.00501054  0.49650010  0.61363992  1
  O  O343  1  0.51047357  0.01096499  0.13413106  1
  O  O344  1  0.50589530  0.00325563  0.61799270  1
  O  O345  1  0.50498805  0.50533652  0.12293987  1
  O  O346  1  0.50870461  0.48958447  0.61351431  1
  O  O347  1  0.24622181  0.38308564  0.24611398  1
  O  O348  1  0.24513675  0.38096445  0.74318127  1
  O  O349  1  0.23918445  0.87405645  0.23687962  1
  O  O350  1  0.25475834  0.89217334  0.75362669  1
  O  O351  1  0.74418073  0.38218971  0.24972343  1
  O  O352  1  0.75045914  0.37837727  0.73459987  1
  O  O353  1  0.74815911  0.88640499  0.25139544  1
  O  O354  1  0.75535951  0.86664751  0.73446022  1
  O  O355  1  0.26421255  0.12473859  0.26009479  1
  O  O356  1  0.25247343  0.11797065  0.75066775  1
  O  O357  1  0.24879703  0.62105714  0.25248420  1
  O  O358  1  0.26026684  0.61565919  0.75503076  1
  O  O359  1  0.75812737  0.11437149  0.25738661  1
  O  O360  1  0.76119144  0.13053887  0.75185554  1
  O  O361  1  0.75504412  0.61763579  0.26038134  1
  O  O362  1  0.75737233  0.62443939  0.75850550  1
  O  O363  1  0.37338126  0.11852224  0.36820404  1
  O  O364  1  0.35716356  0.13884158  0.85409688  1
  O  O365  1  0.36452244  0.62564064  0.36888776  1
  O  O366  1  0.36899453  0.61533550  0.86579829  1
  O  O367  1  0.86639950  0.11905329  0.36671953  1
  O  O368  1  0.86980928  0.11404089  0.86841003  1
  O  O369  1  0.87155423  0.61347093  0.37127493  1
  O  O370  1  0.86773275  0.61703451  0.86903172  1
  O  O371  1  0.13967671  0.37571495  0.13818790  1
  O  O372  1  0.13724386  0.37334644  0.63424053  1
  O  O373  1  0.13118155  0.87593547  0.13270915  1
  O  O374  1  0.12829894  0.88760818  0.62192453  1
  O  O375  1  0.62520456  0.37966913  0.13062118  1
  O  O376  1  0.63622530  0.38282186  0.62268732  1
  O  O377  1  0.62611949  0.88747342  0.12388538  1
  O  O378  1  0.63597138  0.88345254  0.62242473  1
  O  O379  1  0.12509400  0.26509497  0.25130313  1
  O  O380  1  0.11149748  0.25765230  0.74149248  1
  O  O381  1  0.12782584  0.76133218  0.26820020  1
  O  O382  1  0.13745513  0.75604458  0.75824486  1
  O  O383  1  0.62149299  0.25513817  0.25667175  1
  O  O384  1  0.61311649  0.24076344  0.75963561  1
  O  O385  1  0.61894268  0.74752783  0.25837187  1
  O  O386  1  0.60804436  0.74439753  0.75339032  1
  O  O387  1  0.38194782  0.24049203  0.24114838  1
  O  O388  1  0.38105548  0.24605669  0.73598278  1
  O  O389  1  0.38378016  0.74121472  0.24017235  1
  O  O390  1  0.38565983  0.74450370  0.74458312  1
  O  O391  1  0.87346558  0.24110850  0.24122211  1
  O  O392  1  0.88076870  0.24061064  0.74271346  1
  O  O393  1  0.87471298  0.73032534  0.26281580  1
  O  O394  1  0.87502903  0.73411420  0.75989323  1
  O  O395  1  0.38471829  0.49701721  0.49960331  1
  O  O396  1  0.37714142  0.49786901  0.98406178  1
  O  O397  1  0.38951198  1.00677150  0.48966689  1
  O  O398  1  0.36950365  0.98467062  1.00511107  1
  O  O399  1  0.88949621  0.50718375  0.49178232  1
  O  O400  1  0.87589444  0.49443367  0.99310030  1
  O  O401  1  0.87727997  0.98904819  0.49479982  1
  O  O402  1  0.88344808  1.00442980  0.98718888  1
  O  O403  1  0.11207003  -0.00152655  0.00194549  1
  O  O404  1  0.11624814  0.00705798  0.50751537  1
  O  O405  1  0.10823501  0.49398765  -0.00369553  1
  O  O406  1  0.10734392  0.51338527  0.49504487  1
  O  O407  1  0.63539703  0.01234860  0.00931533  1
  O  O408  1  0.61497678  0.00364204  0.50669477  1
  O  O409  1  0.62282332  0.50541500  0.00456777  1
  O  O410  1  0.61932618  0.50585454  0.50791947  1
  O  O411  1  0.36850980  0.36546014  0.12357641  1
  O  O412  1  0.36537787  0.36920330  0.61980252  1
  O  O413  1  0.36753050  0.86892393  0.12027459  1
  O  O414  1  0.37309662  0.86128470  0.62501033  1
  O  O415  1  0.87181660  0.36700646  0.11636830  1
  O  O416  1  0.86417654  0.36496270  0.62872576  1
  O  O417  1  0.87750064  0.85005431  0.13892843  1
  O  O418  1  0.86064288  0.88317882  0.61478030  1
  O  O419  1  0.14306389  0.11844809  0.37067954  1
  O  O420  1  0.13618559  0.11939887  0.86606853  1
  O  O421  1  0.12829652  0.63181452  0.38194184  1
  O  O422  1  0.14193457  0.62070200  0.86738224  1
  O  O423  1  0.63255789  0.13289147  0.37334146  1
  O  O424  1  0.62710752  0.13521232  0.88468361  1
  O  O425  1  0.63152961  0.62842946  0.38730019  1
  O  O426  1  0.63349992  0.63029552  0.87703219  1
