# generated using pymatgen
data_V85Zn86O256
_symmetry_space_group_name_H-M   'P 1'
_cell_length_a   16.97157012
_cell_length_b   16.98508128
_cell_length_c   16.99180552
_cell_angle_alpha   89.97566079
_cell_angle_beta   90.20885057
_cell_angle_gamma   90.08107589
_symmetry_Int_Tables_number   1
_chemical_formula_structural   V85Zn86O256
_chemical_formula_sum   'V85 Zn86 O256'
_cell_volume   4898.07941763
_cell_formula_units_Z   1
loop_
 _symmetry_equiv_pos_site_id
 _symmetry_equiv_pos_as_xyz
  1  'x, y, z'
loop_
 _atom_site_type_symbol
 _atom_site_label
 _atom_site_symmetry_multiplicity
 _atom_site_fract_x
 _atom_site_fract_y
 _atom_site_fract_z
 _atom_site_occupancy
  V  V0  1  0.50357832  0.50218305  0.49595559  1
  V  V1  1  0.37428547  0.62519567  0.75048449  1
  V  V2  1  0.87801187  0.00077495  0.87736769  1
  V  V3  1  0.87486150  0.75787470  0.62174871  1
  V  V4  1  0.24989964  0.87505341  0.62121194  1
  V  V5  1  0.12338481  0.62520438  -0.00038635  1
  V  V6  1  -0.00136000  0.50325436  0.00654787  1
  V  V7  1  0.60817067  0.37151339  0.25540897  1
  V  V8  1  0.25172587  0.50154689  0.24709618  1
  V  V9  1  0.00061814  0.74992973  0.75538509  1
  V  V10  1  0.74734322  0.37734414  0.62231595  1
  V  V11  1  0.75257792  0.87967354  0.62058808  1
  V  V12  1  0.00182985  0.87489751  0.88009685  1
  V  V13  1  0.50332340  0.62785192  0.12326657  1
  V  V14  1  0.63324182  0.25259642  0.87812652  1
  V  V15  1  0.75049982  0.62579948  0.87446882  1
  V  V16  1  0.63282881  0.12986228  0.00129751  1
  V  V17  1  0.74928286  0.12026678  0.37127769  1
  V  V18  1  0.49285649  0.13880870  0.62981177  1
  V  V19  1  0.62682706  0.75162643  0.87592021  1
  V  V20  1  0.35936589  0.11689507  0.24836978  1
  V  V21  1  0.74860009  0.50154544  0.75000999  1
  V  V22  1  0.38141534  0.63102798  0.24792649  1
  V  V23  1  0.86394984  0.25160764  0.11794122  1
  V  V24  1  0.75333051  0.75097446  0.00197774  1
  V  V25  1  0.24582277  0.49834321  0.73122591  1
  V  V26  1  0.00882402  0.72499718  0.24114247  1
  V  V27  1  0.62524292  0.87878423  0.75272628  1
  V  V28  1  0.13536309  0.75113739  0.38222837  1
  V  V29  1  0.61534523  0.13497170  0.49183693  1
  V  V30  1  0.12642517  0.00025977  0.13190871  1
  V  V31  1  0.37177080  0.37522288  -0.00057873  1
  V  V32  1  0.74961839  0.00392081  0.75041308  1
  V  V33  1  -0.00105225  0.11779038  0.12320926  1
  V  V34  1  0.38292055  0.49488762  0.37078816  1
  V  V35  1  0.24755716  0.37607578  0.12521462  1
  V  V36  1  0.12611863  0.37927570  0.73446822  1
  V  V37  1  0.36021426  0.38278808  0.51048499  1
  V  V38  1  -0.00651277  0.24692599  0.24747148  1
  V  V39  1  0.49681132  0.00050221  0.49994089  1
  V  V40  1  -0.00061325  0.25043181  0.74766021  1
  V  V41  1  0.38051883  0.13160600  0.75385854  1
  V  V42  1  0.24842021  0.25084780  0.00284182  1
  V  V43  1  0.49914356  0.75092309  0.75300253  1
  V  V44  1  0.25095241  0.00260999  0.75605637  1
  V  V45  1  0.12568217  0.87204478  0.75710967  1
  V  V46  1  0.49900000  0.86170636  0.37651716  1
  V  V47  1  0.12807916  0.23001236  0.37678790  1
  V  V48  1  -0.00084493  0.37646523  0.87681519  1
  V  V49  1  0.62481545  0.62419722  0.00069363  1
  V  V50  1  0.50557421  0.00030213  0.00651271  1
  V  V51  1  0.87233427  0.25016817  0.62210410  1
  V  V52  1  0.73423527  0.74314721  0.50236265  1
  V  V53  1  0.61972685  0.37072807  0.74590628  1
  V  V54  1  0.74021687  0.25407749  0.49092096  1
  V  V55  1  0.37733505  -0.00106653  0.88420062  1
  V  V56  1  0.75208528  0.87930886  0.14212147  1
  V  V57  1  0.36796177  0.50174583  0.87346794  1
  V  V58  1  0.00422773  0.62413649  0.62130810  1
  V  V59  1  0.12489517  0.37467638  0.25192399  1
  V  V60  1  0.37104295  0.75225240  0.62638563  1
  V  V61  1  0.50226499  0.50121871  0.00059306  1
  V  V62  1  0.12213765  0.24983580  0.87518592  1
  V  V63  1  0.87415484  0.50063881  0.87441896  1
  V  V64  1  0.37840715  0.75450115  0.12042170  1
  V  V65  1  -0.00800973  0.37814859  0.37191547  1
  V  V66  1  0.87153848  0.38285077  0.49410414  1
  V  V67  1  0.24762280  0.75394027  -0.00768806  1
  V  V68  1  0.88232922  0.73515136  0.12704555  1
  V  V69  1  0.49894911  0.87627360  0.88320333  1
  V  V70  1  0.87936596  0.87922031  0.00457546  1
  V  V71  1  0.61724640  0.87056065  0.26004138  1
  V  V72  1  0.25769930  0.63111136  0.37711392  1
  V  V73  1  0.12005567  0.11845223  -0.00045582  1
  V  V74  1  0.37163946  0.86924484  0.50163948  1
  V  V75  1  0.49760428  0.36828728  0.87039775  1
  V  V76  1  0.35655274  -0.00169216  0.37046909  1
  V  V77  1  0.74785633  0.50575629  0.24108343  1
  V  V78  1  0.25438005  0.87838322  0.12460101  1
  V  V79  1  0.87393513  0.12604457  0.74792166  1
  V  V80  1  0.12582016  0.87200245  0.24498528  1
  V  V81  1  0.62393885  0.50620322  0.61906671  1
  V  V82  1  0.62220356  0.00546012  0.62675783  1
  V  V83  1  0.12400642  0.00354381  0.61919611  1
  V  V84  1  0.00102197  0.12330818  0.61077399  1
  Zn  Zn85  1  0.85732988  0.11169719  0.24396767  1
  Zn  Zn86  1  0.37921770  0.25412357  0.14015754  1
  Zn  Zn87  1  0.50476193  0.63064154  0.62094464  1
  Zn  Zn88  1  -0.00354153  0.86741404  0.37609045  1
  Zn  Zn89  1  0.50395904  0.12964466  0.13303692  1
  Zn  Zn90  1  0.00558073  0.49486058  0.50776165  1
  Zn  Zn91  1  0.13956256  0.62129408  0.51100212  1
  Zn  Zn92  1  0.87884081  0.54074923  0.35466755  1
  Zn  Zn93  1  0.25339348  0.12724104  0.87909194  1
  Zn  Zn94  1  0.85380607  -0.03043647  0.37577493  1
  Zn  Zn95  1  0.87579257  0.62615193  0.75066316  1
  Zn  Zn96  1  0.23800487  0.22827736  0.50810049  1
  Zn  Zn97  1  0.50327791  0.22571734  0.28966228  1
  Zn  Zn98  1  0.35896841  0.26740724  0.63694376  1
  Zn  Zn99  1  0.75457227  0.13220415  0.87787816  1
  Zn  Zn100  1  0.24317545  0.63088976  0.87182461  1
  Zn  Zn101  1  -0.02501520  -0.03852370  0.50630222  1
  Zn  Zn102  1  0.11144840  0.51053379  0.13418125  1
  Zn  Zn103  1  0.72722855  0.38027275  0.11850842  1
  Zn  Zn104  1  0.73989684  0.62641905  0.37766014  1
  Zn  Zn105  1  0.63766108  0.00801672  0.13320600  1
  Zn  Zn106  1  0.85949881  0.36850740  -0.00446828  1
  Zn  Zn107  1  0.18432434  0.18874133  0.18909604  1
  Zn  Zn108  1  0.18542231  0.18806481  0.68853267  1
  Zn  Zn109  1  0.19293688  0.68701460  0.18084715  1
  Zn  Zn110  1  0.18807599  0.68756114  0.69289957  1
  Zn  Zn111  1  0.67585541  0.19607506  0.19238582  1
  Zn  Zn112  1  0.68361639  0.19057855  0.68441760  1
  Zn  Zn113  1  0.68729900  0.69100202  0.18857810  1
  Zn  Zn114  1  0.68782947  0.68995042  0.68936740  1
  Zn  Zn115  1  0.31385562  0.30639261  0.31727395  1
  Zn  Zn116  1  0.30434062  0.31618923  0.81363208  1
  Zn  Zn117  1  0.31488185  0.81429366  0.30750286  1
  Zn  Zn118  1  0.31566692  0.81722934  0.81278587  1
  Zn  Zn119  1  0.80332223  0.31565575  0.30558950  1
  Zn  Zn120  1  0.81160780  0.31550497  0.80877016  1
  Zn  Zn121  1  0.83682245  0.76490612  0.33359283  1
  Zn  Zn122  1  0.81371939  0.81496882  0.81128588  1
  Zn  Zn123  1  0.18283080  0.44490858  0.43514152  1
  Zn  Zn124  1  0.18065267  0.43929395  0.93609492  1
  Zn  Zn125  1  0.14936619  0.97672651  0.40797461  1
  Zn  Zn126  1  0.18701796  0.93820138  0.94251184  1
  Zn  Zn127  1  0.68793421  0.44678093  0.42516710  1
  Zn  Zn128  1  0.68607047  0.43724553  0.93728517  1
  Zn  Zn129  1  0.68186719  0.93935516  0.44026915  1
  Zn  Zn130  1  0.69153570  0.93970339  0.94206068  1
  Zn  Zn131  1  0.31093271  0.06259729  0.06366811  1
  Zn  Zn132  1  0.30969264  0.06114775  0.56653966  1
  Zn  Zn133  1  0.31089330  0.56623684  0.06099999  1
  Zn  Zn134  1  0.32133814  0.56848452  0.55774672  1
  Zn  Zn135  1  0.81471085  0.06186146  0.06182405  1
  Zn  Zn136  1  0.81279481  0.06272513  0.55469206  1
  Zn  Zn137  1  0.81023977  0.55501195  0.05898631  1
  Zn  Zn138  1  0.81626164  0.56723932  0.56524062  1
  Zn  Zn139  1  0.43790144  0.43992662  0.18270744  1
  Zn  Zn140  1  0.44052533  0.44237948  0.68575443  1
  Zn  Zn141  1  0.43884621  0.93722372  0.19037010  1
  Zn  Zn142  1  0.43768431  0.94224255  0.69273126  1
  Zn  Zn143  1  0.92911021  0.43613841  0.18785968  1
  Zn  Zn144  1  0.93640092  0.43807430  0.68728303  1
  Zn  Zn145  1  0.93129418  0.92870062  0.20420575  1
  Zn  Zn146  1  0.93896887  0.94038779  0.69020596  1
  Zn  Zn147  1  0.02008137  0.04929875  0.31089390  1
  Zn  Zn148  1  0.06061937  0.06279583  0.80894764  1
  Zn  Zn149  1  0.07315558  0.55491097  0.33707371  1
  Zn  Zn150  1  0.06579825  0.56206624  0.81363481  1
  Zn  Zn151  1  0.55947951  0.05019248  0.31056105  1
  Zn  Zn152  1  0.56251045  0.06715060  0.81632795  1
  Zn  Zn153  1  0.56846099  0.55944459  0.30610018  1
  Zn  Zn154  1  0.56121856  0.56167481  0.81168055  1
  Zn  Zn155  1  0.40314486  0.17978000  0.45062340  1
  Zn  Zn156  1  0.44260109  0.18831083  0.94879255  1
  Zn  Zn157  1  0.56111491  0.68027867  0.44001117  1
  Zn  Zn158  1  0.43391924  0.68879194  0.93828145  1
  Zn  Zn159  1  0.93085779  0.19402741  0.43449375  1
  Zn  Zn160  1  0.93808986  0.18732333  0.93818406  1
  Zn  Zn161  1  0.94118417  0.70898453  0.44420309  1
  Zn  Zn162  1  0.93756529  0.68711305  0.94021844  1
  Zn  Zn163  1  0.05837662  0.31193953  0.06407925  1
  Zn  Zn164  1  0.06042341  0.30630951  0.55581621  1
  Zn  Zn165  1  0.06502977  0.80861839  0.06246697  1
  Zn  Zn166  1  0.06952455  0.81014102  0.56542906  1
  Zn  Zn167  1  0.55823954  0.30940927  0.06581246  1
  Zn  Zn168  1  0.54757627  0.31914442  0.43934291  1
  Zn  Zn169  1  0.56825635  0.81190193  0.06586123  1
  Zn  Zn170  1  0.55925194  0.81924429  0.56964838  1
  O  O171  1  0.11966751  0.11885072  0.11987713  1
  O  O172  1  0.11096372  0.11449930  0.63653012  1
  O  O173  1  0.13250199  0.62156954  0.10810347  1
  O  O174  1  0.11057407  0.63807705  0.62332648  1
  O  O175  1  0.62458806  0.12457166  0.11603214  1
  O  O176  1  0.61218788  0.12442602  0.61778837  1
  O  O177  1  0.61166902  0.63581759  0.11585201  1
  O  O178  1  0.62505587  0.61031558  0.63455201  1
  O  O179  1  0.36580695  0.39204537  0.37717256  1
  O  O180  1  0.37973054  0.38191225  0.87779194  1
  O  O181  1  0.37835460  0.88045714  0.38042995  1
  O  O182  1  0.38839181  0.88620164  0.87166763  1
  O  O183  1  0.88132786  0.36248885  0.38266453  1
  O  O184  1  0.88445352  0.37906149  0.87419569  1
  O  O185  1  0.88449971  0.86439588  0.35205523  1
  O  O186  1  0.88181283  0.88142660  0.88316582  1
  O  O187  1  0.25815771  -0.00904720  0.37836705  1
  O  O188  1  0.25894093  -0.00171754  0.87195861  1
  O  O189  1  0.25690686  0.51064705  0.35986316  1
  O  O190  1  0.26195715  0.49813499  0.87326140  1
  O  O191  1  0.74447349  0.01614169  0.38124071  1
  O  O192  1  0.76324103  -0.00070625  0.86887010  1
  O  O193  1  0.76062896  0.50807987  0.36450556  1
  O  O194  1  0.75428242  0.50598859  0.86945127  1
  O  O195  1  0.25066707  0.49549313  0.13589120  1
  O  O196  1  0.25138614  0.51198559  0.63326404  1
  O  O197  1  0.24087602  0.98828998  0.11748772  1
  O  O198  1  0.24637872  0.99428285  0.63961146  1
  O  O199  1  0.74900107  0.49905737  0.13561815  1
  O  O200  1  0.74473469  0.49649538  0.62900454  1
  O  O201  1  0.75792405  0.98351172  0.12559921  1
  O  O202  1  0.74338046  0.99772267  0.62945337  1
  O  O203  1  0.00370081  0.36577386  0.25324195  1
  O  O204  1  0.00445145  0.37178166  0.75792170  1
  O  O205  1  0.01883432  0.86355216  0.24816658  1
  O  O206  1  0.00696967  0.86979691  0.75785664  1
  O  O207  1  0.50628586  0.38339404  0.25260704  1
  O  O208  1  0.50727319  0.38330136  0.76034304  1
  O  O209  1  0.50808223  0.87425815  0.26032753  1
  O  O210  1  0.50562179  0.87264846  0.76176884  1
  O  O211  1  0.49110992  0.11763773  0.24842256  1
  O  O212  1  0.49144195  0.12011166  0.74391386  1
  O  O213  1  0.49055091  0.61527406  0.23406557  1
  O  O214  1  0.49241726  0.63300572  0.74922959  1
  O  O215  1  1.00429810  0.13740856  0.23875041  1
  O  O216  1  0.99183157  0.13135762  0.74272047  1
  O  O217  1  1.01631148  0.62739117  0.25068760  1
  O  O218  1  1.00281796  0.63581516  0.74445639  1
  O  O219  1  0.35630966  0.25619741  -0.00929139  1
  O  O220  1  0.36254929  0.28207525  0.49823592  1
  O  O221  1  0.36138816  0.74511803  0.00931512  1
  O  O222  1  0.37667625  0.76570918  0.51626613  1
  O  O223  1  0.87667977  0.24692137  0.01359158  1
  O  O224  1  0.86303446  0.26082020  0.50481180  1
  O  O225  1  0.87369926  0.75996120  0.00767578  1
  O  O226  1  0.85802167  0.75394102  0.51894526  1
  O  O227  1  0.12393053  0.24989411  0.48169775  1
  O  O228  1  0.13132339  0.24327881  0.99778050  1
  O  O229  1  0.13000371  0.74483775  0.48374027  1
  O  O230  1  0.13953441  0.74274758  1.00377859  1
  O  O231  1  0.62864967  0.24394859  0.50124757  1
  O  O232  1  0.62071509  0.24111035  0.98923173  1
  O  O233  1  0.62884843  0.74727329  0.51513924  1
  O  O234  1  0.63344653  0.74529777  0.99417992  1
  O  O235  1  0.47962184  0.23511140  0.09450403  1
  O  O236  1  0.47711137  0.23570854  0.62096221  1
  O  O237  1  0.48933437  0.74130607  0.11264156  1
  O  O238  1  0.48844106  0.75353032  0.63510494  1
  O  O239  1  0.99354698  0.24069531  0.13140951  1
  O  O240  1  0.99326246  0.24245189  0.62879866  1
  O  O241  1  0.99865544  0.74598225  0.13306825  1
  O  O242  1  0.99311224  0.74756353  0.63782290  1
  O  O243  1  0.00616914  0.25613250  0.36572781  1
  O  O244  1  0.00198803  0.25777366  0.86900071  1
  O  O245  1  0.02225521  0.74407433  0.35873721  1
  O  O246  1  -0.00795285  0.76214865  0.86556459  1
  O  O247  1  0.48439182  0.23746629  0.39800364  1
  O  O248  1  0.50626164  0.26430716  0.88111611  1
  O  O249  1  0.49675786  0.76392073  0.38923486  1
  O  O250  1  0.50437142  0.75862578  0.87383556  1
  O  O251  1  0.30103959  0.13692554  0.48819052  1
  O  O252  1  0.23963025  0.13332292  1.00060631  1
  O  O253  1  0.25374986  0.62137695  0.48174135  1
  O  O254  1  0.24540588  0.63679772  0.99615243  1
  O  O255  1  0.73572703  0.13557222  0.49418587  1
  O  O256  1  0.73781349  0.11708114  0.99608984  1
  O  O257  1  0.74724407  0.64119563  0.50917758  1
  O  O258  1  0.74422040  0.62991452  0.99400677  1
  O  O259  1  0.24952978  0.36924927  0.00472356  1
  O  O260  1  0.25976414  0.39754911  0.49958420  1
  O  O261  1  0.24433227  0.86249999  0.00890180  1
  O  O262  1  0.25817545  0.88076999  0.51886571  1
  O  O263  1  0.74824723  0.38016013  0.00788708  1
  O  O264  1  0.75396100  0.37149331  0.50124281  1
  O  O265  1  0.76303883  0.86927957  0.00535413  1
  O  O266  1  0.73692260  0.86960232  0.51722300  1
  O  O267  1  0.13398730  0.49259097  0.25184986  1
  O  O268  1  0.13457736  0.49132391  0.75468886  1
  O  O269  1  0.12137766  0.98968247  0.23706545  1
  O  O270  1  0.13237553  0.99169625  0.74592985  1
  O  O271  1  0.63721748  0.48476861  0.25355597  1
  O  O272  1  0.62947720  0.49179017  0.74617664  1
  O  O273  1  0.62243552  0.98027136  0.24408191  1
  O  O274  1  0.62960465  0.99902070  0.74728645  1
  O  O275  1  0.37153662  -0.00115917  0.26234577  1
  O  O276  1  0.36830125  0.00544775  0.76397815  1
  O  O277  1  0.36866115  0.50675290  0.25175989  1
  O  O278  1  0.36593853  0.50441789  0.75550230  1
  O  O279  1  0.90623649  0.01273159  0.27594188  1
  O  O280  1  0.86968147  0.00609503  0.75745868  1
  O  O281  1  0.85630992  0.49297909  0.24971363  1
  O  O282  1  0.86696291  0.50103081  0.75620670  1
  O  O283  1  0.11206428  0.37468734  0.36300065  1
  O  O284  1  0.11371565  0.36969527  0.86821822  1
  O  O285  1  0.13910740  0.85711132  0.36036280  1
  O  O286  1  0.11439023  0.88537334  0.86792470  1
  O  O287  1  0.62039118  0.37448481  0.36652181  1
  O  O288  1  0.61669963  0.37085435  0.86702196  1
  O  O289  1  0.61603176  0.87892998  0.36699044  1
  O  O290  1  0.62016399  0.87157557  0.87196493  1
  O  O291  1  0.37612203  0.11457632  0.14215739  1
  O  O292  1  0.38260762  0.11044573  0.64443372  1
  O  O293  1  0.38151657  0.63321183  0.12867651  1
  O  O294  1  0.37478523  0.63879793  0.63232358  1
  O  O295  1  0.88150376  0.13073206  0.12747835  1
  O  O296  1  0.88083650  0.12960984  0.62840582  1
  O  O297  1  0.87086963  0.63785062  0.11434003  1
  O  O298  1  0.88526111  0.63796055  0.63167599  1
  O  O299  1  0.25157196  0.25589066  0.11729106  1
  O  O300  1  0.24970299  0.24444273  0.61983188  1
  O  O301  1  0.25912609  0.75805016  0.11411389  1
  O  O302  1  0.26026459  0.76273446  0.63814094  1
  O  O303  1  0.76438719  0.24416267  0.13263210  1
  O  O304  1  0.75199262  0.25728862  0.61437363  1
  O  O305  1  0.76202341  0.76049725  0.12227388  1
  O  O306  1  0.75426171  0.76088852  0.62514867  1
  O  O307  1  0.22936066  0.25058878  0.37111432  1
  O  O308  1  0.23861647  0.24954611  0.88510762  1
  O  O309  1  0.24598055  0.74310538  0.36616169  1
  O  O310  1  0.25684943  0.75431843  0.88874641  1
  O  O311  1  0.74766246  0.24440288  0.38682494  1
  O  O312  1  0.73851793  0.25297412  0.87243472  1
  O  O313  1  0.74267179  0.75868717  0.40223525  1
  O  O314  1  0.74703187  0.74715179  0.88049231  1
  O  O315  1  0.01088802  0.13193862  0.01048837  1
  O  O316  1  -0.00585419  0.13313551  0.51180566  1
  O  O317  1  0.00716209  0.61311849  -0.00620111  1
  O  O318  1  -0.00411692  0.63612207  0.51839334  1
  O  O319  1  0.51482331  0.11136215  -0.00474117  1
  O  O320  1  0.49812964  0.11399863  0.51065134  1
  O  O321  1  0.50308306  0.61972132  0.00301457  1
  O  O322  1  0.49885765  0.61012142  0.50559871  1
  O  O323  1  0.48135153  0.39540832  0.49655335  1
  O  O324  1  0.49295894  0.38528166  0.99034469  1
  O  O325  1  0.49220490  0.88268670  0.49751022  1
  O  O326  1  0.51057858  0.88285584  0.98939702  1
  O  O327  1  0.99011669  0.37459979  0.48923902  1
  O  O328  1  1.00073317  0.38066587  0.98754639  1
  O  O329  1  0.99594577  0.85016170  0.49332333  1
  O  O330  1  0.99165224  0.86792287  0.99196285  1
  O  O331  1  0.48960101  0.50929348  0.37957541  1
  O  O332  1  0.48756639  0.49407559  0.88029116  1
  O  O333  1  0.49261522  0.98836430  0.38870931  1
  O  O334  1  0.49652771  0.99335117  0.88306282  1
  O  O335  1  0.98354129  0.48573661  0.36467499  1
  O  O336  1  0.99449269  0.49188818  0.87978677  1
  O  O337  1  1.03620910  0.97993539  0.39645169  1
  O  O338  1  0.98745297  0.98910889  0.86662930  1
  O  O339  1  0.00729009  0.01262791  0.12978271  1
  O  O340  1  0.00617010  0.00407272  0.61972029  1
  O  O341  1  -0.00379464  0.48951049  0.11079138  1
  O  O342  1  -0.00570946  0.51968098  0.62593493  1
  O  O343  1  0.50054955  -0.00383482  0.11176008  1
  O  O344  1  0.50319597  0.00012647  0.61610751  1
  O  O345  1  0.49010496  0.51293660  0.10801947  1
  O  O346  1  0.50882407  0.50438029  0.61768478  1
  O  O347  1  0.24348990  0.38147062  0.24711190  1
  O  O348  1  0.23856184  0.38516997  0.75031575  1
  O  O349  1  0.23936074  0.86572105  0.23364872  1
  O  O350  1  0.24442563  0.88458744  0.74796848  1
  O  O351  1  0.73576956  0.38014040  0.24305783  1
  O  O352  1  0.74148759  0.38197099  0.74340639  1
  O  O353  1  0.74573860  0.87353504  0.24107659  1
  O  O354  1  0.74392031  0.88317037  0.74344679  1
  O  O355  1  0.25980021  0.12309142  0.24622175  1
  O  O356  1  0.25488410  0.11246409  0.75643948  1
  O  O357  1  0.26076732  0.61809267  0.24913460  1
  O  O358  1  0.25388557  0.61672310  0.75523755  1
  O  O359  1  0.74021129  0.13135135  0.26759161  1
  O  O360  1  0.75603651  0.12163705  0.74961064  1
  O  O361  1  0.74139716  0.61026871  0.24683919  1
  O  O362  1  0.75099886  0.62002687  0.75781088  1
  O  O363  1  0.37693079  0.10180005  0.36085740  1
  O  O364  1  0.37742380  0.11590687  0.87099677  1
  O  O365  1  0.36879746  0.61645443  0.35818992  1
  O  O366  1  0.37346500  0.61624097  0.86872506  1
  O  O367  1  0.85305405  0.13280540  0.37508603  1
  O  O368  1  0.87583316  0.11728957  0.86996309  1
  O  O369  1  0.86273349  0.65220212  0.37825238  1
  O  O370  1  0.86851581  0.61960423  0.87348650  1
  O  O371  1  0.12748503  0.37384132  0.13936963  1
  O  O372  1  0.10966484  0.37353148  0.63614977  1
  O  O373  1  0.13099843  0.88241472  0.12620610  1
  O  O374  1  0.13196782  0.88134609  0.63714746  1
  O  O375  1  0.61556735  0.36859259  0.14225499  1
  O  O376  1  0.63081331  0.38828588  0.63644105  1
  O  O377  1  0.64185289  0.87599714  0.12905670  1
  O  O378  1  0.63032220  0.88570387  0.63475334  1
  O  O379  1  0.11589947  0.25678185  0.25732166  1
  O  O380  1  0.11824834  0.25863029  0.75610749  1
  O  O381  1  0.12021869  0.75284500  0.24358121  1
  O  O382  1  0.11718527  0.76398049  0.74895186  1
  O  O383  1  0.60970552  0.26204022  0.25605623  1
  O  O384  1  0.62677139  0.26362752  0.75736744  1
  O  O385  1  0.62908470  0.77158793  0.24357509  1
  O  O386  1  0.61940055  0.75780591  0.75701911  1
  O  O387  1  0.37783579  0.23044001  0.25645609  1
  O  O388  1  0.36429841  0.23512130  0.75551255  1
  O  O389  1  0.37112418  0.73933356  0.23655464  1
  O  O390  1  0.37944042  0.74723023  0.74600236  1
  O  O391  1  0.88301107  0.24654073  0.24125330  1
  O  O392  1  0.87895839  0.24709225  0.74194283  1
  O  O393  1  0.90093811  0.74368708  0.23939846  1
  O  O394  1  0.88385050  0.75139446  0.74324980  1
  O  O395  1  0.38117109  0.49973407  0.48929668  1
  O  O396  1  0.37935780  0.49647321  0.99111491  1
  O  O397  1  0.37934430  0.98737680  0.49112668  1
  O  O398  1  0.38515110  1.00788945  0.99044323  1
  O  O399  1  0.87741221  0.48827582  0.50060554  1
  O  O400  1  0.88342959  0.49610063  0.99117424  1
  O  O401  1  0.87307374  1.00110195  0.48559104  1
  O  O402  1  0.87406856  0.98970642  0.99073449  1
  O  O403  1  0.12735551  0.01162341  0.01040940  1
  O  O404  1  0.14097626  -0.00044094  0.52212716  1
  O  O405  1  0.11521825  0.50445700  0.00457455  1
  O  O406  1  0.10558684  0.52286275  0.46159687  1
  O  O407  1  0.62073647  0.00773110  0.00300609  1
  O  O408  1  0.61320105  0.01015645  0.50665200  1
  O  O409  1  0.60928470  0.50892518  -0.01165830  1
  O  O410  1  0.61809301  0.49138700  0.50973877  1
  O  O411  1  0.36604884  0.37429327  0.11708278  1
  O  O412  1  0.37260277  0.38420702  0.61548449  1
  O  O413  1  0.36725031  0.86607136  0.13206679  1
  O  O414  1  0.36917459  0.87315113  0.62378831  1
  O  O415  1  0.87703605  0.35564219  0.12185256  1
  O  O416  1  0.86921100  0.37118779  0.61527432  1
  O  O417  1  0.87063929  0.86927942  0.12259542  1
  O  O418  1  0.86280974  0.87160282  0.63534602  1
  O  O419  1  0.11629216  0.13292297  0.36691685  1
  O  O420  1  0.12202216  0.12920728  0.88393884  1
  O  O421  1  0.14360945  0.64206608  0.36310098  1
  O  O422  1  0.12823744  0.62009553  0.89073670  1
  O  O423  1  0.62733449  0.11862342  0.38777684  1
  O  O424  1  0.62827434  0.13676581  0.88003278  1
  O  O425  1  0.62719701  0.63052694  0.36800123  1
  O  O426  1  0.62951038  0.63265726  0.87955194  1
