# generated using pymatgen
data_V85Zn86O256
_symmetry_space_group_name_H-M   'P 1'
_cell_length_a   16.95903182
_cell_length_b   16.98956843
_cell_length_c   16.98449440
_cell_angle_alpha   89.93242569
_cell_angle_beta   89.96465738
_cell_angle_gamma   89.77115046
_symmetry_Int_Tables_number   1
_chemical_formula_structural   V85Zn86O256
_chemical_formula_sum   'V85 Zn86 O256'
_cell_volume   4893.64180683
_cell_formula_units_Z   1
loop_
 _symmetry_equiv_pos_site_id
 _symmetry_equiv_pos_as_xyz
  1  'x, y, z'
loop_
 _atom_site_type_symbol
 _atom_site_label
 _atom_site_symmetry_multiplicity
 _atom_site_fract_x
 _atom_site_fract_y
 _atom_site_fract_z
 _atom_site_occupancy
  V  V0  1  0.50089489  0.37402981  0.37280337  1
  V  V1  1  0.25131265  0.37489474  0.62389588  1
  V  V2  1  0.12675921  0.37888148  0.24859619  1
  V  V3  1  0.49742062  0.89032170  0.87625833  1
  V  V4  1  0.37739789  0.50052411  0.37421521  1
  V  V5  1  0.36684596  0.12346748  0.24708566  1
  V  V6  1  0.00212749  0.11369227  0.12666668  1
  V  V7  1  0.24673989  0.37775660  0.12433811  1
  V  V8  1  0.62611585  0.74222646  0.87801943  1
  V  V9  1  0.00402404  0.62511151  0.12621809  1
  V  V10  1  0.23924195  -0.00845282  0.24907936  1
  V  V11  1  0.74630512  0.50862743  0.74703387  1
  V  V12  1  0.74541574  0.75048872  0.50115466  1
  V  V13  1  0.25028977  0.24690682  0.49729976  1
  V  V14  1  0.12461054  0.63070147  -0.00169790  1
  V  V15  1  0.12641338  0.24908017  0.37533242  1
  V  V16  1  0.24828279  0.50468261  0.24501444  1
  V  V17  1  -0.00259108  0.75502030  0.25135165  1
  V  V18  1  0.37961805  0.37266088  -0.00164570  1
  V  V19  1  0.37739930  0.88811841  -0.00296199  1
  V  V20  1  -0.00667106  0.24456168  0.75293804  1
  V  V21  1  0.61881530  0.12332489  0.50369176  1
  V  V22  1  0.37058894  0.00253213  0.37828746  1
  V  V23  1  -0.00028577  0.87421648  0.37726631  1
  V  V24  1  0.12287125  0.11470578  0.01062760  1
  V  V25  1  0.62688554  0.37895421  0.74170739  1
  V  V26  1  0.25383425  0.75201574  0.49774176  1
  V  V27  1  -0.00161828  -0.00066441  0.50462729  1
  V  V28  1  0.24536142  0.62548193  0.87319776  1
  V  V29  1  0.74568058  0.74280500  -0.00502607  1
  V  V30  1  0.87535477  0.12510165  0.24950515  1
  V  V31  1  0.24795592  0.24869326  -0.00207891  1
  V  V32  1  0.62704072  0.87439065  0.24514580  1
  V  V33  1  -0.00447848  0.12759436  0.63102473  1
  V  V34  1  0.38297304  0.74594557  0.12156852  1
  V  V35  1  0.50779682  0.61851256  0.62085342  1
  V  V36  1  0.50077295  0.24054070  0.74252553  1
  V  V37  1  0.37474316  0.62332914  0.74919442  1
  V  V38  1  0.87702113  0.88075556  -0.01285648  1
  V  V39  1  0.75005770  0.49257536  0.24111483  1
  V  V40  1  -0.00284413  0.62516533  0.62831775  1
  V  V41  1  0.49763897  0.24078720  0.24683679  1
  V  V42  1  0.87122724  0.75600988  0.62712642  1
  V  V43  1  0.12646546  0.24752905  0.87850800  1
  V  V44  1  0.12455550  0.62448340  0.50003041  1
  V  V45  1  0.62176726  0.51246940  0.12249798  1
  V  V46  1  0.00035729  0.37705444  0.87492426  1
  V  V47  1  0.86768453  0.50809662  0.87677550  1
  V  V48  1  0.12537255  0.49938078  0.62578965  1
  V  V49  1  0.60333981  0.00377391  0.12070265  1
  V  V50  1  0.87294255  -0.00108444  0.37669888  1
  V  V51  1  0.62478903  0.24826263  0.37266911  1
  V  V52  1  0.49535710  0.87321605  0.37464979  1
  V  V53  1  0.62820176  -0.00465026  0.62320358  1
  V  V54  1  0.74935483  0.12230408  0.37467312  1
  V  V55  1  0.63056313  0.25061047  0.87122722  1
  V  V56  1  0.50043482  0.75165202  0.75116079  1
  V  V57  1  0.12340846  0.75372128  0.37313045  1
  V  V58  1  0.86818700  0.37751326  0.00798652  1
  V  V59  1  0.87219587  0.62439279  0.24931968  1
  V  V60  1  0.49679737  -0.00233053  0.50163536  1
  V  V61  1  0.25248065  0.74841181  -0.00351994  1
  V  V62  1  0.37523048  0.37394341  0.49803775  1
  V  V63  1  0.75382528  0.24891714  0.50171953  1
  V  V64  1  0.86660079  0.75942367  0.12510177  1
  V  V65  1  0.74711884  0.24992987  0.00989781  1
  V  V66  1  0.12670138  0.86331042  0.75912279  1
  V  V67  1  0.86818372  0.87546331  0.50773061  1
  V  V68  1  0.25088818  0.49795334  0.74975986  1
  V  V69  1  0.25336578  0.87588614  0.62017870  1
  V  V70  1  0.00288678  0.75221906  0.76019088  1
  V  V71  1  0.13040018  0.12415451  0.49615753  1
  V  V72  1  0.75503392  0.00536123  0.75588802  1
  V  V73  1  0.87353389  0.49954453  0.37642104  1
  V  V74  1  0.38336930  0.62365098  0.24281090  1
  V  V75  1  0.50304233  0.51659667  0.00312847  1
  V  V76  1  0.62523486  0.37179682  0.23566111  1
  V  V77  1  0.00061208  0.25026829  0.24942340  1
  V  V78  1  0.37663679  0.75304930  0.62039527  1
  V  V79  1  0.75040992  -0.00312281  0.23778652  1
  V  V80  1  -0.00001912  0.37612657  0.37514843  1
  V  V81  1  0.00476538  0.50086450  0.00439952  1
  V  V82  1  0.13059431  -0.00215993  0.62644595  1
  V  V83  1  0.35724453  0.11982298  0.75035568  1
  V  V84  1  0.62956701  0.87576532  0.74910524  1
  Zn  Zn85  1  0.50471795  0.74590697  0.24546720  1
  Zn  Zn86  1  0.75082486  0.38299860  0.61947124  1
  Zn  Zn87  1  0.51082154  0.49124306  0.50562036  1
  Zn  Zn88  1  0.87255800  0.25372741  0.12913294  1
  Zn  Zn89  1  -0.00247282  0.49790321  0.50204394  1
  Zn  Zn90  1  0.50020980  0.37606253  0.87193811  1
  Zn  Zn91  1  0.76139913  0.12821917  0.87095643  1
  Zn  Zn92  1  0.26921480  -0.01826940  0.78209150  1
  Zn  Zn93  1  0.91064525  0.01099321  0.89048115  1
  Zn  Zn94  1  0.74478818  0.62485569  0.37370795  1
  Zn  Zn95  1  0.25076947  0.62670064  0.37066351  1
  Zn  Zn96  1  0.38494316  0.24546566  0.61811778  1
  Zn  Zn97  1  0.23852622  0.88391367  0.12073510  1
  Zn  Zn98  1  0.63203240  0.61060377  0.49895358  1
  Zn  Zn99  1  0.37705472  0.24095899  0.11700883  1
  Zn  Zn100  1  0.86841465  0.63305785  0.75839318  1
  Zn  Zn101  1  0.87702576  0.37294238  0.50330007  1
  Zn  Zn102  1  0.87100721  0.25051303  0.63335007  1
  Zn  Zn103  1  0.12554731  0.37384089  0.74930176  1
  Zn  Zn104  1  0.62346707  0.74769255  0.37411514  1
  Zn  Zn105  1  0.37748807  0.49985452  0.87583034  1
  Zn  Zn106  1  0.60950128  0.10946358  -0.00500577  1
  Zn  Zn107  1  0.19007840  0.18865404  0.18755188  1
  Zn  Zn108  1  0.18226045  0.19162507  0.68511102  1
  Zn  Zn109  1  0.16592171  0.73100382  0.16503407  1
  Zn  Zn110  1  0.18907000  0.68600566  0.68505665  1
  Zn  Zn111  1  0.68441370  0.18130226  0.18527935  1
  Zn  Zn112  1  0.68574236  0.18431667  0.68427005  1
  Zn  Zn113  1  0.68920884  0.68753181  0.18680520  1
  Zn  Zn114  1  0.68750897  0.68997960  0.68878889  1
  Zn  Zn115  1  0.31178370  0.31253158  0.31297778  1
  Zn  Zn116  1  0.31517191  0.31050937  0.81281529  1
  Zn  Zn117  1  0.31477470  0.81237457  0.31048678  1
  Zn  Zn118  1  0.31591713  0.80954776  0.81340645  1
  Zn  Zn119  1  0.81135074  0.31272109  0.31426808  1
  Zn  Zn120  1  0.81115226  0.32092756  0.81618913  1
  Zn  Zn121  1  0.81024011  0.81428954  0.31672557  1
  Zn  Zn122  1  0.81249818  0.81644165  0.81454714  1
  Zn  Zn123  1  0.18892997  0.43724770  0.43527872  1
  Zn  Zn124  1  0.18737711  0.43942888  0.93832397  1
  Zn  Zn125  1  0.18909615  0.93672112  0.43678612  1
  Zn  Zn126  1  0.18854592  0.93476101  0.94074091  1
  Zn  Zn127  1  0.68707985  0.43482317  0.43192107  1
  Zn  Zn128  1  0.68363229  0.43651151  0.93598261  1
  Zn  Zn129  1  0.68527812  0.93492796  0.43268474  1
  Zn  Zn130  1  0.69232188  0.92874667  0.94105355  1
  Zn  Zn131  1  0.30710437  0.06439863  0.06769068  1
  Zn  Zn132  1  0.31919107  0.06648930  0.56894572  1
  Zn  Zn133  1  0.31543226  0.56161637  0.06287619  1
  Zn  Zn134  1  0.31555014  0.56307075  0.56165854  1
  Zn  Zn135  1  0.81575986  0.06933753  0.05560469  1
  Zn  Zn136  1  0.80958902  0.06242078  0.56812820  1
  Zn  Zn137  1  0.81256770  0.56600586  0.06358526  1
  Zn  Zn138  1  0.81207764  0.56612561  0.56404133  1
  Zn  Zn139  1  0.43857243  0.43301098  0.18246869  1
  Zn  Zn140  1  0.43676250  0.43346845  0.68749021  1
  Zn  Zn141  1  0.43075619  0.93267518  0.18814978  1
  Zn  Zn142  1  0.44115488  0.94038428  0.68665505  1
  Zn  Zn143  1  0.93949726  0.43825979  0.18793761  1
  Zn  Zn144  1  0.93173951  0.43590675  0.68881792  1
  Zn  Zn145  1  0.93605738  0.93624386  0.18668280  1
  Zn  Zn146  1  0.96477213  0.96530239  0.72862263  1
  Zn  Zn147  1  0.05944060  0.06265551  0.31517809  1
  Zn  Zn148  1  0.10172008  0.04401623  0.83569245  1
  Zn  Zn149  1  0.06239829  0.56436917  0.31210807  1
  Zn  Zn150  1  0.06188789  0.56272641  0.81297128  1
  Zn  Zn151  1  0.56077556  0.05978556  0.31218841  1
  Zn  Zn152  1  0.57051212  0.06643013  0.81147859  1
  Zn  Zn153  1  0.56629408  0.56123940  0.31414203  1
  Zn  Zn154  1  0.56022361  0.56061434  0.81339900  1
  Zn  Zn155  1  0.43577427  0.18404251  0.43130213  1
  Zn  Zn156  1  0.43984830  0.17987086  0.92582244  1
  Zn  Zn157  1  0.43976245  0.68512746  0.43426033  1
  Zn  Zn158  1  0.43642420  0.69257232  0.93177701  1
  Zn  Zn159  1  0.94026612  0.18490247  0.43781138  1
  Zn  Zn160  1  0.93824199  0.18835834  0.94130727  1
  Zn  Zn161  1  0.93378818  0.68583787  0.43912350  1
  Zn  Zn162  1  0.93499072  0.69088034  0.94198227  1
  Zn  Zn163  1  0.06060475  0.31128645  0.06670183  1
  Zn  Zn164  1  0.06150650  0.31301011  0.56344256  1
  Zn  Zn165  1  0.05764757  0.82604851  0.05928957  1
  Zn  Zn166  1  0.06029133  0.81232343  0.56577965  1
  Zn  Zn167  1  0.54247214  0.27258106  0.04388573  1
  Zn  Zn168  1  0.56764806  0.31461703  0.56087058  1
  Zn  Zn169  1  0.56335616  0.81851324  0.06049968  1
  Zn  Zn170  1  0.56091380  0.81560076  0.56302117  1
  O  O171  1  0.11746210  0.13230023  0.11799276  1
  O  O172  1  0.12081801  0.11633995  0.61630130  1
  O  O173  1  0.11084858  0.63517761  0.11677606  1
  O  O174  1  0.11808595  0.62128652  0.61744325  1
  O  O175  1  0.62395012  0.10624324  0.12522607  1
  O  O176  1  0.62543217  0.11478050  0.61017252  1
  O  O177  1  0.62232617  0.61149878  0.13078750  1
  O  O178  1  0.60956952  0.63117196  0.62557598  1
  O  O179  1  0.38017762  0.38206865  0.37769062  1
  O  O180  1  0.37408905  0.37899050  0.88578131  1
  O  O181  1  0.38677982  0.88590150  0.36725102  1
  O  O182  1  0.38015801  0.87418258  0.88553120  1
  O  O183  1  0.88118807  0.38478285  0.37434883  1
  O  O184  1  0.88545907  0.38509089  0.88567026  1
  O  O185  1  0.88077917  0.87989720  0.38620959  1
  O  O186  1  0.87265222  0.88434139  0.88368163  1
  O  O187  1  0.26210189  -0.00896057  0.36769284  1
  O  O188  1  0.20926365  0.01413176  0.86656653  1
  O  O189  1  0.26245862  0.49871769  0.36583705  1
  O  O190  1  0.25193105  0.50946341  0.86988442  1
  O  O191  1  0.75449751  0.00490725  0.36770416  1
  O  O192  1  0.73914653  0.00181447  0.86015140  1
  O  O193  1  0.75988374  0.49994940  0.36252941  1
  O  O194  1  0.76020492  0.49420969  0.86717080  1
  O  O195  1  0.25647696  0.48969672  0.13341776  1
  O  O196  1  0.24614069  0.49576427  0.62917428  1
  O  O197  1  0.24879814  0.99975538  0.14328565  1
  O  O198  1  0.24511215  0.98700661  0.61450152  1
  O  O199  1  0.74276431  0.50323440  0.13422372  1
  O  O200  1  0.75665581  0.50183156  0.64260464  1
  O  O201  1  0.75409159  1.00465426  0.13786916  1
  O  O202  1  0.73529242  1.00128134  0.63313601  1
  O  O203  1  0.00681997  0.37100847  0.25478581  1
  O  O204  1  0.00134462  0.36975361  0.76201830  1
  O  O205  1  -0.00920038  0.86100184  0.25911942  1
  O  O206  1  0.01997587  0.86251114  0.73657321  1
  O  O207  1  0.50585717  0.36739857  0.25593023  1
  O  O208  1  0.51028167  0.37172868  0.75075902  1
  O  O209  1  0.50733299  0.87449316  0.25785907  1
  O  O210  1  0.50548898  0.87125151  0.75727732  1
  O  O211  1  0.48913843  0.13289920  0.25710191  1
  O  O212  1  0.50663774  0.13955922  0.74690398  1
  O  O213  1  0.48731177  0.62540304  0.25475315  1
  O  O214  1  0.49527560  0.63024961  0.73994766  1
  O  O215  1  0.99522471  0.13073749  0.24670343  1
  O  O216  1  1.01294077  0.13740204  0.73822472  1
  O  O217  1  0.99310157  0.63198743  0.24412954  1
  O  O218  1  1.00170233  0.63259583  0.73995187  1
  O  O219  1  0.36143178  0.25509260  -0.00410744  1
  O  O220  1  0.36714290  0.25271348  0.49710258  1
  O  O221  1  0.36934815  0.75393772  0.00367305  1
  O  O222  1  0.36491757  0.74145364  0.50814289  1
  O  O223  1  0.86188655  0.25972964  0.00140876  1
  O  O224  1  0.86312585  0.24726818  0.49670215  1
  O  O225  1  0.86488335  0.75560794  0.00556737  1
  O  O226  1  0.86853511  0.75637535  0.50684778  1
  O  O227  1  0.13066129  0.24261549  0.49627941  1
  O  O228  1  0.13285392  0.25388527  0.99575314  1
  O  O229  1  0.13095907  0.74163559  0.49474878  1
  O  O230  1  0.13603984  0.73643246  0.99861983  1
  O  O231  1  0.63096056  0.24094875  0.49366392  1
  O  O232  1  0.64322342  0.26836990  0.98761520  1
  O  O233  1  0.63875720  0.75461741  0.50342353  1
  O  O234  1  0.63776333  0.75994073  0.99443100  1
  O  O235  1  0.49095145  0.25911732  0.14515407  1
  O  O236  1  0.50434931  0.25697415  0.63861659  1
  O  O237  1  0.48717319  0.75656453  0.12379543  1
  O  O238  1  0.49208662  0.74495209  0.62880915  1
  O  O239  1  0.99743674  0.24345804  0.13542259  1
  O  O240  1  1.00159463  0.24446240  0.63480841  1
  O  O241  1  0.98904640  0.74231745  0.13568264  1
  O  O242  1  0.99220582  0.74157048  0.63053502  1
  O  O243  1  0.00621545  0.25520985  0.36923699  1
  O  O244  1  0.00530239  0.25963778  0.87334273  1
  O  O245  1  0.00301918  0.75258141  0.37080222  1
  O  O246  1  -0.00494396  0.74279894  0.85880319  1
  O  O247  1  0.50500495  0.25428787  0.36619073  1
  O  O248  1  0.51254775  0.25554160  0.85715748  1
  O  O249  1  0.49991960  0.76106254  0.37306671  1
  O  O250  1  0.50545048  0.76092722  0.86889488  1
  O  O251  1  0.24042603  0.13365226  0.50775040  1
  O  O252  1  0.23527532  0.13859028  1.01221993  1
  O  O253  1  0.24072526  0.63438738  0.50030818  1
  O  O254  1  0.24444704  0.62636799  0.99301835  1
  O  O255  1  0.74126277  0.12884958  0.49400803  1
  O  O256  1  0.74209126  0.14343616  1.00058508  1
  O  O257  1  0.75003551  0.63678336  0.49853481  1
  O  O258  1  0.75513832  0.64253458  0.99971636  1
  O  O259  1  0.25548910  0.37235133  0.00675027  1
  O  O260  1  0.25537847  0.36829241  0.50399160  1
  O  O261  1  0.25910960  0.86453173  -0.00429543  1
  O  O262  1  0.24731825  0.86090451  0.50685731  1
  O  O263  1  0.76162545  0.36897811  -0.00671281  1
  O  O264  1  0.74969230  0.35982625  0.49769797  1
  O  O265  1  0.76525861  0.85939945  -0.00107815  1
  O  O266  1  0.76069686  0.86829445  0.49481576  1
  O  O267  1  0.13855595  0.49500597  0.25847933  1
  O  O268  1  0.13218919  0.49856982  0.74372918  1
  O  O269  1  0.14111547  1.00342210  0.26469669  1
  O  O270  1  0.13019697  0.98084643  0.73088534  1
  O  O271  1  0.63021644  0.49154753  0.24258423  1
  O  O272  1  0.63867487  0.49405273  0.75940502  1
  O  O273  1  0.63014201  0.99552175  0.23975348  1
  O  O274  1  0.62800345  0.99367321  0.74048114  1
  O  O275  1  0.36935938  0.00930962  0.25683398  1
  O  O276  1  0.36950437  0.01192463  0.74046639  1
  O  O277  1  0.37104248  0.50320246  0.25440377  1
  O  O278  1  0.36847536  0.50557775  0.75101777  1
  O  O279  1  0.86841229  0.00330665  0.25692143  1
  O  O280  1  0.85283149  -0.01196367  0.74288865  1
  O  O281  1  0.86804361  0.50276474  0.25397698  1
  O  O282  1  0.86446096  0.50195998  0.76010284  1
  O  O283  1  0.11979281  0.37007240  0.36906904  1
  O  O284  1  0.11349565  0.36977800  0.87795833  1
  O  O285  1  0.11623483  0.86075556  0.38537446  1
  O  O286  1  0.13116928  0.86744360  0.85700258  1
  O  O287  1  0.61896770  0.36605097  0.36318002  1
  O  O288  1  0.62587526  0.36600038  0.86134912  1
  O  O289  1  0.61440091  0.87555665  0.36291769  1
  O  O290  1  0.61546458  0.86693576  0.86864253  1
  O  O291  1  0.37360328  0.12506291  0.14191277  1
  O  O292  1  0.37554029  0.13309801  0.64125653  1
  O  O293  1  0.37414433  0.63162943  0.13226458  1
  O  O294  1  0.38138764  0.63537087  0.62947660  1
  O  O295  1  0.88390067  0.12938295  0.13148975  1
  O  O296  1  0.89102739  0.12749356  0.61995536  1
  O  O297  1  0.88401577  0.63432481  0.13010296  1
  O  O298  1  0.88498564  0.63454532  0.62797522  1
  O  O299  1  0.25333149  0.26020763  0.11686712  1
  O  O300  1  0.24683643  0.25795505  0.61119309  1
  O  O301  1  0.26532520  0.74501793  0.10726640  1
  O  O302  1  0.25707365  0.75513397  0.61729611  1
  O  O303  1  0.74734984  0.25086097  0.11344247  1
  O  O304  1  0.75131057  0.24567318  0.61210993  1
  O  O305  1  0.75824011  0.74561798  0.11466948  1
  O  O306  1  0.76314318  0.74421297  0.61890444  1
  O  O307  1  0.24268133  0.25687220  0.38926438  1
  O  O308  1  0.23760504  0.25970976  0.88553354  1
  O  O309  1  0.24261951  0.74982607  0.38106986  1
  O  O310  1  0.25796925  0.73649822  0.88425489  1
  O  O311  1  0.74401688  0.24193862  0.38064574  1
  O  O312  1  0.74457934  0.24975944  0.87858258  1
  O  O313  1  0.74936110  0.74733150  0.38716646  1
  O  O314  1  0.74218247  0.75262471  0.88475069  1
  O  O315  1  0.01341904  0.13338654  0.01404472  1
  O  O316  1  0.01009245  0.12006413  0.50937655  1
  O  O317  1  0.00571681  0.62159316  0.00598528  1
  O  O318  1  0.00813864  0.62593584  0.51017267  1
  O  O319  1  0.51254196  0.16716446  0.00681075  1
  O  O320  1  0.51131413  0.11422576  0.48921872  1
  O  O321  1  0.49459834  0.61439230  -0.00192756  1
  O  O322  1  0.49998928  0.62587824  0.51460280  1
  O  O323  1  0.49347135  0.37162414  0.49146151  1
  O  O324  1  0.48581214  0.36600708  0.99817377  1
  O  O325  1  0.50668950  0.88620078  0.48798142  1
  O  O326  1  0.48449405  0.87381020  0.99187823  1
  O  O327  1  0.99901347  0.37790990  0.49063157  1
  O  O328  1  0.99479841  0.38351343  0.99519576  1
  O  O329  1  0.99104622  0.87990127  0.49744675  1
  O  O330  1  0.97830008  0.86165418  0.99571401  1
  O  O331  1  0.48890721  0.49277843  0.37284236  1
  O  O332  1  0.50077809  0.49580490  0.89066911  1
  O  O333  1  0.49319512  0.99258153  0.38118946  1
  O  O334  1  0.50833417  0.98934481  0.87112136  1
  O  O335  1  0.98994611  0.49546571  0.37350374  1
  O  O336  1  0.99413514  0.49405217  0.88344584  1
  O  O337  1  0.99313748  0.99472271  0.38390511  1
  O  O338  1  1.00237942  0.99703499  0.83186984  1
  O  O339  1  0.00058018  0.01389306  0.13500279  1
  O  O340  1  0.01086157  0.00773283  0.62406812  1
  O  O341  1  -0.00663593  0.51291290  0.11558173  1
  O  O342  1  0.00370741  0.50997371  0.62595700  1
  O  O343  1  0.50446199  -0.00009606  0.12696360  1
  O  O344  1  0.51064347  -0.00604600  0.61135752  1
  O  O345  1  0.50591835  0.49552059  0.11085821  1
  O  O346  1  0.49299987  0.51602695  0.62530232  1
  O  O347  1  0.24825137  0.38204396  0.24287139  1
  O  O348  1  0.25000195  0.37942609  0.74255316  1
  O  O349  1  0.25581276  0.88803705  0.24725816  1
  O  O350  1  0.24307611  0.86966562  0.74009450  1
  O  O351  1  0.74035462  0.38331715  0.25395659  1
  O  O352  1  0.74363165  0.38611433  0.74779524  1
  O  O353  1  0.73931644  0.88573056  0.25811383  1
  O  O354  1  0.73434749  0.88321687  0.75635206  1
  O  O355  1  0.26056726  0.11706969  0.25112988  1
  O  O356  1  0.25613046  0.13003255  0.74823322  1
  O  O357  1  0.26245069  0.61216937  0.25071510  1
  O  O358  1  0.25337562  0.62034754  0.75560860  1
  O  O359  1  0.75520544  0.11714085  0.25543647  1
  O  O360  1  0.74472044  0.11024030  0.74946204  1
  O  O361  1  0.75613663  0.61350926  0.25074601  1
  O  O362  1  0.74898613  0.61339216  0.75130134  1
  O  O363  1  0.37672092  0.11163375  0.36416776  1
  O  O364  1  0.37915206  0.12891664  0.84968117  1
  O  O365  1  0.37322300  0.61557783  0.36724734  1
  O  O366  1  0.36590782  0.62254049  0.86725579  1
  O  O367  1  0.87117671  0.11732794  0.36994311  1
  O  O368  1  0.87052263  0.11457849  0.89588738  1
  O  O369  1  0.87573827  0.61473664  0.36739908  1
  O  O370  1  0.88257504  0.61220061  0.87502533  1
  O  O371  1  0.13732034  0.37136504  0.13228978  1
  O  O372  1  0.13164063  0.38279658  0.62497107  1
  O  O373  1  0.13540112  0.83909948  0.13262604  1
  O  O374  1  0.13740400  0.87837348  0.62321823  1
  O  O375  1  0.62065834  0.38100305  0.13674558  1
  O  O376  1  0.63102975  0.37387856  0.63662500  1
  O  O377  1  0.61797653  0.88806606  0.13698293  1
  O  O378  1  0.61892037  0.88220244  0.63771622  1
  O  O379  1  0.12237643  0.25640183  0.25696525  1
  O  O380  1  0.11687169  0.25353981  0.76259679  1
  O  O381  1  0.11068990  0.73814631  0.26604088  1
  O  O382  1  0.12044975  0.75704337  0.74241088  1
  O  O383  1  0.61837223  0.25234915  0.25214743  1
  O  O384  1  0.62119058  0.25664712  0.75216774  1
  O  O385  1  0.62466653  0.76067646  0.24822885  1
  O  O386  1  0.62152538  0.75880597  0.75634525  1
  O  O387  1  0.37769680  0.23522934  0.25711936  1
  O  O388  1  0.38949890  0.24621505  0.74804006  1
  O  O389  1  0.37409378  0.74074207  0.23958073  1
  O  O390  1  0.38002793  0.74366323  0.74069855  1
  O  O391  1  0.88012257  0.24345569  0.25130803  1
  O  O392  1  0.88927026  0.25505499  0.75558159  1
  O  O393  1  0.87761791  0.74542874  0.24579666  1
  O  O394  1  0.88107910  0.75241964  0.74317105  1
  O  O395  1  0.37687220  0.49436474  0.48884103  1
  O  O396  1  0.38892443  0.49177860  1.00175871  1
  O  O397  1  0.38605316  1.00928199  0.49247836  1
  O  O398  1  0.36336260  0.98593048  1.00396007  1
  O  O399  1  0.87410075  0.50008280  0.48770129  1
  O  O400  1  0.88227047  0.49672161  0.99585414  1
  O  O401  1  0.87722658  0.99335767  0.49851751  1
  O  O402  1  0.87106729  0.98375423  1.00383038  1
  O  O403  1  0.12765238  0.01633021  0.00547043  1
  O  O404  1  0.12085202  0.00483300  0.50635483  1
  O  O405  1  0.11245299  0.51114414  -0.00301602  1
  O  O406  1  0.12539151  0.51091994  0.50396605  1
  O  O407  1  0.62900167  -0.00586925  0.01701011  1
  O  O408  1  0.62026390  0.00413231  0.50371294  1
  O  O409  1  0.61143588  0.49397179  0.00702028  1
  O  O410  1  0.62338409  0.49719327  0.49845168  1
  O  O411  1  0.36438347  0.37014668  0.11540119  1
  O  O412  1  0.36907803  0.37100918  0.61569657  1
  O  O413  1  0.36920470  0.86722145  0.11036572  1
  O  O414  1  0.36709051  0.86279683  0.63126237  1
  O  O415  1  0.88158512  0.37400841  0.11279947  1
  O  O416  1  0.87012614  0.36895318  0.62042860  1
  O  O417  1  0.87860524  0.86257352  0.12033748  1
  O  O418  1  0.88190719  0.86370540  0.61354234  1
  O  O419  1  0.11775233  0.13088346  0.39023620  1
  O  O420  1  0.11470880  0.14275945  0.89820133  1
  O  O421  1  0.12513715  0.63322325  0.38574106  1
  O  O422  1  0.13561727  0.62114321  0.88263820  1
  O  O423  1  0.63021574  0.12786251  0.38128180  1
  O  O424  1  0.63012571  0.13942524  0.87826484  1
  O  O425  1  0.62594778  0.63067332  0.38019935  1
  O  O426  1  0.61459060  0.64357903  0.87104655  1
