# generated using pymatgen
data_V85Zn86O256
_symmetry_space_group_name_H-M   'P 1'
_cell_length_a   16.95977087
_cell_length_b   16.96248789
_cell_length_c   16.95085554
_cell_angle_alpha   89.98057105
_cell_angle_beta   90.07802181
_cell_angle_gamma   90.10395907
_symmetry_Int_Tables_number   1
_chemical_formula_structural   V85Zn86O256
_chemical_formula_sum   'V85 Zn86 O256'
_cell_volume   4876.40773653
_cell_formula_units_Z   1
loop_
 _symmetry_equiv_pos_site_id
 _symmetry_equiv_pos_as_xyz
  1  'x, y, z'
loop_
 _atom_site_type_symbol
 _atom_site_label
 _atom_site_symmetry_multiplicity
 _atom_site_fract_x
 _atom_site_fract_y
 _atom_site_fract_z
 _atom_site_occupancy
  V  V0  1  0.12510165  0.75216104  0.37607730  1
  V  V1  1  0.24690068  0.00078549  0.74048787  1
  V  V2  1  0.25086156  0.24806501  0.00043302  1
  V  V3  1  0.12613727  0.36746741  0.25311369  1
  V  V4  1  0.49728097  -0.00523603  -0.00203968  1
  V  V5  1  0.74829211  0.62403680  0.87444462  1
  V  V6  1  0.87575846  0.24702672  0.62573926  1
  V  V7  1  0.37577140  0.37363618  -0.00124614  1
  V  V8  1  0.24767485  0.62818671  0.37618623  1
  V  V9  1  0.87746667  0.50385886  0.36640568  1
  V  V10  1  0.88104957  0.49694631  0.87567247  1
  V  V11  1  0.74935357  0.36784151  0.11666549  1
  V  V12  1  0.63131591  0.87405584  0.74288283  1
  V  V13  1  0.37489252  0.36877135  0.50576634  1
  V  V14  1  0.00298310  0.12334164  0.62848562  1
  V  V15  1  0.74831674  0.50209828  0.74719885  1
  V  V16  1  0.25295260  0.12265232  0.37597100  1
  V  V17  1  0.75478312  0.62435553  0.37025425  1
  V  V18  1  0.36834511  0.62417049  0.74739530  1
  V  V19  1  0.61789401  0.74037711  0.37609220  1
  V  V20  1  0.24620255  0.62577639  0.87937046  1
  V  V21  1  0.00105549  0.12311460  0.12628614  1
  V  V22  1  0.86053852  -0.00331354  0.87986682  1
  V  V23  1  0.49932368  0.37056468  0.37026060  1
  V  V24  1  0.75140307  0.87402118  0.12409659  1
  V  V25  1  0.26982686  0.75307925  0.00391588  1
  V  V26  1  0.62386480  0.62448774  0.00044804  1
  V  V27  1  0.37297664  0.50106110  0.37216242  1
  V  V28  1  0.87057639  0.87472149  0.50214653  1
  V  V29  1  0.12041859  0.37544828  0.75247433  1
  V  V30  1  0.74966984  -0.00169427  0.24789264  1
  V  V31  1  0.00110306  0.62634473  0.62708636  1
  V  V32  1  0.50297253  0.12685614  0.12540497  1
  V  V33  1  0.87691371  -0.00052680  0.37285690  1
  V  V34  1  0.50191427  0.62436774  0.61735220  1
  V  V35  1  0.62503192  0.49972295  0.12444332  1
  V  V36  1  0.11757915  0.25287806  0.87468510  1
  V  V37  1  0.37665174  0.90157837  0.50047599  1
  V  V38  1  0.12483040  0.87901854  0.74809958  1
  V  V39  1  0.00140109  0.50063496  0.50017823  1
  V  V40  1  0.87006007  0.75457013  0.62678212  1
  V  V41  1  0.62455158  0.50088847  0.62328856  1
  V  V42  1  0.74737136  0.74552031  0.50068754  1
  V  V43  1  0.49941989  0.50134160  -0.00164803  1
  V  V44  1  0.62377777  0.74925219  0.87233097  1
  V  V45  1  0.50362017  0.50260121  0.49972903  1
  V  V46  1  0.25103254  0.37394264  0.12589245  1
  V  V47  1  0.87258915  0.73572326  0.13329980  1
  V  V48  1  0.87654417  0.37682859  0.49917944  1
  V  V49  1  0.37096647  0.50114421  0.87006661  1
  V  V50  1  0.12990996  0.63120900  0.50257679  1
  V  V51  1  0.12353881  0.75149998  0.88423381  1
  V  V52  1  0.24337888  0.25334059  0.49730620  1
  V  V53  1  0.12662836  0.12320417  0.00030745  1
  V  V54  1  0.00552592  -0.01023829  -0.00909065  1
  V  V55  1  0.12290187  0.12893586  0.49676139  1
  V  V56  1  0.63569096  0.13369305  -0.01541306  1
  V  V57  1  0.37474948  -0.00756671  0.87505083  1
  V  V58  1  -0.00084345  0.75760156  0.75937259  1
  V  V59  1  0.00415665  -0.00089463  0.50512574  1
  V  V60  1  0.13207834  0.50147818  0.63188890  1
  V  V61  1  0.50348866  0.13721772  0.62111373  1
  V  V62  1  0.88080585  0.36645183  -0.00437590  1
  V  V63  1  0.38018660  0.24950081  0.13111807  1
  V  V64  1  0.74963025  0.37719823  0.62443259  1
  V  V65  1  0.75049670  0.12596799  0.37344178  1
  V  V66  1  0.87465139  0.62655442  0.75112751  1
  V  V67  1  0.25150995  0.37328968  0.62968070  1
  V  V68  1  0.25004764  0.50258828  0.24990278  1
  V  V69  1  0.36955376  0.75087751  0.60861428  1
  V  V70  1  0.50427541  0.36377502  0.86823174  1
  V  V71  1  0.74827406  0.74952041  0.00008443  1
  V  V72  1  0.38374165  0.13985721  0.74802904  1
  V  V73  1  0.01484240  0.62026678  0.12562073  1
  V  V74  1  0.26407401  0.87486818  0.12409074  1
  V  V75  1  0.00511826  0.36802139  0.37465336  1
  V  V76  1  0.49711846  0.75471685  0.74681145  1
  V  V77  1  0.48880521  0.62909202  0.13496655  1
  V  V78  1  0.50250180  0.89693816  0.38237694  1
  V  V79  1  0.62571886  0.37392637  0.24830063  1
  V  V80  1  0.37645537  0.12159450  0.25420511  1
  V  V81  1  0.25048092  0.12427983  0.87303374  1
  V  V82  1  0.62484387  0.25135489  0.37305596  1
  V  V83  1  0.74934434  0.25101971  0.49798213  1
  V  V84  1  0.74997308  0.00054320  0.73522937  1
  Zn  Zn85  1  0.12281248  0.87349152  0.24674627  1
  Zn  Zn86  1  0.88289037  0.86616444  -0.00335139  1
  Zn  Zn87  1  0.61914898  0.87360795  0.25032651  1
  Zn  Zn88  1  0.87297533  0.24672015  0.12344596  1
  Zn  Zn89  1  0.47035984  0.76456520  0.23511245  1
  Zn  Zn90  1  0.13114972  0.50014096  0.11480351  1
  Zn  Zn91  1  0.12543847  -0.00708406  0.12985994  1
  Zn  Zn92  1  0.00246363  0.87404041  0.37168140  1
  Zn  Zn93  1  0.62227233  0.36806847  0.75108795  1
  Zn  Zn94  1  0.75552549  0.50383763  0.24428799  1
  Zn  Zn95  1  0.25005729  -0.00478737  0.25720476  1
  Zn  Zn96  1  0.00168984  0.24594058  0.25176840  1
  Zn  Zn97  1  -0.00479673  0.74592056  0.25543986  1
  Zn  Zn98  1  0.24135446  0.87381621  0.61451370  1
  Zn  Zn99  1  0.86921124  0.12959165  0.76228094  1
  Zn  Zn100  1  0.49524162  0.87090330  0.88004879  1
  Zn  Zn101  1  0.62581452  -0.00080140  0.12056818  1
  Zn  Zn102  1  -0.00380099  0.25139541  0.75567733  1
  Zn  Zn103  1  0.61827944  0.11509901  0.49633478  1
  Zn  Zn104  1  0.00950421  0.50237100  -0.00729892  1
  Zn  Zn105  1  0.60541593  -0.01218132  0.60961590  1
  Zn  Zn106  1  0.87672545  0.12885202  0.24736606  1
  Zn  Zn107  1  0.18790433  0.18516689  0.18773937  1
  Zn  Zn108  1  0.18813846  0.18972917  0.68660573  1
  Zn  Zn109  1  0.19280543  0.69221252  0.19024499  1
  Zn  Zn110  1  0.18791017  0.69457903  0.68954621  1
  Zn  Zn111  1  0.68662297  0.18705331  0.18602254  1
  Zn  Zn112  1  0.68849653  0.18357594  0.68772061  1
  Zn  Zn113  1  0.68142256  0.68779313  0.19140264  1
  Zn  Zn114  1  0.68521942  0.68628930  0.68505709  1
  Zn  Zn115  1  0.31091403  0.30976486  0.31443079  1
  Zn  Zn116  1  0.30671385  0.31587034  0.81474666  1
  Zn  Zn117  1  0.31341574  0.82012853  0.31509461  1
  Zn  Zn118  1  0.30807102  0.81180344  0.80768947  1
  Zn  Zn119  1  0.81551510  0.31424066  0.30687896  1
  Zn  Zn120  1  0.80893743  0.31457458  0.81095767  1
  Zn  Zn121  1  0.81051372  0.81323487  0.31403473  1
  Zn  Zn122  1  0.81215491  0.81769364  0.81592884  1
  Zn  Zn123  1  0.18520886  0.44020550  0.44009952  1
  Zn  Zn124  1  0.18740099  0.43658268  0.93729643  1
  Zn  Zn125  1  0.18852794  0.94048344  0.44066964  1
  Zn  Zn126  1  0.19054180  0.93209729  0.93516866  1
  Zn  Zn127  1  0.68927776  0.43938916  0.43702599  1
  Zn  Zn128  1  0.68945675  0.43530917  0.93695194  1
  Zn  Zn129  1  0.68737332  0.93365522  0.43725215  1
  Zn  Zn130  1  0.67902442  0.93674346  0.93820227  1
  Zn  Zn131  1  0.31540060  0.06047324  0.06256080  1
  Zn  Zn132  1  0.31414287  0.07288239  0.56839778  1
  Zn  Zn133  1  0.31157721  0.56289093  0.05963005  1
  Zn  Zn134  1  0.31495288  0.55940619  0.55925824  1
  Zn  Zn135  1  0.81510614  0.06258287  0.05953444  1
  Zn  Zn136  1  0.80840631  0.06309033  0.55768516  1
  Zn  Zn137  1  0.81166114  0.55595488  0.05826757  1
  Zn  Zn138  1  0.81385329  0.56546266  0.55904278  1
  Zn  Zn139  1  0.43820970  0.43977160  0.18729871  1
  Zn  Zn140  1  0.43698663  0.43614753  0.68910500  1
  Zn  Zn141  1  0.43799412  0.94340717  0.19115027  1
  Zn  Zn142  1  0.43454843  0.94515412  0.68557500  1
  Zn  Zn143  1  0.94000836  0.43480363  0.18411976  1
  Zn  Zn144  1  0.93919512  0.43869874  0.68800264  1
  Zn  Zn145  1  0.94022576  0.93208464  0.18494482  1
  Zn  Zn146  1  0.93505161  0.93778586  0.69054265  1
  Zn  Zn147  1  0.06721274  0.06020368  0.31280519  1
  Zn  Zn148  1  0.06142552  0.06281202  0.81300017  1
  Zn  Zn149  1  0.06181585  0.56165414  0.30596898  1
  Zn  Zn150  1  0.06418541  0.56671283  0.81114997  1
  Zn  Zn151  1  0.56641278  0.06845856  0.30454465  1
  Zn  Zn152  1  0.56294049  0.06110091  0.80848923  1
  Zn  Zn153  1  0.56515914  0.56067550  0.31343664  1
  Zn  Zn154  1  0.55886072  0.56134459  0.80847772  1
  Zn  Zn155  1  0.43612965  0.18800756  0.43965763  1
  Zn  Zn156  1  0.43960714  0.18180532  0.93854746  1
  Zn  Zn157  1  0.41301653  0.70836011  0.40432744  1
  Zn  Zn158  1  0.44002938  0.68423039  0.93702615  1
  Zn  Zn159  1  0.93553271  0.18634767  0.43900827  1
  Zn  Zn160  1  0.93623002  0.17906495  0.94142220  1
  Zn  Zn161  1  0.93915365  0.68542860  0.43878342  1
  Zn  Zn162  1  0.93725431  0.68392888  0.94341749  1
  Zn  Zn163  1  0.06323881  0.31342579  0.06309071  1
  Zn  Zn164  1  0.06271458  0.31252143  0.56426669  1
  Zn  Zn165  1  0.06679238  0.80887797  0.06983131  1
  Zn  Zn166  1  0.05784483  0.81325230  0.56524500  1
  Zn  Zn167  1  0.56327142  0.31051052  0.05534968  1
  Zn  Zn168  1  0.56228761  0.31145474  0.56309085  1
  Zn  Zn169  1  0.56287852  0.81157947  0.06407694  1
  Zn  Zn170  1  0.55840082  0.81098433  0.55718892  1
  O  O171  1  0.12065124  0.11961888  0.11754568  1
  O  O172  1  0.11212483  0.13093675  0.61477349  1
  O  O173  1  0.11707277  0.62826540  0.12499365  1
  O  O174  1  0.12395979  0.62072588  0.62267938  1
  O  O175  1  0.61335427  0.12365039  0.12307997  1
  O  O176  1  0.61319354  0.12707563  0.62453272  1
  O  O177  1  0.61943893  0.61870853  0.11935800  1
  O  O178  1  0.60980514  0.61938347  0.62755822  1
  O  O179  1  0.38144147  0.38021390  0.38211375  1
  O  O180  1  0.38058946  0.38382828  0.87661028  1
  O  O181  1  0.38975541  0.88027173  0.39099624  1
  O  O182  1  0.37494200  0.88763035  0.86621481  1
  O  O183  1  0.88320621  0.38375718  0.38078857  1
  O  O184  1  0.86767288  0.38138624  0.88593632  1
  O  O185  1  0.87696259  0.88327918  0.38358546  1
  O  O186  1  0.87487485  0.88811486  0.88096125  1
  O  O187  1  0.25057916  0.01859934  0.38022513  1
  O  O188  1  0.25666339  0.00554098  0.86894165  1
  O  O189  1  0.25425900  0.50298467  0.36895061  1
  O  O190  1  0.26275939  0.51064655  0.88071767  1
  O  O191  1  0.75876996  0.00313490  0.36662254  1
  O  O192  1  0.75878960  -0.00317386  0.87507695  1
  O  O193  1  0.75968144  0.50768229  0.37692073  1
  O  O194  1  0.75803466  0.50544746  0.86817834  1
  O  O195  1  0.25480214  0.49413607  0.13438070  1
  O  O196  1  0.23962736  0.49059580  0.61899144  1
  O  O197  1  0.25074904  0.98289543  0.11843151  1
  O  O198  1  0.25346416  1.00052532  0.63722728  1
  O  O199  1  0.74253155  0.48989726  0.12527373  1
  O  O200  1  0.74495283  0.49854883  0.62530453  1
  O  O201  1  0.75431627  0.99007241  0.13234396  1
  O  O202  1  0.76093612  0.99289050  0.63632898  1
  O  O203  1  0.01006924  0.37508316  0.25724776  1
  O  O204  1  0.01492164  0.37090531  0.74291405  1
  O  O205  1  0.00350903  0.86625362  0.25373993  1
  O  O206  1  0.00619653  0.86485359  0.74678592  1
  O  O207  1  0.50910644  0.38084370  0.26098018  1
  O  O208  1  0.50016815  0.37703224  0.76310440  1
  O  O209  1  0.49732999  0.87620906  0.26678713  1
  O  O210  1  0.50314063  0.86302850  0.74848182  1
  O  O211  1  0.49076045  0.12128134  0.23725843  1
  O  O212  1  0.48737184  0.13137999  0.75221291  1
  O  O213  1  0.50335068  0.61874123  0.23566107  1
  O  O214  1  0.48977119  0.63422354  0.73984351  1
  O  O215  1  1.00175982  0.12339066  0.24026100  1
  O  O216  1  0.99475646  0.12452228  0.73946651  1
  O  O217  1  1.00134399  0.62896729  0.23384054  1
  O  O218  1  0.99419799  0.63658356  0.74567174  1
  O  O219  1  0.36962108  0.25297541  0.00764525  1
  O  O220  1  0.36567262  0.26377440  0.49792614  1
  O  O221  1  0.36854517  0.75404916  -0.00518200  1
  O  O222  1  0.38087808  0.75051725  0.50731393  1
  O  O223  1  0.87757689  0.26271460  -0.00309108  1
  O  O224  1  0.87008376  0.25687865  0.50717975  1
  O  O225  1  0.86564143  0.74917464  0.01051065  1
  O  O226  1  0.87145864  0.75543035  0.50755598  1
  O  O227  1  0.13158542  0.24279058  0.50220007  1
  O  O228  1  0.13099019  0.24565659  0.99333431  1
  O  O229  1  0.11935735  0.73747147  0.49746601  1
  O  O230  1  0.12698985  0.75356391  0.98668235  1
  O  O231  1  0.63198189  0.25341841  0.48641513  1
  O  O232  1  0.62113876  0.23343310  0.99944505  1
  O  O233  1  0.63886416  0.75835760  0.49064238  1
  O  O234  1  0.62823812  0.74407960  0.99254084  1
  O  O235  1  0.48856699  0.24118254  0.11695165  1
  O  O236  1  0.50520333  0.23969125  0.63136140  1
  O  O237  1  0.50464508  0.73619988  0.12926755  1
  O  O238  1  0.49217615  0.74130145  0.62789327  1
  O  O239  1  1.00137949  0.23399046  0.12235120  1
  O  O240  1  0.99026217  0.24225620  0.62398502  1
  O  O241  1  0.98500627  0.73933271  0.12275065  1
  O  O242  1  0.98959390  0.74501784  0.63517711  1
  O  O243  1  -0.00519512  0.26468472  0.37705212  1
  O  O244  1  0.01385796  0.24215827  0.87689005  1
  O  O245  1  0.01042930  0.74933401  0.37649327  1
  O  O246  1  0.00603586  0.74163561  0.86673661  1
  O  O247  1  0.50894818  0.26295405  0.38255485  1
  O  O248  1  0.49381103  0.26592414  0.88015138  1
  O  O249  1  0.51840838  0.75035624  0.38907102  1
  O  O250  1  0.50372941  0.74824411  0.86309678  1
  O  O251  1  0.24374106  0.13411501  0.49881505  1
  O  O252  1  0.24583106  0.12828482  0.99458129  1
  O  O253  1  0.23808067  0.61463836  0.49092086  1
  O  O254  1  0.25709566  0.63962578  0.99041652  1
  O  O255  1  0.75099219  0.13643863  0.49027559  1
  O  O256  1  0.73390950  0.11853257  1.00557334  1
  O  O257  1  0.75538842  0.63655515  0.48816439  1
  O  O258  1  0.74271785  0.62877793  0.99382388  1
  O  O259  1  0.25775822  0.36833893  0.00537324  1
  O  O260  1  0.25441491  0.37108436  0.50531905  1
  O  O261  1  0.25125354  0.86188599  0.00869122  1
  O  O262  1  0.27045652  0.88586276  0.50041904  1
  O  O263  1  0.76057338  0.37904888  0.00775099  1
  O  O264  1  0.75631520  0.37111104  0.50476024  1
  O  O265  1  0.74560313  0.86759698  0.00973689  1
  O  O266  1  0.76445344  0.86239190  0.49336881  1
  O  O267  1  0.13689237  0.48973236  0.24607733  1
  O  O268  1  0.12104543  0.49379897  0.73973781  1
  O  O269  1  0.13356806  0.99379087  0.24962974  1
  O  O270  1  0.13404914  0.99119112  0.75881931  1
  O  O271  1  0.62730683  0.48843557  0.24478497  1
  O  O272  1  0.63085874  0.50004234  0.74130714  1
  O  O273  1  0.63899447  0.99775826  0.24643221  1
  O  O274  1  0.63873232  0.99192423  0.74832181  1
  O  O275  1  0.36707103  0.01703512  0.24586852  1
  O  O276  1  0.36520356  0.00993499  0.75779245  1
  O  O277  1  0.36422237  0.49039584  0.26222491  1
  O  O278  1  0.37962772  0.51333942  0.75704173  1
  O  O279  1  0.86851199  -0.00173056  0.25888987  1
  O  O280  1  0.86324501  -0.00658745  0.76262500  1
  O  O281  1  0.87434437  0.49148066  0.26304996  1
  O  O282  1  0.86982642  0.50609786  0.75451900  1
  O  O283  1  0.11530025  0.38352036  0.36760306  1
  O  O284  1  0.13464542  0.36456687  0.86372168  1
  O  O285  1  0.12730483  0.86140379  0.38310333  1
  O  O286  1  0.13214604  0.86267588  0.86135321  1
  O  O287  1  0.61949793  0.37175871  0.36808311  1
  O  O288  1  0.60728207  0.38385612  0.87488322  1
  O  O289  1  0.61265423  0.86824646  0.37614648  1
  O  O290  1  0.61966216  0.86683726  0.86221251  1
  O  O291  1  0.38048524  0.13235803  0.13073842  1
  O  O292  1  0.38470795  0.12855828  0.64024647  1
  O  O293  1  0.39002844  0.61987065  0.12279158  1
  O  O294  1  0.37876677  0.62966087  0.62908548  1
  O  O295  1  0.88644644  0.12556717  0.12392071  1
  O  O296  1  0.88171818  0.13624816  0.62100018  1
  O  O297  1  0.86755310  0.63429274  0.12595549  1
  O  O298  1  0.88072836  0.63347063  0.63070173  1
  O  O299  1  0.25916883  0.25374375  0.11952832  1
  O  O300  1  0.24451735  0.26287137  0.61268712  1
  O  O301  1  0.25157772  0.75431822  0.11111360  1
  O  O302  1  0.26466018  0.75570912  0.62991744  1
  O  O303  1  0.75084020  0.26385185  0.12915135  1
  O  O304  1  0.75847474  0.25521728  0.61950046  1
  O  O305  1  0.75529982  0.75337903  0.12257058  1
  O  O306  1  0.76157006  0.74095851  0.61662542  1
  O  O307  1  0.25160424  0.24246868  0.38907079  1
  O  O308  1  0.24145130  0.24369429  0.88170575  1
  O  O309  1  0.23999341  0.73504401  0.37663880  1
  O  O310  1  0.24617946  0.74633086  0.88611776  1
  O  O311  1  0.74419662  0.24802083  0.37736792  1
  O  O312  1  0.71453403  0.25125180  0.83700439  1
  O  O313  1  0.74475171  0.74342530  0.38118947  1
  O  O314  1  0.74414661  0.74390012  0.87893893  1
  O  O315  1  0.00751256  0.11231458  0.00699725  1
  O  O316  1  0.00485329  0.11944524  0.50573149  1
  O  O317  1  -0.00857654  0.62042505  0.01999508  1
  O  O318  1  0.00939016  0.61979893  0.50796584  1
  O  O319  1  0.50608797  0.11585790  0.00791687  1
  O  O320  1  0.49864652  0.13088675  0.51528288  1
  O  O321  1  0.50519428  0.62077192  0.00906986  1
  O  O322  1  0.48907041  0.61028486  0.51013099  1
  O  O323  1  0.49246528  0.38150750  0.49377251  1
  O  O324  1  0.49409060  0.38208552  0.98992744  1
  O  O325  1  0.49431426  0.88085246  0.49066901  1
  O  O326  1  0.50651141  0.88876409  0.99975868  1
  O  O327  1  0.99787917  0.38106601  0.49380175  1
  O  O328  1  0.98384852  0.38015695  1.00779211  1
  O  O329  1  0.99014897  0.88350446  0.49994594  1
  O  O330  1  1.00200114  0.88794722  1.00858336  1
  O  O331  1  0.49379563  0.49261436  0.38116548  1
  O  O332  1  0.48695486  0.49962422  0.87921155  1
  O  O333  1  0.51024796  0.99492919  0.37584355  1
  O  O334  1  0.49142958  0.99748696  0.87956824  1
  O  O335  1  0.99451102  0.49466560  0.37957205  1
  O  O336  1  0.98498369  0.50762908  0.87117838  1
  O  O337  1  0.99096274  1.00078051  0.38585943  1
  O  O338  1  0.99695559  0.99884175  0.88792414  1
  O  O339  1  0.00078209  0.00692908  0.11419186  1
  O  O340  1  -0.01335281  0.01084245  0.61477148  1
  O  O341  1  0.00407836  0.51263795  0.12798869  1
  O  O342  1  0.00920651  0.50663747  0.62126635  1
  O  O343  1  0.49862090  0.00872283  0.11641288  1
  O  O344  1  0.50201133  0.02312029  0.64036938  1
  O  O345  1  0.50495162  0.50693228  0.11854173  1
  O  O346  1  0.50268050  0.50479652  0.61870220  1
  O  O347  1  0.24477844  0.38090331  0.24768032  1
  O  O348  1  0.23866636  0.37052233  0.73834577  1
  O  O349  1  0.24939122  0.87377113  0.23884502  1
  O  O350  1  0.24308921  0.88417044  0.74498548  1
  O  O351  1  0.73991447  0.37927032  0.24138190  1
  O  O352  1  0.75067204  0.38762377  0.73998450  1
  O  O353  1  0.74951209  0.88311312  0.24311560  1
  O  O354  1  0.74032387  0.88292670  0.75313545  1
  O  O355  1  0.25640416  0.12783295  0.26095475  1
  O  O356  1  0.25510227  0.11913477  0.75273021  1
  O  O357  1  0.24208130  0.61197886  0.26188071  1
  O  O358  1  0.26210301  0.63602890  0.76114681  1
  O  O359  1  0.75233224  0.11492875  0.25370948  1
  O  O360  1  0.75322048  0.10496447  0.74533595  1
  O  O361  1  0.74474365  0.62204677  0.26500153  1
  O  O362  1  0.75497208  0.62142681  0.75416319  1
  O  O363  1  0.36837174  0.13604462  0.36448520  1
  O  O364  1  0.37008455  0.11788409  0.86514323  1
  O  O365  1  0.36149740  0.60562698  0.38898758  1
  O  O366  1  0.36881879  0.62047297  0.86721201  1
  O  O367  1  0.87044721  0.11388560  0.37429626  1
  O  O368  1  0.88030425  0.10455883  0.87545442  1
  O  O369  1  0.86962631  0.61488531  0.37888025  1
  O  O370  1  0.86756111  0.61835602  0.87052112  1
  O  O371  1  0.13379850  0.37523386  0.13424942  1
  O  O372  1  0.13149913  0.38299522  0.63015801  1
  O  O373  1  0.14062458  0.87250420  0.12768742  1
  O  O374  1  0.12596587  0.86758192  0.63984894  1
  O  O375  1  0.62762677  0.37776690  0.12924727  1
  O  O376  1  0.63093072  0.38069670  0.62872814  1
  O  O377  1  0.63714559  0.87426875  0.13024407  1
  O  O378  1  0.61635883  0.87215662  0.63817792  1
  O  O379  1  0.12552849  0.26313171  0.24868036  1
  O  O380  1  0.12295094  0.25600622  0.75790112  1
  O  O381  1  0.12548752  0.74946773  0.26610849  1
  O  O382  1  0.11625427  0.75647635  0.75829135  1
  O  O383  1  0.62908066  0.26119058  0.26184929  1
  O  O384  1  0.65866989  0.25474391  0.77587159  1
  O  O385  1  0.62425957  0.75369230  0.26907205  1
  O  O386  1  0.61697889  0.75378763  0.75149968  1
  O  O387  1  0.37017227  0.24334866  0.23772822  1
  O  O388  1  0.36651569  0.23739258  0.75682541  1
  O  O389  1  0.38354676  0.73664321  0.29610917  1
  O  O390  1  0.38277529  0.74434136  0.74150494  1
  O  O391  1  0.88246736  0.24749427  0.24395572  1
  O  O392  1  0.87623344  0.24869828  0.74076078  1
  O  O393  1  0.87121114  0.75208746  0.23581802  1
  O  O394  1  0.87925709  0.74851877  0.74610813  1
  O  O395  1  0.38189003  0.48707012  0.49228012  1
  O  O396  1  0.37907987  0.49423955  0.99051971  1
  O  O397  1  0.38095743  0.99984294  0.50735712  1
  O  O398  1  0.38499348  1.00871654  0.98637462  1
  O  O399  1  0.88252854  0.49548327  0.49356665  1
  O  O400  1  0.87685051  0.49118964  0.98883180  1
  O  O401  1  0.87894471  0.99310236  0.49205739  1
  O  O402  1  0.88551311  0.99692068  0.99125367  1
  O  O403  1  0.11600416  0.00242897  -0.00376656  1
  O  O404  1  0.11123202  0.00818316  0.49897603  1
  O  O405  1  0.12234335  0.49710065  0.00150032  1
  O  O406  1  0.11978147  0.50867214  0.51101863  1
  O  O407  1  0.61411073  0.00978222  0.00161314  1
  O  O408  1  0.64885263  0.00694874  0.50938773  1
  O  O409  1  0.61965024  0.50526050  0.00450361  1
  O  O410  1  0.61125792  0.49256988  0.50505437  1
  O  O411  1  0.37296071  0.36783024  0.12044946  1
  O  O412  1  0.36411302  0.38501556  0.61640575  1
  O  O413  1  0.36434197  0.87242327  0.13338481  1
  O  O414  1  0.38293599  0.87011583  0.60933443  1
  O  O415  1  0.86711077  0.37564931  0.11259478  1
  O  O416  1  0.87199474  0.36781369  0.61975054  1
  O  O417  1  0.86406165  0.86405061  0.12057417  1
  O  O418  1  0.87992736  0.86338289  0.61678448  1
  O  O419  1  0.13221627  0.12481773  0.38969103  1
  O  O420  1  0.13105202  0.13252400  0.87954995  1
  O  O421  1  0.12877121  0.62814740  0.38432304  1
  O  O422  1  0.13898811  0.63539775  0.86555433  1
  O  O423  1  0.62969247  0.13699439  0.37357878  1
  O  O424  1  0.62193883  0.11970758  0.88580881  1
  O  O425  1  0.63212372  0.63477663  0.37702642  1
  O  O426  1  0.62800111  0.62885028  0.87834264  1
