# generated using pymatgen
data_V85Zn86O256
_symmetry_space_group_name_H-M   'P 1'
_cell_length_a   16.93711523
_cell_length_b   16.94116460
_cell_length_c   16.94040177
_cell_angle_alpha   89.95855302
_cell_angle_beta   90.06416368
_cell_angle_gamma   90.00807932
_symmetry_Int_Tables_number   1
_chemical_formula_structural   V85Zn86O256
_chemical_formula_sum   'V85 Zn86 O256'
_cell_volume   4860.78061435
_cell_formula_units_Z   1
loop_
 _symmetry_equiv_pos_site_id
 _symmetry_equiv_pos_as_xyz
  1  'x, y, z'
loop_
 _atom_site_type_symbol
 _atom_site_label
 _atom_site_symmetry_multiplicity
 _atom_site_fract_x
 _atom_site_fract_y
 _atom_site_fract_z
 _atom_site_occupancy
  V  V0  1  -0.00092833  0.75707155  0.75325982  1
  V  V1  1  0.24880086  0.12469185  0.37857048  1
  V  V2  1  0.50169720  0.75790057  0.75106963  1
  V  V3  1  0.87859580  0.37486805  0.50097866  1
  V  V4  1  0.50056619  0.50149699  0.49751534  1
  V  V5  1  0.74011728  0.12586891  0.87796250  1
  V  V6  1  0.36705842  0.87380838  0.50347156  1
  V  V7  1  0.75012777  0.37344867  0.62700366  1
  V  V8  1  0.24778025  0.62368336  0.87591491  1
  V  V9  1  0.62446957  0.50030621  0.62244037  1
  V  V10  1  0.62186244  0.74298417  0.38034709  1
  V  V11  1  0.49835765  0.87256474  0.37587098  1
  V  V12  1  0.12864392  0.24611755  0.37885218  1
  V  V13  1  0.37393148  0.12869501  0.74593001  1
  V  V14  1  0.37432518  0.75113595  0.12301747  1
  V  V15  1  0.50600096  0.11668343  0.11271356  1
  V  V16  1  0.62650726  0.87717159  0.24793996  1
  V  V17  1  0.51114305  0.61968947  0.11651489  1
  V  V18  1  0.63334594  0.24306958  0.37592592  1
  V  V19  1  0.74489498  0.62198973  0.38188926  1
  V  V20  1  0.87303044  0.75008077  0.12463357  1
  V  V21  1  0.37052585  0.25203247  0.11515325  1
  V  V22  1  0.86623722  0.00520427  0.37224036  1
  V  V23  1  0.73925829  0.24522823  -0.00514192  1
  V  V24  1  0.74124272  -0.00312099  0.74601372  1
  V  V25  1  0.73660163  0.87896839  0.62755154  1
  V  V26  1  0.87356902  0.62360435  0.75045074  1
  V  V27  1  0.49675408  0.25089082  0.75092921  1
  V  V28  1  0.88006898  0.24399285  0.12156866  1
  V  V29  1  0.49646925  0.37553821  0.88255137  1
  V  V30  1  0.00338756  0.00809352  0.50234016  1
  V  V31  1  0.88483608  -0.00289138  0.87283086  1
  V  V32  1  0.87699791  0.49918854  0.37914487  1
  V  V33  1  0.00571327  0.25207615  0.75592908  1
  V  V34  1  0.74355109  0.74657227  0.00004874  1
  V  V35  1  0.24629282  0.87649053  0.12491341  1
  V  V36  1  0.01196787  0.37708518  0.87700615  1
  V  V37  1  0.87162671  0.75121134  0.62491066  1
  V  V38  1  -0.00242127  0.62569027  0.12719663  1
  V  V39  1  0.13045157  0.50300671  0.13242978  1
  V  V40  1  0.00217403  0.24569484  0.24499746  1
  V  V41  1  0.12859393  0.38019056  0.73489957  1
  V  V42  1  0.25550295  0.24965039  0.51066674  1
  V  V43  1  0.75299301  0.24586390  0.50002752  1
  V  V44  1  0.62160479  0.75757251  0.86975988  1
  V  V45  1  0.38496372  0.88355450  -0.00798885  1
  V  V46  1  0.88014344  0.24859527  0.62835411  1
  V  V47  1  0.24797081  0.49935410  0.73833161  1
  V  V48  1  0.49590976  0.74561145  0.24912595  1
  V  V49  1  0.37459788  0.49748426  0.88892215  1
  V  V50  1  0.88363185  0.87369759  -0.00451172  1
  V  V51  1  0.12082634  0.13318140  0.00102386  1
  V  V52  1  0.37439356  -0.00197264  0.37481723  1
  V  V53  1  0.13497138  0.37841952  0.24739468  1
  V  V54  1  0.62724096  0.37505546  0.24565808  1
  V  V55  1  0.12154254  0.76310047  0.87604554  1
  V  V56  1  0.74677865  0.37726889  0.11894523  1
  V  V57  1  0.37690109  0.12230367  0.24854745  1
  V  V58  1  0.49891583  0.37284480  0.37418736  1
  V  V59  1  0.00161703  0.87607061  0.37093348  1
  V  V60  1  0.50198151  0.62481532  0.62218772  1
  V  V61  1  0.00097128  0.75304326  0.25085791  1
  V  V62  1  0.86771009  0.12709009  0.25084394  1
  V  V63  1  0.00262730  0.37587078  0.37581765  1
  V  V64  1  0.37481306  0.36731021  0.51370114  1
  V  V65  1  0.24824259  0.12837588  0.87535557  1
  V  V66  1  0.24463237  0.74438999  0.50104479  1
  V  V67  1  0.74206836  0.62368207  0.87524797  1
  V  V68  1  0.11932380  0.00220874  0.12333475  1
  V  V69  1  0.87199268  0.87582096  0.49913478  1
  V  V70  1  0.74759598  0.49862354  0.24703375  1
  V  V71  1  0.74542810  0.74887002  0.50120511  1
  V  V72  1  0.36949624  0.74912755  0.62543151  1
  V  V73  1  0.12274461  0.74713448  0.37757311  1
  V  V74  1  0.62367566  0.36823107  0.75484774  1
  V  V75  1  0.24290564  -0.00452915  0.24997887  1
  V  V76  1  0.49977351  0.13363131  0.62591226  1
  V  V77  1  0.01072158  0.62170955  0.61897475  1
  V  V78  1  0.63004237  0.12169291  0.50360371  1
  V  V79  1  0.24854142  0.61643543  0.36808893  1
  V  V80  1  0.12964963  0.88043769  0.72888629  1
  V  V81  1  0.12141802  0.62648839  0.00015730  1
  V  V82  1  0.50238577  0.24592838  0.24898363  1
  V  V83  1  0.87781300  0.37428135  -0.00307938  1
  V  V84  1  0.50490957  -0.00086529  0.50682943  1
  Zn  Zn85  1  0.74893034  0.49828179  0.75049668  1
  Zn  Zn86  1  0.74997197  0.87905321  0.12450540  1
  Zn  Zn87  1  0.00270092  -0.00030644  -0.00112133  1
  Zn  Zn88  1  0.74363716  0.00705138  0.24804103  1
  Zn  Zn89  1  0.16397781  0.06037140  0.57043356  1
  Zn  Zn90  1  0.26683523  0.39208627  0.12278744  1
  Zn  Zn91  1  0.37487914  0.62387540  0.75220888  1
  Zn  Zn92  1  0.24950133  0.26676812  -0.01306548  1
  Zn  Zn93  1  0.87789894  0.12371001  0.75322602  1
  Zn  Zn94  1  0.53580184  0.50636924  -0.00156063  1
  Zn  Zn95  1  0.87312436  0.62442769  0.25040388  1
  Zn  Zn96  1  0.24744196  -0.00044890  0.73428788  1
  Zn  Zn97  1  0.36691563  0.49188737  0.36652769  1
  Zn  Zn98  1  0.24935088  0.75551562  -0.00357358  1
  Zn  Zn99  1  0.02491145  0.50393409  0.50307702  1
  Zn  Zn100  1  0.55868659  0.93490148  0.80976581  1
  Zn  Zn101  1  0.38076264  -0.00316693  0.86827915  1
  Zn  Zn102  1  0.00619580  0.12073692  0.63181513  1
  Zn  Zn103  1  0.87493219  0.49995323  0.87464080  1
  Zn  Zn104  1  -0.00219138  0.50095891  0.00127070  1
  Zn  Zn105  1  0.36699260  0.60691223  0.24141166  1
  Zn  Zn106  1  0.62784041  -0.00046027  0.10727860  1
  Zn  Zn107  1  0.18762287  0.18489290  0.18803587  1
  Zn  Zn108  1  0.18495491  0.19310464  0.69221207  1
  Zn  Zn109  1  0.18440248  0.69194629  0.18985040  1
  Zn  Zn110  1  0.18651188  0.69018649  0.69174115  1
  Zn  Zn111  1  0.68863442  0.19059529  0.18072572  1
  Zn  Zn112  1  0.68606182  0.18400826  0.68984225  1
  Zn  Zn113  1  0.68832913  0.68811998  0.19131273  1
  Zn  Zn114  1  0.68471603  0.68744266  0.68773537  1
  Zn  Zn115  1  0.31353285  0.30931123  0.30914667  1
  Zn  Zn116  1  0.31352661  0.31418246  0.80933678  1
  Zn  Zn117  1  0.30982304  0.81032583  0.31309490  1
  Zn  Zn118  1  0.30883149  0.81235813  0.80930949  1
  Zn  Zn119  1  0.81417026  0.31312734  0.31130837  1
  Zn  Zn120  1  0.81410863  0.31186710  0.81374307  1
  Zn  Zn121  1  0.81221785  0.81259939  0.31316969  1
  Zn  Zn122  1  0.81053414  0.81317622  0.81320109  1
  Zn  Zn123  1  0.18645414  0.43160407  0.44267689  1
  Zn  Zn124  1  0.19035735  0.44162635  0.94255836  1
  Zn  Zn125  1  0.18553026  0.93169592  0.43466744  1
  Zn  Zn126  1  0.19712315  0.94703096  0.93776524  1
  Zn  Zn127  1  0.68791477  0.43270009  0.43837716  1
  Zn  Zn128  1  0.68912678  0.43748548  0.93513445  1
  Zn  Zn129  1  0.68538265  0.93456986  0.43532487  1
  Zn  Zn130  1  0.69900598  0.93199027  0.93465517  1
  Zn  Zn131  1  0.31209091  0.06306599  0.06038753  1
  Zn  Zn132  1  0.32402362  0.06485793  0.56313777  1
  Zn  Zn133  1  0.31228612  0.56886117  0.06297984  1
  Zn  Zn134  1  0.31285065  0.56134639  0.55313596  1
  Zn  Zn135  1  0.81082331  0.05905698  0.06148733  1
  Zn  Zn136  1  0.81717835  0.06276929  0.56408305  1
  Zn  Zn137  1  0.80692327  0.56266498  0.06080113  1
  Zn  Zn138  1  0.81408682  0.56241400  0.56412446  1
  Zn  Zn139  1  0.44238815  0.43822833  0.18620612  1
  Zn  Zn140  1  0.43451921  0.44018247  0.69339251  1
  Zn  Zn141  1  0.43813527  0.93544641  0.18478971  1
  Zn  Zn142  1  0.43089444  0.94113530  0.68313220  1
  Zn  Zn143  1  0.93926099  0.43509810  0.18742104  1
  Zn  Zn144  1  0.94034636  0.43923400  0.68706651  1
  Zn  Zn145  1  0.93369295  0.93783574  0.18582297  1
  Zn  Zn146  1  0.93356818  0.93615716  0.68680634  1
  Zn  Zn147  1  0.05872180  0.06385391  0.31263566  1
  Zn  Zn148  1  0.06655705  0.06225583  0.81348418  1
  Zn  Zn149  1  0.06307927  0.56425355  0.31429539  1
  Zn  Zn150  1  0.06038782  0.56209743  0.81083737  1
  Zn  Zn151  1  0.56113005  0.06112341  0.31582446  1
  Zn  Zn152  1  0.55829080  0.05492243  0.93885605  1
  Zn  Zn153  1  0.55949759  0.56090866  0.30737387  1
  Zn  Zn154  1  0.55961963  0.56248604  0.80953985  1
  Zn  Zn155  1  0.43943907  0.18663481  0.43695745  1
  Zn  Zn156  1  0.43460645  0.19070581  0.93003494  1
  Zn  Zn157  1  0.43063323  0.68347506  0.43586012  1
  Zn  Zn158  1  0.43737763  0.68948233  0.93793642  1
  Zn  Zn159  1  0.93772327  0.18867470  0.43325002  1
  Zn  Zn160  1  0.93579048  0.18568176  0.93294133  1
  Zn  Zn161  1  0.93291477  0.68624247  0.43868987  1
  Zn  Zn162  1  0.93574109  0.68915439  0.93611406  1
  Zn  Zn163  1  0.06717716  0.31577720  0.06319396  1
  Zn  Zn164  1  0.06597708  0.30995069  0.56105651  1
  Zn  Zn165  1  0.06337654  0.81355012  0.06489173  1
  Zn  Zn166  1  0.05633874  0.81077095  0.55923158  1
  Zn  Zn167  1  0.55785002  0.30936090  0.06198107  1
  Zn  Zn168  1  0.56423105  0.31179387  0.56323494  1
  Zn  Zn169  1  0.56404821  0.81244653  0.05997624  1
  Zn  Zn170  1  0.55838574  0.81178095  0.56322385  1
  O  O171  1  0.13599112  0.11522068  0.11041699  1
  O  O172  1  0.11425519  0.14534093  0.61907149  1
  O  O173  1  0.11869067  0.62386315  0.12013974  1
  O  O174  1  0.10891861  0.63295802  0.63060843  1
  O  O175  1  0.60838124  0.12534467  0.12982253  1
  O  O176  1  0.61518436  0.12884796  0.61318126  1
  O  O177  1  0.60949011  0.63187038  0.13086407  1
  O  O178  1  0.61358916  0.61444770  0.62739402  1
  O  O179  1  0.39076844  0.36909140  0.37526181  1
  O  O180  1  0.38499872  0.38555726  0.86780083  1
  O  O181  1  0.37903726  0.87686999  0.38335883  1
  O  O182  1  0.36583674  0.87290497  0.88876069  1
  O  O183  1  0.88079060  0.38094364  0.37979441  1
  O  O184  1  0.88366634  0.37566135  0.88341338  1
  O  O185  1  0.88141027  0.88230043  0.37882396  1
  O  O186  1  0.86774663  0.88452099  0.88386402  1
  O  O187  1  0.25328709  0.00251273  0.36861710  1
  O  O188  1  0.25602048  0.01482695  0.86460918  1
  O  O189  1  0.24579553  0.51460142  0.37814671  1
  O  O190  1  0.25466664  0.50910069  0.87052652  1
  O  O191  1  0.76282812  -0.00631220  0.37087459  1
  O  O192  1  0.76006922  0.00752117  0.86358906  1
  O  O193  1  0.75497529  0.50291380  0.37043553  1
  O  O194  1  0.75392461  0.51055664  0.86994191  1
  O  O195  1  0.23540021  0.50874255  0.12595775  1
  O  O196  1  0.25850762  0.50767309  0.64043365  1
  O  O197  1  0.24463415  0.99484366  0.13224423  1
  O  O198  1  0.24762491  1.00541130  0.61900176  1
  O  O199  1  0.75931783  0.49455810  0.14138197  1
  O  O200  1  0.74030852  0.49419893  0.62429866  1
  O  O201  1  0.74409663  0.99775033  0.13085696  1
  O  O202  1  0.75730441  0.99500910  0.63733469  1
  O  O203  1  0.00692525  0.36478992  0.25645420  1
  O  O204  1  0.01175243  0.37556342  0.75614794  1
  O  O205  1  -0.00921039  0.86620003  0.26089701  1
  O  O206  1  0.00886416  0.86312808  0.74191481  1
  O  O207  1  0.51070805  0.36772416  0.25614293  1
  O  O208  1  0.50459833  0.36923767  0.75381912  1
  O  O209  1  0.50451500  0.86564473  0.25523720  1
  O  O210  1  0.49548691  0.86316140  0.74156268  1
  O  O211  1  0.49171723  0.12574304  0.24469268  1
  O  O212  1  0.49252523  0.13684314  0.74027949  1
  O  O213  1  0.49528382  0.63403782  0.24208821  1
  O  O214  1  0.49502066  0.63219566  0.73777999  1
  O  O215  1  0.99077273  0.13949374  0.25273482  1
  O  O216  1  1.00246857  0.13973772  0.75334511  1
  O  O217  1  0.99610463  0.63522627  0.24674815  1
  O  O218  1  0.99221199  0.63402393  0.74174067  1
  O  O219  1  0.37298993  0.24458857  0.01280907  1
  O  O220  1  0.37343212  0.25967306  0.49702478  1
  O  O221  1  0.37096390  0.75807865  0.00937303  1
  O  O222  1  0.36806974  0.75571552  0.50551318  1
  O  O223  1  0.87439553  0.25622934  0.00583795  1
  O  O224  1  0.87406829  0.25414871  0.50772598  1
  O  O225  1  0.86870853  0.75568591  0.00339645  1
  O  O226  1  0.86488531  0.75584991  0.50361229  1
  O  O227  1  0.13812493  0.26135035  0.48471789  1
  O  O228  1  0.13162602  0.23596122  1.00962393  1
  O  O229  1  0.13336635  0.75571170  0.49087992  1
  O  O230  1  0.12461727  0.74142274  0.99453001  1
  O  O231  1  0.63103120  0.24298022  0.49411521  1
  O  O232  1  0.64057607  0.25275274  1.00338235  1
  O  O233  1  0.62656256  0.75334325  0.48722595  1
  O  O234  1  0.63563595  0.75547258  0.98850180  1
  O  O235  1  0.49096202  0.23759608  0.12916292  1
  O  O236  1  0.50305354  0.24365914  0.63283534  1
  O  O237  1  0.49269667  0.74352775  0.13119672  1
  O  O238  1  0.49266873  0.74196646  0.62845714  1
  O  O239  1  0.99154004  0.25839426  0.13408568  1
  O  O240  1  0.99161288  0.25813046  0.63616261  1
  O  O241  1  0.99558716  0.74695584  0.13404096  1
  O  O242  1  0.99158510  0.74206816  0.63199658  1
  O  O243  1  0.00955399  0.25501878  0.36784600  1
  O  O244  1  -0.00563670  0.26245973  0.86381264  1
  O  O245  1  0.00220946  0.75489435  0.37173011  1
  O  O246  1  0.00889681  0.74323704  0.86287827  1
  O  O247  1  0.51071767  0.25505059  0.37043786  1
  O  O248  1  0.49530749  0.26142926  0.86230284  1
  O  O249  1  0.50278140  0.74986790  0.36917582  1
  O  O250  1  0.50835764  0.74225914  0.86314357  1
  O  O251  1  0.25719182  0.13299591  0.49073392  1
  O  O252  1  0.24633124  0.12552676  0.98675082  1
  O  O253  1  0.25618696  0.63738157  0.48519464  1
  O  O254  1  0.23868027  0.62947887  0.99195260  1
  O  O255  1  0.74001394  0.12976374  0.50800428  1
  O  O256  1  0.75690875  0.13062073  0.98657315  1
  O  O257  1  0.75164447  0.62924481  0.48895530  1
  O  O258  1  0.75849084  0.63662227  0.98744704  1
  O  O259  1  0.24253445  0.37448080  0.01315226  1
  O  O260  1  0.27051605  0.36584928  0.49000802  1
  O  O261  1  0.25928749  0.87492053  0.01110702  1
  O  O262  1  0.26028868  0.86314756  0.49208138  1
  O  O263  1  0.76211260  0.36264634  -0.00161284  1
  O  O264  1  0.75699429  0.36656535  0.50716937  1
  O  O265  1  0.76213565  0.86054090  0.00190070  1
  O  O266  1  0.75274435  0.87054993  0.50666771  1
  O  O267  1  0.11894795  0.49071083  0.24462750  1
  O  O268  1  0.13603320  0.49249284  0.75257982  1
  O  O269  1  0.13644436  1.01038797  0.24206623  1
  O  O270  1  0.11932521  0.98281418  0.74912410  1
  O  O271  1  0.63556725  0.48615881  0.25878477  1
  O  O272  1  0.62241166  0.49062847  0.73651536  1
  O  O273  1  0.62410382  0.98633565  0.25703130  1
  O  O274  1  0.64312840  0.99607095  0.75288037  1
  O  O275  1  0.36820841  0.00564050  0.25370869  1
  O  O276  1  0.36969807  0.01467411  0.74467411  1
  O  O277  1  0.37532711  0.49518708  0.25397489  1
  O  O278  1  0.36142615  0.50205310  0.76059934  1
  O  O279  1  0.87596776  0.01088149  0.25498634  1
  O  O280  1  0.87185819  0.00162269  0.75779102  1
  O  O281  1  0.86679415  0.49653485  0.26358268  1
  O  O282  1  0.87276172  0.51219375  0.74938672  1
  O  O283  1  0.12364175  0.36593086  0.36407568  1
  O  O284  1  0.11466640  0.38223752  0.87365968  1
  O  O285  1  0.11101984  0.86400466  0.37579898  1
  O  O286  1  0.13115925  0.86344377  0.88178898  1
  O  O287  1  0.61785075  0.36401334  0.36937337  1
  O  O288  1  0.61478198  0.38415031  0.86019659  1
  O  O289  1  0.61797617  0.86303307  0.36890972  1
  O  O290  1  0.63131323  0.86141672  0.86605455  1
  O  O291  1  0.38436100  0.12905418  0.13126694  1
  O  O292  1  0.38935677  0.12818809  0.63119656  1
  O  O293  1  0.38018455  0.63809873  0.12617683  1
  O  O294  1  0.38409739  0.63290992  0.62283235  1
  O  O295  1  0.87351816  0.13782029  0.12998559  1
  O  O296  1  0.88288959  0.13772366  0.62783401  1
  O  O297  1  0.88001151  0.63147988  0.12612585  1
  O  O298  1  0.87564823  0.63281735  0.63456002  1
  O  O299  1  0.26804968  0.24254732  0.12782150  1
  O  O300  1  0.24807103  0.24877418  0.60924721  1
  O  O301  1  0.25704876  0.75951244  0.12795157  1
  O  O302  1  0.26014357  0.73854560  0.61615124  1
  O  O303  1  0.76005916  0.25571444  0.11437579  1
  O  O304  1  0.76087095  0.25317146  0.62255793  1
  O  O305  1  0.75409685  0.74728485  0.11594062  1
  O  O306  1  0.75132314  0.75722673  0.62110229  1
  O  O307  1  0.24544035  0.24323179  0.37756573  1
  O  O308  1  0.25684226  0.23594889  0.87405971  1
  O  O309  1  0.24038712  0.74581814  0.38024957  1
  O  O310  1  0.23951289  0.73837453  0.87259687  1
  O  O311  1  0.74098878  0.25706480  0.38223421  1
  O  O312  1  0.75734644  0.23418036  0.87900662  1
  O  O313  1  0.74178606  0.74125283  0.37907581  1
  O  O314  1  0.74203768  0.74336662  0.87849536  1
  O  O315  1  0.01771025  0.12550118  -0.00787634  1
  O  O316  1  -0.00418395  0.10979278  0.49488018  1
  O  O317  1  0.00691547  0.62719072  0.00645178  1
  O  O318  1  -0.00520513  0.62771161  0.51500035  1
  O  O319  1  0.49796351  0.12853464  0.00911456  1
  O  O320  1  0.50627782  0.11932203  0.50567745  1
  O  O321  1  0.50021830  0.62691088  0.01234886  1
  O  O322  1  0.49163133  0.61174942  0.50662551  1
  O  O323  1  0.49217550  0.37762228  0.49370004  1
  O  O324  1  0.50611307  0.37565974  0.98518129  1
  O  O325  1  0.49146894  0.88054005  0.49619305  1
  O  O326  1  0.48380188  0.86904236  1.00224356  1
  O  O327  1  0.99497348  0.37580011  0.49318482  1
  O  O328  1  0.99418084  0.37409572  0.99345083  1
  O  O329  1  0.99162400  0.88168721  0.48966532  1
  O  O330  1  0.98767297  0.87365415  1.00195809  1
  O  O331  1  0.50553793  0.48879250  0.38323281  1
  O  O332  1  0.49260527  0.49684315  0.87944159  1
  O  O333  1  0.49296688  0.99371306  0.38465494  1
  O  O334  1  0.49372803  1.00598899  0.86302630  1
  O  O335  1  0.99107227  0.49710592  0.37822040  1
  O  O336  1  0.99514928  0.49289848  0.87866472  1
  O  O337  1  0.99129310  0.99306115  0.37906747  1
  O  O338  1  0.98887291  1.00302868  0.87629516  1
  O  O339  1  0.01530923  -0.00594697  0.12555578  1
  O  O340  1  -0.00844387  -0.00038124  0.60619471  1
  O  O341  1  0.00809994  0.50811762  0.12554248  1
  O  O342  1  -0.00547579  0.51768878  0.62392293  1
  O  O343  1  0.50010879  0.01392006  0.12673486  1
  O  O344  1  0.49691436  0.00829352  0.61166846  1
  O  O345  1  0.49590527  0.51661837  0.12152323  1
  O  O346  1  0.50315601  0.50524286  0.61842091  1
  O  O347  1  0.23889942  0.36823269  0.24224335  1
  O  O348  1  0.23864793  0.38659242  0.75371164  1
  O  O349  1  0.25769778  0.88699151  0.24095075  1
  O  O350  1  0.23291654  0.87453263  0.74865407  1
  O  O351  1  0.74476870  0.37938673  0.24397113  1
  O  O352  1  0.74150603  0.37433753  0.74609634  1
  O  O353  1  0.73740522  0.87156089  0.24903310  1
  O  O354  1  0.75755952  0.88739548  0.74140546  1
  O  O355  1  0.26023360  0.11565133  0.25525043  1
  O  O356  1  0.25556255  0.13005140  0.75795782  1
  O  O357  1  0.24965280  0.63287497  0.26360987  1
  O  O358  1  0.24577140  0.61452841  0.75965192  1
  O  O359  1  0.76306334  0.12947769  0.24680578  1
  O  O360  1  0.75287242  0.11511741  0.75730983  1
  O  O361  1  0.75009753  0.61538433  0.26129463  1
  O  O362  1  0.75819199  0.62664074  0.75607072  1
  O  O363  1  0.37207554  0.11888306  0.36648371  1
  O  O364  1  0.36641290  0.12370039  0.86420695  1
  O  O365  1  0.35994637  0.62321654  0.36904474  1
  O  O366  1  0.36350749  0.61990824  0.87541585  1
  O  O367  1  0.87812052  0.11731319  0.36451647  1
  O  O368  1  0.86819613  0.11324453  0.87335335  1
  O  O369  1  0.86439537  0.61563295  0.37436087  1
  O  O370  1  0.86662376  0.62724378  0.86432324  1
  O  O371  1  0.12162342  0.38810498  0.13426571  1
  O  O372  1  0.12230754  0.37963199  0.63658880  1
  O  O373  1  0.13802283  0.88413581  0.11885508  1
  O  O374  1  0.12453158  0.87100704  0.62987114  1
  O  O375  1  0.62895735  0.36196804  0.14031427  1
  O  O376  1  0.62942266  0.38063971  0.63248692  1
  O  O377  1  0.62284127  0.87425950  0.13792220  1
  O  O378  1  0.63686073  0.87355825  0.62018763  1
  O  O379  1  0.11947077  0.25598445  0.25269208  1
  O  O380  1  0.11836425  0.27057559  0.75034982  1
  O  O381  1  0.10972753  0.74969567  0.25980598  1
  O  O382  1  0.11886911  0.76214765  0.75653567  1
  O  O383  1  0.62432892  0.25438602  0.25859674  1
  O  O384  1  0.61533894  0.26046139  0.74438878  1
  O  O385  1  0.61459574  0.75570972  0.25969999  1
  O  O386  1  0.61267122  0.74659791  0.75455270  1
  O  O387  1  0.38150214  0.23656853  0.24489099  1
  O  O388  1  0.38346451  0.24221889  0.74928473  1
  O  O389  1  0.38440038  0.75557722  0.24036409  1
  O  O390  1  0.37971976  0.74768898  0.74065816  1
  O  O391  1  0.88152362  0.24678215  0.24298155  1
  O  O392  1  0.88529926  0.25195962  0.74250822  1
  O  O393  1  0.88272617  0.74815832  0.24549346  1
  O  O394  1  0.88124221  0.74495806  0.74708671  1
  O  O395  1  0.38300514  0.48481431  0.49207751  1
  O  O396  1  0.37081391  0.50283721  0.98951389  1
  O  O397  1  0.38375759  0.99088233  0.49414746  1
  O  O398  1  0.37302461  0.98682767  0.99934816  1
  O  O399  1  0.87245367  0.49344686  0.48926336  1
  O  O400  1  0.87467560  0.48512135  1.00216450  1
  O  O401  1  0.88160123  0.99679643  0.48971468  1
  O  O402  1  0.87749651  0.99153965  0.99288764  1
  O  O403  1  0.12523446  0.00959863  0.00662344  1
  O  O404  1  0.10838429  -0.00375156  0.49115180  1
  O  O405  1  0.12122360  0.51439743  0.01012432  1
  O  O406  1  0.13408320  0.49631954  0.51084656  1
  O  O407  1  0.62578355  -0.01261097  -0.00411148  1
  O  O408  1  0.61526871  0.00887565  0.49005655  1
  O  O409  1  0.64256654  0.48615071  0.02084684  1
  O  O410  1  0.61283836  0.48763607  0.51123290  1
  O  O411  1  0.38088014  0.35519937  0.13248750  1
  O  O412  1  0.38066728  0.37635410  0.61201955  1
  O  O413  1  0.36869722  0.86942526  0.11655472  1
  O  O414  1  0.37882185  0.86198071  0.61325071  1
  O  O415  1  0.86961343  0.36594783  0.11713041  1
  O  O416  1  0.87105386  0.36833021  0.62208093  1
  O  O417  1  0.87240421  0.86776028  0.11603955  1
  O  O418  1  0.86532825  0.86874978  0.61782600  1
  O  O419  1  0.13202950  0.13780572  0.36662592  1
  O  O420  1  0.13820474  0.12142780  0.88566206  1
  O  O421  1  0.13419551  0.63650888  0.37297996  1
  O  O422  1  0.12912584  0.63032781  0.88220360  1
  O  O423  1  0.61890293  0.13546901  0.38574622  1
  O  O424  1  0.64224001  0.11985355  0.87630019  1
  O  O425  1  0.63166051  0.63241204  0.36845588  1
  O  O426  1  0.63600256  0.63251887  0.86682966  1
