# generated using pymatgen
data_V85Zn86O256
_symmetry_space_group_name_H-M   'P 1'
_cell_length_a   16.99856504
_cell_length_b   17.00065302
_cell_length_c   16.98896216
_cell_angle_alpha   90.00349977
_cell_angle_beta   90.06890128
_cell_angle_gamma   90.02271440
_symmetry_Int_Tables_number   1
_chemical_formula_structural   V85Zn86O256
_chemical_formula_sum   'V85 Zn86 O256'
_cell_volume   4909.58027002
_cell_formula_units_Z   1
loop_
 _symmetry_equiv_pos_site_id
 _symmetry_equiv_pos_as_xyz
  1  'x, y, z'
loop_
 _atom_site_type_symbol
 _atom_site_label
 _atom_site_symmetry_multiplicity
 _atom_site_fract_x
 _atom_site_fract_y
 _atom_site_fract_z
 _atom_site_occupancy
  V  V0  1  0.87253846  0.38346703  0.00213764  1
  V  V1  1  0.74097603  0.87536215  0.12598480  1
  V  V2  1  0.00827098  0.36372064  0.37458118  1
  V  V3  1  0.36977932  -0.00980353  0.88509949  1
  V  V4  1  0.50616405  0.25219094  0.25136107  1
  V  V5  1  0.50063148  0.62494706  0.62638876  1
  V  V6  1  0.37443996  0.00140766  0.37619091  1
  V  V7  1  -0.00938345  0.75087946  0.74500821  1
  V  V8  1  0.12148548  0.74976503  0.37060255  1
  V  V9  1  0.24795738  0.87649396  0.62571016  1
  V  V10  1  0.74556652  0.12607214  0.37589449  1
  V  V11  1  0.38393804  0.49842175  0.87983517  1
  V  V12  1  0.38620871  0.24596550  0.62924953  1
  V  V13  1  0.37899566  0.37178959  0.00148598  1
  V  V14  1  0.75136486  0.62068918  0.36850669  1
  V  V15  1  0.37239654  0.13260069  0.23569613  1
  V  V16  1  0.49812053  0.87802892  0.37678738  1
  V  V17  1  0.38038290  0.37454791  0.49770794  1
  V  V18  1  0.24817512  0.12045441  0.86488540  1
  V  V19  1  0.75581191  0.49993851  0.75479936  1
  V  V20  1  0.37680122  0.62589415  0.75155357  1
  V  V21  1  0.87301547  -0.00217407  0.37718970  1
  V  V22  1  0.37322476  0.75320983  0.10870978  1
  V  V23  1  0.87739424  0.12373976  0.24006397  1
  V  V24  1  0.12328733  0.12742734  0.49666956  1
  V  V25  1  0.86802848  0.00399381  0.87470508  1
  V  V26  1  0.49580072  0.75402968  0.25056774  1
  V  V27  1  0.24911228  0.74958085  0.50113311  1
  V  V28  1  0.12621270  0.62591235  0.50235279  1
  V  V29  1  0.37434197  0.87624189  0.50056259  1
  V  V30  1  0.37440044  0.62647990  0.25058359  1
  V  V31  1  0.74132894  0.61830628  0.88159242  1
  V  V32  1  0.75137744  0.24949496  0.49969769  1
  V  V33  1  -0.00084972  -0.00102977  0.50058926  1
  V  V34  1  0.62115680  0.36817593  0.75234146  1
  V  V35  1  0.75074001  0.37531801  0.62635189  1
  V  V36  1  0.50885871  0.87460160  0.88682173  1
  V  V37  1  0.50383185  0.61821823  0.11340418  1
  V  V38  1  0.12977688  0.74532379  0.87880066  1
  V  V39  1  0.12774704  0.50096751  0.62688739  1
  V  V40  1  0.62103776  0.87908102  0.25084568  1
  V  V41  1  0.62402833  0.50046807  0.62632320  1
  V  V42  1  0.61960090  -0.00880310  0.62419277  1
  V  V43  1  0.24718056  0.37595465  0.12261739  1
  V  V44  1  0.87411435  0.49810690  0.36785204  1
  V  V45  1  0.61819926  0.12892931  0.50456766  1
  V  V46  1  0.51967546  0.11837352  0.11756891  1
  V  V47  1  0.12700299  0.87870807  0.74851652  1
  V  V48  1  0.24021970  0.50022365  0.24653309  1
  V  V49  1  0.24659165  0.25126200  0.49839338  1
  V  V50  1  0.87889105  0.74736699  0.13268439  1
  V  V51  1  0.73521461  0.74773508  -0.00654537  1
  V  V52  1  -0.00587934  0.00293550  0.00516806  1
  V  V53  1  0.75520584  0.74903211  0.50637917  1
  V  V54  1  0.51328041  0.76045722  0.75178037  1
  V  V55  1  0.38504833  0.11927532  0.74497114  1
  V  V56  1  0.12262561  0.35554153  0.24959292  1
  V  V57  1  0.62504484  0.75193892  0.37634860  1
  V  V58  1  0.25185004  0.24809749  0.00196279  1
  V  V59  1  -0.00928011  0.62859271  0.62506917  1
  V  V60  1  0.00127076  0.24893616  0.75542631  1
  V  V61  1  0.00296711  0.51316594  0.00807976  1
  V  V62  1  0.37598989  0.49584929  0.37453370  1
  V  V63  1  -0.00259597  0.39061555  0.87401536  1
  V  V64  1  0.00247586  0.49890674  0.50119697  1
  V  V65  1  0.12805619  0.00097782  0.62818396  1
  V  V66  1  0.12185821  0.12368088  -0.00195170  1
  V  V67  1  0.87654025  0.24954759  0.62631474  1
  V  V68  1  -0.00090392  0.87069011  0.36758109  1
  V  V69  1  0.24790883  0.12935327  0.37453921  1
  V  V70  1  0.37334600  0.75071224  0.62721321  1
  V  V71  1  0.25122415  0.37509141  0.62743343  1
  V  V72  1  0.74144015  -0.00008145  0.24937760  1
  V  V73  1  0.25606268  0.87345269  0.11079885  1
  V  V74  1  0.75056955  -0.00811494  0.74501819  1
  V  V75  1  0.24819915  -0.00470786  0.25026162  1
  V  V76  1  0.50113404  0.36573566  0.87304157  1
  V  V77  1  0.86896481  0.12504550  0.75271858  1
  V  V78  1  0.62474521  0.62588811  0.50195584  1
  V  V79  1  0.25234238  0.50136988  0.75566097  1
  V  V80  1  0.87858111  0.37384335  0.50143277  1
  V  V81  1  -0.00148852  0.87332576  0.87543443  1
  V  V82  1  0.87467686  0.87000646  0.50727940  1
  V  V83  1  0.75011353  0.24626155  -0.01099071  1
  V  V84  1  0.87402352  0.87264714  0.00017592  1
  Zn  Zn85  1  0.87459651  0.62354382  0.75659899  1
  Zn  Zn86  1  0.54973920  0.41360752  0.32087177  1
  Zn  Zn87  1  0.56164634  0.20243346  0.80647600  1
  Zn  Zn88  1  0.12185138  0.87212557  0.24836919  1
  Zn  Zn89  1  0.62123708  0.12043703  -0.02919975  1
  Zn  Zn90  1  0.75028932  0.86636091  0.62948464  1
  Zn  Zn91  1  0.12765194  0.37448883  0.75329317  1
  Zn  Zn92  1  0.12542423  0.25250039  0.87446658  1
  Zn  Zn93  1  0.50208761  0.49883950  0.49663629  1
  Zn  Zn94  1  0.01224623  0.13726953  0.13880984  1
  Zn  Zn95  1  0.67119370  0.30693812  0.32424660  1
  Zn  Zn96  1  0.00061709  0.12566898  0.62566928  1
  Zn  Zn97  1  0.26181601  0.63512014  0.88916353  1
  Zn  Zn98  1  0.14104859  0.61688751  0.01413046  1
  Zn  Zn99  1  0.64262096  0.51120076  0.15141443  1
  Zn  Zn100  1  0.87610497  0.62353894  0.24845846  1
  Zn  Zn101  1  0.24832306  0.62499820  0.37620861  1
  Zn  Zn102  1  0.87934430  0.25676586  0.12493326  1
  Zn  Zn103  1  0.01726075  0.62659387  0.14789791  1
  Zn  Zn104  1  0.12179929  -0.00710570  0.12394063  1
  Zn  Zn105  1  0.75144543  0.38277710  0.14523188  1
  Zn  Zn106  1  0.49547248  0.00599761  0.50574061  1
  Zn  Zn107  1  0.18981310  0.18549094  0.18117221  1
  Zn  Zn108  1  0.18890355  0.18969992  0.68447965  1
  Zn  Zn109  1  0.19379339  0.68972091  0.18680761  1
  Zn  Zn110  1  0.18519534  0.68807027  0.69189124  1
  Zn  Zn111  1  0.69381743  0.19978505  0.17469428  1
  Zn  Zn112  1  0.69055523  0.18164924  0.68246671  1
  Zn  Zn113  1  0.68678465  0.69263909  0.18613920  1
  Zn  Zn114  1  0.68841205  0.68467128  0.69087354  1
  Zn  Zn115  1  0.31270534  0.31293231  0.31143388  1
  Zn  Zn116  1  0.31520804  0.30692297  0.81327546  1
  Zn  Zn117  1  0.31054579  0.81118575  0.31407532  1
  Zn  Zn118  1  0.31190604  0.81331114  0.80971539  1
  Zn  Zn119  1  0.83255582  0.30932913  0.31138069  1
  Zn  Zn120  1  0.81605880  0.31693502  0.81415635  1
  Zn  Zn121  1  0.80966219  0.81261862  0.31692026  1
  Zn  Zn122  1  0.80910792  0.81093783  0.81619364  1
  Zn  Zn123  1  0.18908799  0.43762431  0.43421930  1
  Zn  Zn124  1  0.18498157  0.43961750  0.93742245  1
  Zn  Zn125  1  0.18578338  0.93758663  0.43813014  1
  Zn  Zn126  1  0.18365605  0.93874898  0.93381697  1
  Zn  Zn127  1  0.68918684  0.44010260  0.43881639  1
  Zn  Zn128  1  0.68150475  0.43445426  0.94189050  1
  Zn  Zn129  1  0.68682830  0.93833136  0.44061788  1
  Zn  Zn130  1  0.68363710  0.94271533  0.93847691  1
  Zn  Zn131  1  0.30883486  0.05779636  0.05888184  1
  Zn  Zn132  1  0.31026561  0.06289800  0.56398803  1
  Zn  Zn133  1  0.31757901  0.55906597  0.06414218  1
  Zn  Zn134  1  0.31352357  0.56230377  0.56386942  1
  Zn  Zn135  1  0.77714085  0.05411300  0.05004548  1
  Zn  Zn136  1  0.81099335  0.06149697  0.56482399  1
  Zn  Zn137  1  0.81286234  0.56033421  0.06292956  1
  Zn  Zn138  1  0.81145214  0.55941378  0.55929693  1
  Zn  Zn139  1  0.43216039  0.43701567  0.18111016  1
  Zn  Zn140  1  0.43809711  0.43517211  0.68753601  1
  Zn  Zn141  1  0.43460667  0.94251330  0.18385731  1
  Zn  Zn142  1  0.43382903  0.93941043  0.69108885  1
  Zn  Zn143  1  0.94691645  0.43983502  0.18592705  1
  Zn  Zn144  1  0.93891986  0.43863019  0.68720897  1
  Zn  Zn145  1  0.92909061  0.93903902  0.18678884  1
  Zn  Zn146  1  0.94027907  0.93855467  0.68709230  1
  Zn  Zn147  1  0.06233454  0.05778753  0.31521146  1
  Zn  Zn148  1  0.05660360  0.06161231  0.81489950  1
  Zn  Zn149  1  0.05819934  0.56263596  0.31720027  1
  Zn  Zn150  1  0.06565662  0.56815252  0.81008881  1
  Zn  Zn151  1  0.55828913  0.06793152  0.31397304  1
  Zn  Zn152  1  0.56093826  0.03646146  0.80951579  1
  Zn  Zn153  1  0.56342482  0.57506516  0.30858905  1
  Zn  Zn154  1  0.56461982  0.56230838  0.81290248  1
  Zn  Zn155  1  0.43453258  0.19119934  0.43425954  1
  Zn  Zn156  1  0.43242216  0.18158720  0.93980848  1
  Zn  Zn157  1  0.43656028  0.68739050  0.43794069  1
  Zn  Zn158  1  0.44574205  0.68880136  0.93336029  1
  Zn  Zn159  1  0.93451523  0.18421999  0.43464079  1
  Zn  Zn160  1  0.93188662  0.19065904  0.94041600  1
  Zn  Zn161  1  0.93800869  0.68585487  0.43573603  1
  Zn  Zn162  1  0.92901235  0.68835591  0.93242291  1
  Zn  Zn163  1  0.06011720  0.31294872  0.06220360  1
  Zn  Zn164  1  0.06380931  0.31318291  0.56666466  1
  Zn  Zn165  1  0.08185169  0.78668134  0.08162936  1
  Zn  Zn166  1  0.06040833  0.81170334  0.55973145  1
  Zn  Zn167  1  0.55954111  0.29495674  0.05952577  1
  Zn  Zn168  1  0.56541558  0.31405143  0.55875214  1
  Zn  Zn169  1  0.55731807  0.81072806  0.06600173  1
  Zn  Zn170  1  0.56103729  0.81132018  0.56149210  1
  O  O171  1  0.12684882  0.11681550  0.11152569  1
  O  O172  1  0.12529727  0.11734340  0.61541394  1
  O  O173  1  0.11313554  0.67154153  0.11019913  1
  O  O174  1  0.11730165  0.61944026  0.62181718  1
  O  O175  1  0.61903787  0.12068054  0.13204488  1
  O  O176  1  0.63105155  0.11155323  0.61081431  1
  O  O177  1  0.60709676  0.62592653  0.13703675  1
  O  O178  1  0.61999842  0.61992935  0.62161579  1
  O  O179  1  0.36742952  0.38349037  0.38429547  1
  O  O180  1  0.38148142  0.37991908  0.87891304  1
  O  O181  1  0.37828829  0.88097359  0.38092648  1
  O  O182  1  0.37021381  0.88692148  0.87267135  1
  O  O183  1  0.88703859  0.38061413  0.38265145  1
  O  O184  1  0.89179469  0.37700683  0.88302524  1
  O  O185  1  0.88120648  0.87819631  0.38303690  1
  O  O186  1  0.87799699  0.88098352  0.88352389  1
  O  O187  1  0.25318773  0.00855898  0.36906382  1
  O  O188  1  0.25881291  0.00777110  0.87804369  1
  O  O189  1  0.25941454  0.50319817  0.36615044  1
  O  O190  1  0.26060828  0.49758359  0.86567764  1
  O  O191  1  0.75340710  0.00545721  0.36935786  1
  O  O192  1  0.76369119  -0.00860224  0.86179733  1
  O  O193  1  0.76212636  0.51037744  0.38538429  1
  O  O194  1  0.74235270  0.51007295  0.87231203  1
  O  O195  1  0.25481000  0.48712673  0.13478843  1
  O  O196  1  0.24866767  0.49564961  0.63573484  1
  O  O197  1  0.25169863  0.98710545  0.13226733  1
  O  O198  1  0.23472675  0.99353398  0.61891016  1
  O  O199  1  0.75183178  0.49652716  0.12908258  1
  O  O200  1  0.74437348  0.49512854  0.63278952  1
  O  O201  1  0.75659792  0.98474069  0.14073842  1
  O  O202  1  0.74321503  0.99433452  0.62932178  1
  O  O203  1  0.01741435  0.37864535  0.25642041  1
  O  O204  1  -0.00144608  0.37015814  0.76136446  1
  O  O205  1  -0.00071833  0.88414241  0.26382883  1
  O  O206  1  0.00676597  0.86895407  0.75301014  1
  O  O207  1  0.48615424  0.35566127  0.24170711  1
  O  O208  1  0.51035594  0.37746441  0.75710294  1
  O  O209  1  0.50143810  0.87380564  0.25530658  1
  O  O210  1  0.49571281  0.86273803  0.75218892  1
  O  O211  1  0.48566032  0.12885488  0.24212244  1
  O  O212  1  0.48546992  0.12356807  0.75127058  1
  O  O213  1  0.48660432  0.63505083  0.24583587  1
  O  O214  1  0.49662623  0.63668807  0.74717974  1
  O  O215  1  0.98257394  0.10583893  0.24891392  1
  O  O216  1  0.99107442  0.13315524  0.74899992  1
  O  O217  1  0.98979471  0.62342325  0.25483089  1
  O  O218  1  0.99698736  0.63265723  0.74241474  1
  O  O219  1  0.35927990  0.25707580  -0.00774918  1
  O  O220  1  0.36582923  0.25486130  0.50578112  1
  O  O221  1  0.37763466  0.74656195  0.01033202  1
  O  O222  1  0.36957960  0.75554794  0.50710575  1
  O  O223  1  0.87616241  0.27227606  -0.00234110  1
  O  O224  1  0.87172772  0.25419587  0.50643538  1
  O  O225  1  0.86578441  0.76073756  0.00604776  1
  O  O226  1  0.86626612  0.75757560  0.49341089  1
  O  O227  1  0.13550807  0.23968878  0.50884485  1
  O  O228  1  0.13127494  0.23898942  0.99672935  1
  O  O229  1  0.13044921  0.74580941  0.49361719  1
  O  O230  1  0.11783052  0.76358431  0.97603801  1
  O  O231  1  0.63421314  0.23454956  0.51069916  1
  O  O232  1  0.64576200  0.23611356  1.00312943  1
  O  O233  1  0.63247550  0.74549933  0.49472693  1
  O  O234  1  0.63775365  0.75264591  1.00602456  1
  O  O235  1  0.50083030  0.23081104  0.13848879  1
  O  O236  1  0.48492627  0.25226935  0.61828702  1
  O  O237  1  0.48954280  0.74505648  0.13270664  1
  O  O238  1  0.49460677  0.74697110  0.63531788  1
  O  O239  1  0.99222054  0.24438930  0.11772902  1
  O  O240  1  0.99455951  0.25159311  0.63787614  1
  O  O241  1  0.97807641  0.76031859  0.12103296  1
  O  O242  1  1.00744307  0.73938861  0.63251641  1
  O  O243  1  -0.00381759  0.26454840  0.37998371  1
  O  O244  1  -0.00011995  0.25666053  0.86505068  1
  O  O245  1  0.00932966  0.76006787  0.38292149  1
  O  O246  1  0.00570642  0.75498121  0.86481865  1
  O  O247  1  0.49379333  0.24055530  0.35176044  1
  O  O248  1  0.48929567  0.26078307  0.87206396  1
  O  O249  1  0.50388384  0.75704630  0.37065826  1
  O  O250  1  0.49455228  0.76323697  0.86127802  1
  O  O251  1  0.24339088  0.13141990  0.49349625  1
  O  O252  1  0.24187219  0.12953273  0.99217904  1
  O  O253  1  0.24411991  0.63166164  0.50213465  1
  O  O254  1  0.25104154  0.61902692  0.99900338  1
  O  O255  1  0.74550666  0.12844438  0.49316290  1
  O  O256  1  0.78467827  0.15205041  0.99574139  1
  O  O257  1  0.74558034  0.63173189  0.49342485  1
  O  O258  1  0.75138601  0.63632473  0.99131341  1
  O  O259  1  0.25131431  0.36808669  0.00422256  1
  O  O260  1  0.25612594  0.36770818  0.50483796  1
  O  O261  1  0.24740655  0.88183198  0.01298848  1
  O  O262  1  0.25473549  0.87007703  0.50568700  1
  O  O263  1  0.76936745  0.37679225  -0.00706494  1
  O  O264  1  0.75885754  0.36954745  0.50726132  1
  O  O265  1  0.75389776  0.86608659  0.00550416  1
  O  O266  1  0.75931163  0.86547971  0.49694730  1
  O  O267  1  0.13902965  0.50239994  0.25487499  1
  O  O268  1  0.13711271  0.50076743  0.74650027  1
  O  O269  1  0.13689703  1.00034705  0.24665178  1
  O  O270  1  0.11387331  0.99036704  0.74035640  1
  O  O271  1  0.60520321  0.48837154  0.25517480  1
  O  O272  1  0.63442199  0.49041068  0.74525021  1
  O  O273  1  0.63450231  0.99559808  0.25979926  1
  O  O274  1  0.63626716  1.00107927  0.73098542  1
  O  O275  1  0.36483883  0.01201518  0.25575136  1
  O  O276  1  0.37161889  0.01412472  0.75368873  1
  O  O277  1  0.36672330  0.50603544  0.25661181  1
  O  O278  1  0.36983158  0.50442904  0.75749644  1
  O  O279  1  0.86041945  0.00275325  0.25888607  1
  O  O280  1  0.87255710  0.00619623  0.75458347  1
  O  O281  1  0.88025652  0.49438045  0.26614840  1
  O  O282  1  0.85908800  0.49800164  0.74728373  1
  O  O283  1  0.12218294  0.37714751  0.36104083  1
  O  O284  1  0.11092430  0.37275424  0.87379995  1
  O  O285  1  0.11570034  0.86841463  0.37630388  1
  O  O286  1  0.11879581  0.87222369  0.86389702  1
  O  O287  1  0.61432266  0.36638241  0.40033912  1
  O  O288  1  0.61233284  0.37939086  0.86601874  1
  O  O289  1  0.61841938  0.87111453  0.37172944  1
  O  O290  1  0.60764087  0.88845239  0.87426201  1
  O  O291  1  0.36589693  0.12390699  0.13578513  1
  O  O292  1  0.36743964  0.12943880  0.63723368  1
  O  O293  1  0.38177757  0.63407257  0.13312494  1
  O  O294  1  0.38095046  0.63079486  0.63085080  1
  O  O295  1  0.86600789  0.11385802  0.14070130  1
  O  O296  1  0.87882557  0.13037415  0.63372248  1
  O  O297  1  0.87256446  0.64177203  0.12436830  1
  O  O298  1  0.88823571  0.61819852  0.62608716  1
  O  O299  1  0.24441836  0.26046660  0.11210074  1
  O  O300  1  0.25797307  0.25453340  0.61485957  1
  O  O301  1  0.26035358  0.76685812  0.13006733  1
  O  O302  1  0.25315318  0.75574809  0.62128039  1
  O  O303  1  0.76121782  0.26521957  0.11006250  1
  O  O304  1  0.75846304  0.25579112  0.62035307  1
  O  O305  1  0.75593523  0.75681500  0.11432346  1
  O  O306  1  0.74464057  0.74820853  0.61114543  1
  O  O307  1  0.25489418  0.24078540  0.38652835  1
  O  O308  1  0.24598876  0.23999634  0.88288032  1
  O  O309  1  0.24166545  0.74861321  0.38422850  1
  O  O310  1  0.23407916  0.74989119  0.86519989  1
  O  O311  1  0.75552021  0.23831726  0.38257471  1
  O  O312  1  0.75312752  0.26250994  0.88856230  1
  O  O313  1  0.74473125  0.74197872  0.38500612  1
  O  O314  1  0.74565515  0.74846657  0.88876106  1
  O  O315  1  0.00589833  0.11588107  -0.00498368  1
  O  O316  1  0.00874978  0.12027273  0.49895607  1
  O  O317  1  -0.00501214  0.61417939  -0.00798743  1
  O  O318  1  0.00573627  0.62002918  0.50770331  1
  O  O319  1  0.50713216  0.13542922  0.01314436  1
  O  O320  1  0.51506310  0.12652650  0.49205774  1
  O  O321  1  0.50142138  0.63217391  0.01444797  1
  O  O322  1  0.50640145  0.62597130  0.50769549  1
  O  O323  1  0.48351499  0.37732064  0.50514958  1
  O  O324  1  0.48486947  0.35984543  0.99125883  1
  O  O325  1  0.49125762  0.87653387  0.49390659  1
  O  O326  1  0.49912361  0.86603209  0.98562423  1
  O  O327  1  0.99993581  0.37908130  0.49515030  1
  O  O328  1  0.99776560  0.38804579  0.98923587  1
  O  O329  1  0.99227718  0.87888759  0.49216565  1
  O  O330  1  0.98563294  0.88502166  0.99586543  1
  O  O331  1  0.48422612  0.50248264  0.37584100  1
  O  O332  1  0.48960515  0.48980608  0.87020073  1
  O  O333  1  0.49148801  0.99576331  0.37715118  1
  O  O334  1  0.48156433  0.98104867  0.86683828  1
  O  O335  1  0.99411069  0.48972304  0.38419875  1
  O  O336  1  1.00225836  0.49286398  0.87421744  1
  O  O337  1  0.99447431  0.99049020  0.38346859  1
  O  O338  1  0.98783715  0.99334586  0.88296905  1
  O  O339  1  -0.00329457  0.00015009  0.11254998  1
  O  O340  1  0.01115812  0.00170924  0.61799595  1
  O  O341  1  0.00064877  0.51151500  0.11207431  1
  O  O342  1  0.00722070  0.50699167  0.62185626  1
  O  O343  1  0.49307099  0.02075233  0.12908485  1
  O  O344  1  0.51493752  -0.00545431  0.62524452  1
  O  O345  1  0.48812492  0.51927481  0.12571119  1
  O  O346  1  0.50568932  0.50747884  0.62561970  1
  O  O347  1  0.24059113  0.37836488  0.24442988  1
  O  O348  1  0.25202541  0.38374866  0.74670252  1
  O  O349  1  0.25101486  0.88760231  0.24993574  1
  O  O350  1  0.23380850  0.87012623  0.74171425  1
  O  O351  1  0.74776484  0.35298850  0.25506033  1
  O  O352  1  0.74312127  0.38172739  0.74701924  1
  O  O353  1  0.74168583  0.88041779  0.24666611  1
  O  O354  1  0.75989133  0.88591328  0.74502366  1
  O  O355  1  0.25575633  0.12005829  0.25513293  1
  O  O356  1  0.25096677  0.12815417  0.76147333  1
  O  O357  1  0.26024798  0.61771217  0.24737980  1
  O  O358  1  0.25730460  0.61544505  0.75316595  1
  O  O359  1  0.75476932  0.11742759  0.25790644  1
  O  O360  1  0.76330955  0.11243670  0.74272370  1
  O  O361  1  0.75225870  0.63294166  0.26549233  1
  O  O362  1  0.74994512  0.61636247  0.75882641  1
  O  O363  1  0.36231954  0.12035467  0.36966399  1
  O  O364  1  0.36823724  0.11577590  0.86430477  1
  O  O365  1  0.37220821  0.61821001  0.36648739  1
  O  O366  1  0.37960627  0.61550966  0.87054137  1
  O  O367  1  0.86444651  0.11650665  0.37025035  1
  O  O368  1  0.88159860  0.11423851  0.86412168  1
  O  O369  1  0.86777604  0.61518111  0.37708757  1
  O  O370  1  0.85169455  0.63355686  0.87005753  1
  O  O371  1  0.13243927  0.37211915  0.13964791  1
  O  O372  1  0.13301123  0.38307890  0.62890958  1
  O  O373  1  0.14078299  0.87269008  0.13150319  1
  O  O374  1  0.12650548  0.88187776  0.62923393  1
  O  O375  1  0.62885432  0.38545696  0.09014647  1
  O  O376  1  0.63072298  0.38084988  0.63072967  1
  O  O377  1  0.63411677  0.86826046  0.13321248  1
  O  O378  1  0.63153659  0.88799832  0.61169783  1
  O  O379  1  0.12980289  0.25690509  0.25133241  1
  O  O380  1  0.11409122  0.25140837  0.75022904  1
  O  O381  1  0.13379741  0.75199653  0.26775179  1
  O  O382  1  0.11359134  0.75909051  0.75685677  1
  O  O383  1  0.61141471  0.24353872  0.24817759  1
  O  O384  1  0.63066903  0.26337634  0.73898320  1
  O  O385  1  0.61734873  0.75867586  0.25731043  1
  O  O386  1  0.61187255  0.75264908  0.74474807  1
  O  O387  1  0.37306372  0.23524165  0.24998117  1
  O  O388  1  0.36874746  0.23445175  0.74142677  1
  O  O389  1  0.37647194  0.74143357  0.24781267  1
  O  O390  1  0.37922591  0.74418539  0.74399037  1
  O  O391  1  0.87670221  0.22636415  0.24821506  1
  O  O392  1  0.88063550  0.24318692  0.74751782  1
  O  O393  1  0.86462983  0.75426116  0.23474589  1
  O  O394  1  0.88794573  0.75343001  0.75216601  1
  O  O395  1  0.37256912  0.49193203  0.49231977  1
  O  O396  1  0.37005190  0.48447863  0.98861489  1
  O  O397  1  0.37517680  0.99572017  0.49589408  1
  O  O398  1  0.37613120  1.00582028  0.98345565  1
  O  O399  1  0.88309958  0.49178114  0.49435392  1
  O  O400  1  0.88954743  0.49221885  0.99858965  1
  O  O401  1  0.87861709  0.99236879  0.49553517  1
  O  O402  1  0.87363497  0.99247179  0.99291125  1
  O  O403  1  0.11187487  0.00560956  -0.00118823  1
  O  O404  1  0.12008496  0.00822905  0.50686029  1
  O  O405  1  0.10845315  0.50437686  -0.00582762  1
  O  O406  1  0.12285614  0.50498896  0.50581031  1
  O  O407  1  0.67331132  0.02749346  0.00698796  1
  O  O408  1  0.62415118  0.01013950  0.50837339  1
  O  O409  1  0.61703504  0.45320155  0.03779660  1
  O  O410  1  0.62340563  0.50867715  0.50882965  1
  O  O411  1  0.36136387  0.37625384  0.11177220  1
  O  O412  1  0.36899497  0.36749028  0.61902050  1
  O  O413  1  0.36466321  0.86936800  0.12813558  1
  O  O414  1  0.36775364  0.87139450  0.62114908  1
  O  O415  1  0.88212066  0.38064464  0.11040994  1
  O  O416  1  0.87137296  0.36997488  0.62091388  1
  O  O417  1  0.86169088  0.86849474  0.11819508  1
  O  O418  1  0.87615365  0.87886061  0.61017572  1
  O  O419  1  0.13523580  0.11837657  0.38574796  1
  O  O420  1  0.13089946  0.12102260  0.88326889  1
  O  O421  1  0.12551853  0.63319868  0.38474668  1
  O  O422  1  0.12486716  0.64023617  0.87747470  1
  O  O423  1  0.63713981  0.11805309  0.38837852  1
  O  O424  1  0.61516615  0.11997471  0.85849789  1
  O  O425  1  0.63231603  0.63209508  0.38167876  1
  O  O426  1  0.64002637  0.62654057  0.87087445  1
