# generated using pymatgen
data_V85Zn86O256
_symmetry_space_group_name_H-M   'P 1'
_cell_length_a   16.98666324
_cell_length_b   16.97611408
_cell_length_c   16.97448635
_cell_angle_alpha   89.95860941
_cell_angle_beta   90.16407597
_cell_angle_gamma   89.73710682
_symmetry_Int_Tables_number   1
_chemical_formula_structural   V85Zn86O256
_chemical_formula_sum   'V85 Zn86 O256'
_cell_volume   4894.81783126
_cell_formula_units_Z   1
loop_
 _symmetry_equiv_pos_site_id
 _symmetry_equiv_pos_as_xyz
  1  'x, y, z'
loop_
 _atom_site_type_symbol
 _atom_site_label
 _atom_site_symmetry_multiplicity
 _atom_site_fract_x
 _atom_site_fract_y
 _atom_site_fract_z
 _atom_site_occupancy
  V  V0  1  0.74602667  0.63960313  0.87873479  1
  V  V1  1  0.51348485  0.61934318  0.62116139  1
  V  V2  1  0.50948693  0.87457706  0.88082661  1
  V  V3  1  0.75006356  0.87228730  0.12091908  1
  V  V4  1  0.24726396  0.12478586  0.37552586  1
  V  V5  1  0.49423777  0.00011026  0.49835957  1
  V  V6  1  0.50521761  0.87523496  0.37154075  1
  V  V7  1  0.24928860  0.49857813  0.25373726  1
  V  V8  1  0.37466256  0.74762571  0.11832564  1
  V  V9  1  0.12391683  0.50120093  0.62748923  1
  V  V10  1  0.62563469  0.24822526  0.87602125  1
  V  V11  1  -0.00297129  0.12167567  0.11890558  1
  V  V12  1  0.12032131  0.37084055  0.75806581  1
  V  V13  1  0.75300483  0.00174169  0.74888871  1
  V  V14  1  -0.00008927  0.87518482  0.37903505  1
  V  V15  1  0.87805542  0.87409466  0.00103148  1
  V  V16  1  0.62461939  0.13104825  0.49547201  1
  V  V17  1  -0.00571685  0.24521403  0.74575980  1
  V  V18  1  0.12283443  0.37434131  0.25177513  1
  V  V19  1  -0.00281949  0.75060897  0.74848996  1
  V  V20  1  0.62570170  -0.00349185  0.62667248  1
  V  V21  1  0.37258205  0.63909827  0.74450302  1
  V  V22  1  0.86728134  0.62441189  0.25378932  1
  V  V23  1  0.50347206  0.12168915  0.11322024  1
  V  V24  1  0.24914258  0.24992099  0.50038173  1
  V  V25  1  0.75915729  0.86979682  0.61905552  1
  V  V26  1  0.50562808  0.24711133  0.25475289  1
  V  V27  1  0.75281476  0.36732504  0.62701177  1
  V  V28  1  0.13082402  0.62504510  0.50080998  1
  V  V29  1  0.12227916  0.12811428  -0.00378779  1
  V  V30  1  0.87402601  0.74427268  0.12351201  1
  V  V31  1  0.11894669  0.62889218  -0.01330699  1
  V  V32  1  0.45859540  0.30269392  0.80016117  1
  V  V33  1  -0.00092704  0.74127543  0.24802639  1
  V  V34  1  0.50136452  0.12955099  0.62951471  1
  V  V35  1  0.00324773  0.87157556  0.87883077  1
  V  V36  1  0.88157831  0.00308284  0.88070789  1
  V  V37  1  0.12523743  0.87332620  0.24892275  1
  V  V38  1  0.37475923  0.12377133  0.24963956  1
  V  V39  1  0.51968811  0.49991946  0.50182049  1
  V  V40  1  0.85685589  0.37614545  0.00357778  1
  V  V41  1  0.00227997  0.00350785  0.50278921  1
  V  V42  1  0.24957174  0.87401307  0.12320100  1
  V  V43  1  0.50935846  0.75713186  0.73761182  1
  V  V44  1  0.37644082  0.88123150  -0.00160349  1
  V  V45  1  0.87708757  0.12737891  0.73709466  1
  V  V46  1  0.25183592  -0.00303964  0.75040469  1
  V  V47  1  0.74937532  0.49452560  0.24242741  1
  V  V48  1  0.12243685  0.00357060  0.62707796  1
  V  V49  1  0.11896764  -0.00092233  0.11958287  1
  V  V50  1  0.74753799  0.12552186  0.88313207  1
  V  V51  1  -0.00493932  0.50179306  0.00495635  1
  V  V52  1  0.24231291  0.25067759  -0.00156494  1
  V  V53  1  0.24942223  0.37650014  0.62437023  1
  V  V54  1  0.62664866  0.37440331  0.74895605  1
  V  V55  1  -0.00086346  0.24952047  0.25029506  1
  V  V56  1  0.50099707  0.75121117  0.24429682  1
  V  V57  1  0.75150520  0.73441345  0.49247998  1
  V  V58  1  -0.00142149  0.37433177  0.37621213  1
  V  V59  1  0.25664472  0.50266128  0.75763770  1
  V  V60  1  0.24926401  0.00005158  0.24968982  1
  V  V61  1  0.25015669  0.37468082  0.12237264  1
  V  V62  1  0.50894154  0.37021776  0.37680215  1
  V  V63  1  0.37574360  0.25090636  0.62576951  1
  V  V64  1  0.86956710  0.50008964  0.87466152  1
  V  V65  1  0.86792190  0.25491146  0.12226433  1
  V  V66  1  0.62394794  0.63651251  0.00650390  1
  V  V67  1  0.86893567  0.50288783  0.37704033  1
  V  V68  1  0.12750482  0.87014497  0.75776372  1
  V  V69  1  0.37319173  0.85112088  0.49932155  1
  V  V70  1  0.87379408  0.12364282  0.24993778  1
  V  V71  1  0.37494025  0.25277834  0.12129723  1
  V  V72  1  0.62846566  0.37182238  0.24002619  1
  V  V73  1  0.13057995  0.74766259  0.37597849  1
  V  V74  1  0.74606552  0.50043019  0.74640243  1
  V  V75  1  0.37701387  0.12089013  0.75145278  1
  V  V76  1  0.87601658  0.36617491  0.50499033  1
  V  V77  1  0.25400652  0.62686993  0.37825737  1
  V  V78  1  0.74564139  0.13155788  0.37447790  1
  V  V79  1  0.38104408  0.62312842  0.24404168  1
  V  V80  1  0.74804548  -0.00203822  0.25129808  1
  V  V81  1  -0.00466236  0.63096554  0.62570011  1
  V  V82  1  0.37745174  0.49803884  0.37997682  1
  V  V83  1  0.11794106  0.50962836  0.12891799  1
  V  V84  1  0.62233559  0.00274888  0.11130329  1
  Zn  Zn85  1  0.24494143  0.12576116  0.87405564  1
  Zn  Zn86  1  0.62664161  0.87133634  0.24871813  1
  Zn  Zn87  1  0.37213738  -0.00230523  0.37514920  1
  Zn  Zn88  1  0.37852214  0.37550738  0.50141938  1
  Zn  Zn89  1  0.63599638  0.72589706  0.37298907  1
  Zn  Zn90  1  0.75328973  0.24513597  0.50582122  1
  Zn  Zn91  1  -0.00018678  0.36781858  0.88093134  1
  Zn  Zn92  1  0.12065615  0.12717650  0.50665014  1
  Zn  Zn93  1  0.87248706  0.62906580  0.74795602  1
  Zn  Zn94  1  0.12349401  0.25080351  0.37697478  1
  Zn  Zn95  1  0.87401575  -0.00254311  0.37906167  1
  Zn  Zn96  1  0.41663995  0.44878300  -0.08389439  1
  Zn  Zn97  1  0.23147974  0.75572407  -0.01464980  1
  Zn  Zn98  1  -0.00276003  0.50036237  0.50166258  1
  Zn  Zn99  1  0.88628068  0.86642739  0.50731034  1
  Zn  Zn100  1  0.73414713  0.25028446  0.00830471  1
  Zn  Zn101  1  0.63327634  0.87093106  0.75608349  1
  Zn  Zn102  1  0.47373448  0.52777984  0.03464944  1
  Zn  Zn103  1  0.38029314  0.00076827  0.87979779  1
  Zn  Zn104  1  0.29137039  0.61136374  0.90224481  1
  Zn  Zn105  1  0.26481688  0.85779232  0.62914922  1
  Zn  Zn106  1  0.61745056  0.50115396  0.11888249  1
  Zn  Zn107  1  0.18446604  0.18728423  0.18667427  1
  Zn  Zn108  1  0.18530908  0.18862630  0.68934583  1
  Zn  Zn109  1  0.19344272  0.68825151  0.18838032  1
  Zn  Zn110  1  0.18833570  0.68974864  0.69537256  1
  Zn  Zn111  1  0.68420512  0.18361036  0.18687865  1
  Zn  Zn112  1  0.68795927  0.18809074  0.69231185  1
  Zn  Zn113  1  0.68956321  0.68785145  0.18910518  1
  Zn  Zn114  1  0.69115264  0.68691558  0.68449525  1
  Zn  Zn115  1  0.31551952  0.31176757  0.31169292  1
  Zn  Zn116  1  0.29060745  0.30973306  0.81229094  1
  Zn  Zn117  1  0.31725621  0.81339667  0.31320588  1
  Zn  Zn118  1  0.31430640  0.80535007  0.82108688  1
  Zn  Zn119  1  0.81343341  0.31256844  0.31323396  1
  Zn  Zn120  1  0.81266238  0.31127204  0.81698954  1
  Zn  Zn121  1  0.81326743  0.81187640  0.31488683  1
  Zn  Zn122  1  0.81891789  0.81689785  0.80688063  1
  Zn  Zn123  1  0.18660508  0.43820428  0.43900923  1
  Zn  Zn124  1  0.18546845  0.44356179  0.94008368  1
  Zn  Zn125  1  0.18914716  0.93434999  0.44005456  1
  Zn  Zn126  1  0.19075125  0.94246697  0.93733878  1
  Zn  Zn127  1  0.69375562  0.43193907  0.43306243  1
  Zn  Zn128  1  0.58996388  0.44620724  0.93294234  1
  Zn  Zn129  1  0.68521646  0.93874990  0.43850452  1
  Zn  Zn130  1  0.69319863  0.93519138  0.93673009  1
  Zn  Zn131  1  0.31040999  0.06444597  0.06604265  1
  Zn  Zn132  1  0.30847831  0.06016764  0.56698361  1
  Zn  Zn133  1  0.30278487  0.56080380  0.06728311  1
  Zn  Zn134  1  0.31709515  0.56786787  0.56712010  1
  Zn  Zn135  1  0.81197938  0.05998007  0.06304417  1
  Zn  Zn136  1  0.81372781  0.05547422  0.55708595  1
  Zn  Zn137  1  0.80440871  0.56475773  0.06001144  1
  Zn  Zn138  1  0.81138850  0.55564801  0.56473390  1
  Zn  Zn139  1  0.43988259  0.43449713  0.18788169  1
  Zn  Zn140  1  0.43650566  0.44581492  0.68262875  1
  Zn  Zn141  1  0.43774340  0.93895455  0.18405112  1
  Zn  Zn142  1  0.43607120  0.93633438  0.68053600  1
  Zn  Zn143  1  0.93568887  0.43721126  0.18770556  1
  Zn  Zn144  1  0.93704127  0.43712219  0.68872765  1
  Zn  Zn145  1  0.93736220  0.93499862  0.19052440  1
  Zn  Zn146  1  0.94115087  0.94052518  0.68977773  1
  Zn  Zn147  1  0.06286347  0.06215815  0.31147841  1
  Zn  Zn148  1  0.06015677  0.06202459  0.81203074  1
  Zn  Zn149  1  0.05823728  0.56125070  0.31518252  1
  Zn  Zn150  1  0.05714243  0.55790703  0.81241186  1
  Zn  Zn151  1  0.56381721  0.06006533  0.30881453  1
  Zn  Zn152  1  0.56446634  0.05960123  0.81584564  1
  Zn  Zn153  1  0.56655223  0.55809984  0.30859008  1
  Zn  Zn154  1  0.56288188  0.57169876  0.81171399  1
  Zn  Zn155  1  0.43457093  0.18567986  0.43848841  1
  Zn  Zn156  1  0.43109188  0.18673117  0.94059673  1
  Zn  Zn157  1  0.46755552  0.67343445  0.42273478  1
  Zn  Zn158  1  0.44777610  0.69236660  0.92818526  1
  Zn  Zn159  1  0.93576787  0.18442069  0.43499103  1
  Zn  Zn160  1  0.93743859  0.19395661  0.93222047  1
  Zn  Zn161  1  0.93703851  0.68851329  0.44123008  1
  Zn  Zn162  1  0.93591527  0.68768596  0.93702508  1
  Zn  Zn163  1  0.05794083  0.31512674  0.06549467  1
  Zn  Zn164  1  0.06045381  0.31174107  0.56647593  1
  Zn  Zn165  1  0.05617076  0.81165749  0.06440944  1
  Zn  Zn166  1  0.10352538  0.79551260  0.58218608  1
  Zn  Zn167  1  0.54883343  0.32105079  0.05609014  1
  Zn  Zn168  1  0.56591273  0.31491059  0.56634893  1
  Zn  Zn169  1  0.56634773  0.81105099  0.06191480  1
  Zn  Zn170  1  0.56721927  0.80905427  0.55754876  1
  O  O171  1  0.11598050  0.11753779  0.12022223  1
  O  O172  1  0.13203634  0.10898178  0.62608055  1
  O  O173  1  0.12858551  0.61166287  0.12797804  1
  O  O174  1  0.11935671  0.61673397  0.61905409  1
  O  O175  1  0.61526505  0.11592373  0.12769599  1
  O  O176  1  0.61942161  0.11655765  0.62044198  1
  O  O177  1  0.63726282  0.62652077  0.11079491  1
  O  O178  1  0.61242882  0.62376540  0.62859952  1
  O  O179  1  0.38462435  0.38340119  0.37424341  1
  O  O180  1  0.38636600  0.35686927  0.85569312  1
  O  O181  1  0.38459661  0.87914422  0.38383424  1
  O  O182  1  0.38358697  0.87594175  0.88482317  1
  O  O183  1  0.87924391  0.38162906  0.38262393  1
  O  O184  1  0.87265432  0.38469480  0.88640947  1
  O  O185  1  0.89019386  0.87661457  0.37297892  1
  O  O186  1  0.88060026  0.88267468  0.88228329  1
  O  O187  1  0.24896614  0.00850256  0.36899746  1
  O  O188  1  0.25581865  0.00410808  0.86260600  1
  O  O189  1  0.25870363  0.50388117  0.37278215  1
  O  O190  1  0.24576629  0.50628453  0.86322972  1
  O  O191  1  0.75059047  0.00454354  0.36569083  1
  O  O192  1  0.75897754  0.00497052  0.86900562  1
  O  O193  1  0.76284468  0.49488897  0.36487165  1
  O  O194  1  0.76264308  0.51406439  0.86409112  1
  O  O195  1  0.24037903  0.49078073  0.13360286  1
  O  O196  1  0.24082464  0.49716024  0.63202846  1
  O  O197  1  0.23994701  0.99443085  0.13084845  1
  O  O198  1  0.24467456  0.99148693  0.63654948  1
  O  O199  1  0.75238247  0.49974109  0.14059875  1
  O  O200  1  0.75531256  0.48814392  0.63845133  1
  O  O201  1  0.74427156  0.99361421  0.13181392  1
  O  O202  1  0.74219892  0.99341583  0.62827130  1
  O  O203  1  0.00283100  0.36938069  0.25617802  1
  O  O204  1  0.00493464  0.36707076  0.75242352  1
  O  O205  1  0.00635705  0.86673470  0.25839412  1
  O  O206  1  0.00689265  0.87036177  0.75840479  1
  O  O207  1  0.50713311  0.36528299  0.25788441  1
  O  O208  1  0.50834327  0.36904166  0.73564424  1
  O  O209  1  0.50034860  0.87097815  0.25511011  1
  O  O210  1  0.50178011  0.86519381  0.74499693  1
  O  O211  1  0.49518165  0.13267075  0.24604832  1
  O  O212  1  0.49136815  0.11501004  0.73808042  1
  O  O213  1  0.48546579  0.63555607  0.25203759  1
  O  O214  1  0.49766125  0.63800732  0.73763729  1
  O  O215  1  0.99443982  0.12903591  0.24144875  1
  O  O216  1  0.99289756  0.13593923  0.75446423  1
  O  O217  1  0.98920840  0.63446188  0.25428600  1
  O  O218  1  1.00267739  0.63415337  0.74349311  1
  O  O219  1  0.36202435  0.24560188  0.01452811  1
  O  O220  1  0.36439339  0.25054706  0.50651149  1
  O  O221  1  0.38303270  0.75725392  0.01100758  1
  O  O222  1  0.38670033  0.75440853  0.48775135  1
  O  O223  1  0.87570188  0.26010517  0.00754979  1
  O  O224  1  0.87362245  0.26160494  0.49429229  1
  O  O225  1  0.88252397  0.75982898  0.01283670  1
  O  O226  1  0.86024089  0.75421942  0.49623074  1
  O  O227  1  0.13643444  0.24762652  0.50158627  1
  O  O228  1  0.13176418  0.24048114  1.01299010  1
  O  O229  1  0.11695900  0.73786079  0.48228880  1
  O  O230  1  0.11628189  0.73254208  1.00874638  1
  O  O231  1  0.62741733  0.23388848  0.50647575  1
  O  O232  1  0.61942089  0.26051478  0.98266061  1
  O  O233  1  0.64609097  0.75706867  0.49525913  1
  O  O234  1  0.62854080  0.73875327  1.00105645  1
  O  O235  1  0.49167212  0.24480230  0.13156897  1
  O  O236  1  0.49465119  0.23597429  0.61867007  1
  O  O237  1  0.48936416  0.76019846  0.13610549  1
  O  O238  1  0.50372768  0.74063067  0.62991444  1
  O  O239  1  0.99011049  0.24095988  0.13092830  1
  O  O240  1  1.00341244  0.25271335  0.64461951  1
  O  O241  1  0.98707005  0.75815867  0.14011287  1
  O  O242  1  1.01311407  0.74018426  0.63411322  1
  O  O243  1  0.00092403  0.25541484  0.36828152  1
  O  O244  1  -0.00012204  0.25435202  0.85954807  1
  O  O245  1  0.00819144  0.75516265  0.36594663  1
  O  O246  1  -0.00543527  0.76431527  0.86828059  1
  O  O247  1  0.48996459  0.25733229  0.36513941  1
  O  O248  1  0.50654739  0.23929365  0.86929931  1
  O  O249  1  0.49176503  0.76590895  0.35701162  1
  O  O250  1  0.49632401  0.76749960  0.85363420  1
  O  O251  1  0.25002590  0.13230140  0.49311108  1
  O  O252  1  0.23989928  0.13323235  1.00349809  1
  O  O253  1  0.23844486  0.61864770  0.49574853  1
  O  O254  1  0.22603901  0.62178668  1.00281498  1
  O  O255  1  0.74280183  0.12182829  0.49234085  1
  O  O256  1  0.75507323  0.12622947  0.98672011  1
  O  O257  1  0.75319439  0.63607783  0.50845978  1
  O  O258  1  0.74830315  0.63101799  0.98452214  1
  O  O259  1  0.23918797  0.36806165  0.01344547  1
  O  O260  1  0.25129491  0.36577768  0.50483848  1
  O  O261  1  0.25730621  0.87103932  0.00340934  1
  O  O262  1  0.27115808  0.87399909  0.49313130  1
  O  O263  1  0.75887310  0.37277939  0.00411623  1
  O  O264  1  0.75657576  0.37078331  0.50860023  1
  O  O265  1  0.76322819  0.87783718  0.01117371  1
  O  O266  1  0.75404291  0.88077467  0.51304001  1
  O  O267  1  0.12794739  0.49549694  0.24681823  1
  O  O268  1  0.13092067  0.49687888  0.74190956  1
  O  O269  1  0.12939403  0.99418722  0.23992122  1
  O  O270  1  0.13372310  0.99654059  0.74805638  1
  O  O271  1  0.63453584  0.49073056  0.24917486  1
  O  O272  1  0.63926037  0.48893047  0.75786342  1
  O  O273  1  0.63723589  0.99719720  0.24164581  1
  O  O274  1  0.63274209  0.99897277  0.73955584  1
  O  O275  1  0.36653994  0.00600120  0.24911926  1
  O  O276  1  0.36689195  0.00601854  0.74429806  1
  O  O277  1  0.36998598  0.50476163  0.25965426  1
  O  O278  1  0.36128853  0.50334777  0.74615673  1
  O  O279  1  0.86333592  0.00531113  0.24790546  1
  O  O280  1  0.87236449  0.00763716  0.75936975  1
  O  O281  1  0.86984269  0.50509120  0.25569347  1
  O  O282  1  0.86872490  0.50001420  0.75920848  1
  O  O283  1  0.11776810  0.37505256  0.36981450  1
  O  O284  1  0.12211958  0.38679815  0.86164463  1
  O  O285  1  0.12127606  0.86556514  0.36922356  1
  O  O286  1  0.11500722  0.88632475  0.86928667  1
  O  O287  1  0.61294398  0.37531107  0.36666877  1
  O  O288  1  0.62407302  0.36237342  0.85909595  1
  O  O289  1  0.61215333  0.87654320  0.37316207  1
  O  O290  1  0.61429555  0.87823831  0.87383310  1
  O  O291  1  0.38123001  0.13231065  0.13136244  1
  O  O292  1  0.38092822  0.12969253  0.63335300  1
  O  O293  1  0.36423329  0.63463141  0.13477490  1
  O  O294  1  0.39000716  0.61815526  0.63935337  1
  O  O295  1  0.88200055  0.12924153  0.12814239  1
  O  O296  1  0.86784106  0.11756801  0.63842708  1
  O  O297  1  0.86678520  0.63653326  0.13478314  1
  O  O298  1  0.89270228  0.61579449  0.62602895  1
  O  O299  1  0.25502222  0.25621035  0.12148550  1
  O  O300  1  0.25483726  0.25470766  0.61890093  1
  O  O301  1  0.25862593  0.75706840  0.12114589  1
  O  O302  1  0.21201925  0.76115990  0.61408404  1
  O  O303  1  0.76331069  0.23842308  0.12310098  1
  O  O304  1  0.75159880  0.26177296  0.62726552  1
  O  O305  1  0.76201843  0.76404563  0.13608989  1
  O  O306  1  0.74629431  0.76549928  0.61732211  1
  O  O307  1  0.25059723  0.24354096  0.38300689  1
  O  O308  1  0.25017220  0.24453805  0.89287070  1
  O  O309  1  0.23802527  0.74309090  0.36396703  1
  O  O310  1  0.26741079  0.72658802  0.88396511  1
  O  O311  1  0.75223195  0.23425917  0.37526319  1
  O  O312  1  0.74318825  0.24140152  0.87911830  1
  O  O313  1  0.74955544  0.74880248  0.38470931  1
  O  O314  1  0.75906932  0.73771450  0.86193377  1
  O  O315  1  0.00534869  0.13236847  0.01234417  1
  O  O316  1  0.00453185  0.10912327  0.48895534  1
  O  O317  1  0.00556805  0.61277572  -0.00048367  1
  O  O318  1  0.01129537  0.62285982  0.50707409  1
  O  O319  1  0.49342965  0.12635980  0.01421404  1
  O  O320  1  0.50553175  0.11862927  0.50580968  1
  O  O321  1  0.51818637  0.62923097  -0.00727309  1
  O  O322  1  0.49247431  0.61380739  0.51769773  1
  O  O323  1  0.50029561  0.38061782  0.49468262  1
  O  O324  1  0.49870524  0.40579524  1.00087124  1
  O  O325  1  0.49319700  0.88075364  0.49221857  1
  O  O326  1  0.49518672  0.86863756  0.98576798  1
  O  O327  1  0.99268967  0.37621544  0.49619648  1
  O  O328  1  0.99592352  0.38848188  0.99923242  1
  O  O329  1  1.00594581  0.88111873  0.48777818  1
  O  O330  1  0.99015786  0.87392916  0.99233759  1
  O  O331  1  0.49324528  0.48826653  0.38207220  1
  O  O332  1  0.50840206  0.49264391  0.86421922  1
  O  O333  1  0.49807900  0.99439755  0.38196660  1
  O  O334  1  0.49554588  0.97947262  0.86066891  1
  O  O335  1  0.98847697  0.49180165  0.37627218  1
  O  O336  1  0.98553059  0.49898732  0.88409454  1
  O  O337  1  1.00417521  0.98977440  0.38012965  1
  O  O338  1  0.98804214  0.98906916  0.86841907  1
  O  O339  1  0.00784154  0.00874226  0.13190861  1
  O  O340  1  0.00895504  -0.00515772  0.61455630  1
  O  O341  1  0.00756306  0.49547126  0.11856700  1
  O  O342  1  0.01149190  0.50758405  0.62735520  1
  O  O343  1  0.51048607  0.00935490  0.13184857  1
  O  O344  1  0.50699084  0.00800057  0.61706516  1
  O  O345  1  0.50335211  0.51127304  0.14156368  1
  O  O346  1  0.50452059  0.50831252  0.61729633  1
  O  O347  1  0.24362982  0.37849215  0.24396855  1
  O  O348  1  0.23922909  0.38328728  0.74409947  1
  O  O349  1  0.24458812  0.87908315  0.24429890  1
  O  O350  1  0.24557231  0.88021234  0.75526939  1
  O  O351  1  0.73866120  0.37981056  0.25747181  1
  O  O352  1  0.74712059  0.37951488  0.74548021  1
  O  O353  1  0.75197632  0.88327244  0.24181502  1
  O  O354  1  0.74988784  0.88124188  0.73788701  1
  O  O355  1  0.25347437  0.12173773  0.25592704  1
  O  O356  1  0.26021157  0.11849730  0.74998858  1
  O  O357  1  0.26007195  0.61825651  0.25769538  1
  O  O358  1  0.26466999  0.62051019  0.74436962  1
  O  O359  1  0.75220550  0.11673016  0.25653714  1
  O  O360  1  0.75941852  0.12075963  0.75897346  1
  O  O361  1  0.76052901  0.61603102  0.25285148  1
  O  O362  1  0.75239437  0.61786954  0.75338255  1
  O  O363  1  0.36300729  0.12307515  0.36897065  1
  O  O364  1  0.37620916  0.12082379  0.86225225  1
  O  O365  1  0.37391351  0.61487689  0.36712277  1
  O  O366  1  0.39426810  0.62504424  0.84690386  1
  O  O367  1  0.86474894  0.11889442  0.36800982  1
  O  O368  1  0.86902533  0.11743782  0.86991230  1
  O  O369  1  0.88190755  0.61350151  0.36695685  1
  O  O370  1  0.86779581  0.61852368  0.87342349  1
  O  O371  1  0.13102469  0.38389246  0.13270477  1
  O  O372  1  0.12867541  0.38509457  0.63277622  1
  O  O373  1  0.12731316  0.88086381  0.12790565  1
  O  O374  1  0.12320338  0.89077884  0.64587119  1
  O  O375  1  0.61951798  0.37428336  0.13818010  1
  O  O376  1  0.63684220  0.37015385  0.63778386  1
  O  O377  1  0.63502177  0.88168446  0.12587442  1
  O  O378  1  0.63283869  0.88687152  0.62332331  1
  O  O379  1  0.11699143  0.25657890  0.24984735  1
  O  O380  1  0.11840627  0.26126089  0.74837375  1
  O  O381  1  0.11728841  0.75107301  0.25494533  1
  O  O382  1  0.11566621  0.76312090  0.75634867  1
  O  O383  1  0.61260880  0.25408085  0.24615515  1
  O  O384  1  0.62736729  0.25868137  0.76041148  1
  O  O385  1  0.61489944  0.75056776  0.25209281  1
  O  O386  1  0.61286308  0.75340276  0.74364298  1
  O  O387  1  0.38275243  0.24468758  0.24047668  1
  O  O388  1  0.37752127  0.24244647  0.74728371  1
  O  O389  1  0.37910273  0.74395363  0.23969358  1
  O  O390  1  0.38177538  0.74295330  0.74093542  1
  O  O391  1  0.87876987  0.24423946  0.24210855  1
  O  O392  1  0.88472059  0.24304851  0.75294560  1
  O  O393  1  0.88000831  0.74181978  0.24687178  1
  O  O394  1  0.89257076  0.75037450  0.74704814  1
  O  O395  1  0.37957825  0.49929079  0.48944952  1
  O  O396  1  0.36860608  0.53031073  0.98172542  1
  O  O397  1  0.38843279  1.00389729  0.50065981  1
  O  O398  1  0.36993054  0.98607464  1.00271469  1
  O  O399  1  0.87494456  0.49024574  0.49120950  1
  O  O400  1  0.87748133  0.49508989  0.99820561  1
  O  O401  1  0.88875641  0.99151211  0.49825214  1
  O  O402  1  0.87249687  0.99028299  0.99041174  1
  O  O403  1  0.13059356  0.00864148  0.01427582  1
  O  O404  1  0.12102569  -0.00270129  0.51032018  1
  O  O405  1  0.11477433  0.50923636  0.00875161  1
  O  O406  1  0.12299626  0.50695608  0.50961484  1
  O  O407  1  0.63122735  -0.00396410  0.01228940  1
  O  O408  1  0.61452414  0.00767821  0.50819326  1
  O  O409  1  0.63473545  0.52135446  0.00479688  1
  O  O410  1  0.61792290  0.49514422  0.49376840  1
  O  O411  1  0.36133921  0.36524423  0.13410195  1
  O  O412  1  0.36784500  0.36870061  0.62433093  1
  O  O413  1  0.36968306  0.86855420  0.11752472  1
  O  O414  1  0.37909034  0.87162548  0.60497162  1
  O  O415  1  0.88011212  0.36329571  0.11866944  1
  O  O416  1  0.86847610  0.38124775  0.61387420  1
  O  O417  1  0.87005085  0.87064675  0.11935738  1
  O  O418  1  0.86189355  0.88116081  0.62743443  1
  O  O419  1  0.13790906  0.12787063  0.37512271  1
  O  O420  1  0.12325980  0.11533402  0.89287790  1
  O  O421  1  0.13098895  0.62761125  0.38060428  1
  O  O422  1  0.11762923  0.62247188  0.88767983  1
  O  O423  1  0.63270393  0.11596103  0.38487835  1
  O  O424  1  0.63682149  0.13278593  0.86500033  1
  O  O425  1  0.57556987  0.63443974  0.38676040  1
  O  O426  1  0.64172759  0.62755687  0.87794288  1
