# generated using pymatgen
data_V85Zn86O256
_symmetry_space_group_name_H-M   'P 1'
_cell_length_a   16.95870376
_cell_length_b   16.97681527
_cell_length_c   16.96917293
_cell_angle_alpha   89.97599423
_cell_angle_beta   89.89544138
_cell_angle_gamma   89.89992743
_symmetry_Int_Tables_number   1
_chemical_formula_structural   V85Zn86O256
_chemical_formula_sum   'V85 Zn86 O256'
_cell_volume   4885.49000565
_cell_formula_units_Z   1
loop_
 _symmetry_equiv_pos_site_id
 _symmetry_equiv_pos_as_xyz
  1  'x, y, z'
loop_
 _atom_site_type_symbol
 _atom_site_label
 _atom_site_symmetry_multiplicity
 _atom_site_fract_x
 _atom_site_fract_y
 _atom_site_fract_z
 _atom_site_occupancy
  V  V0  1  0.86921252  0.50252305  0.36897569  1
  V  V1  1  -0.00017259  0.63220571  0.12445487  1
  V  V2  1  0.88040993  0.38404368  -0.00655610  1
  V  V3  1  0.50155910  0.49994626  0.50113377  1
  V  V4  1  0.49868144  0.74830857  0.75379875  1
  V  V5  1  0.12662842  0.24519294  0.87839295  1
  V  V6  1  0.36039829  0.49603215  0.87865025  1
  V  V7  1  0.74217457  0.63017825  0.37585366  1
  V  V8  1  0.36968514  0.25021390  0.61994899  1
  V  V9  1  0.62776620  0.49529987  0.63006344  1
  V  V10  1  0.00301705  0.25016081  0.74920980  1
  V  V11  1  0.75719753  0.37488421  0.12589966  1
  V  V12  1  0.50299748  0.74854256  0.25800206  1
  V  V13  1  -0.00079452  0.74945534  0.75025054  1
  V  V14  1  0.50306557  0.25534552  0.74731657  1
  V  V15  1  0.37551354  0.87267204  0.00174206  1
  V  V16  1  0.00264194  0.49970719  0.50286758  1
  V  V17  1  0.00018225  0.75314011  0.25762047  1
  V  V18  1  0.12987326  0.12264185  0.49841328  1
  V  V19  1  0.12528169  0.37574135  0.24907911  1
  V  V20  1  0.00001537  0.37621916  0.37370896  1
  V  V21  1  0.62530792  0.25541704  0.87110771  1
  V  V22  1  0.74895482  0.24673524  0.49314301  1
  V  V23  1  0.75287405  0.87370775  0.12956079  1
  V  V24  1  0.12816654  0.73819043  0.87988862  1
  V  V25  1  0.87115160  0.63343512  0.24848852  1
  V  V26  1  0.87373589  0.37590827  0.49941461  1
  V  V27  1  -0.00420755  0.24817618  0.24737659  1
  V  V28  1  0.24059839  0.62738652  0.37297442  1
  V  V29  1  0.37477859  0.50535779  0.37003670  1
  V  V30  1  0.50146748  0.00513547  0.00698865  1
  V  V31  1  0.50110777  0.24884835  0.24172343  1
  V  V32  1  0.75123171  0.74619433  0.00335754  1
  V  V33  1  0.49979672  0.62052850  0.63351196  1
  V  V34  1  0.25534096  0.00165027  0.25171349  1
  V  V35  1  0.12842355  0.37786346  0.73973642  1
  V  V36  1  0.62773723  0.87601092  0.75510718  1
  V  V37  1  0.74975631  0.87229830  0.62662442  1
  V  V38  1  0.12060381  0.63115326  0.49394404  1
  V  V39  1  0.25648511  0.12886036  0.37436707  1
  V  V40  1  0.24618691  0.73796617  -0.00256635  1
  V  V41  1  0.62700133  0.12693659  0.49113025  1
  V  V42  1  0.62876343  0.50126392  0.12418729  1
  V  V43  1  0.12459415  0.87232691  0.25636772  1
  V  V44  1  0.12094484  0.50592160  0.11961481  1
  V  V45  1  0.00234433  0.61942699  0.62557560  1
  V  V46  1  0.49485255  0.49745870  0.00021352  1
  V  V47  1  0.63075136  0.74136105  0.88019623  1
  V  V48  1  0.74961063  0.00016930  0.75153140  1
  V  V49  1  0.37450493  0.25591951  0.11674715  1
  V  V50  1  0.62981435  0.38104494  0.24913020  1
  V  V51  1  0.87558887  0.12514692  0.74998419  1
  V  V52  1  0.00527314  0.87601613  0.87447383  1
  V  V53  1  0.49456185  -0.00866205  0.47894309  1
  V  V54  1  0.25014152  0.50078940  0.72950729  1
  V  V55  1  0.50344127  0.87446984  0.87989813  1
  V  V56  1  0.87440601  0.24876186  0.62439518  1
  V  V57  1  0.88179396  0.01006078  0.37908841  1
  V  V58  1  0.13072198  0.25107806  0.37849394  1
  V  V59  1  0.37844296  0.12530722  0.24352462  1
  V  V60  1  0.87762715  0.87461715  0.00665091  1
  V  V61  1  -0.00364053  0.12816256  0.11866556  1
  V  V62  1  0.24764902  0.12130193  0.88027705  1
  V  V63  1  0.25333768  0.50389532  0.24757218  1
  V  V64  1  0.24887335  0.87474701  0.12498053  1
  V  V65  1  0.75243026  0.50182224  0.76379407  1
  V  V66  1  0.25023304  0.37695140  0.11114425  1
  V  V67  1  0.00186161  0.11783949  0.61870987  1
  V  V68  1  0.37533121  0.74148646  0.13167679  1
  V  V69  1  0.36872592  0.37178842  0.49862175  1
  V  V70  1  0.37003087  0.62344600  0.75825270  1
  V  V71  1  0.87982982  0.87645451  0.49970272  1
  V  V72  1  0.49308957  0.37403330  0.87708875  1
  V  V73  1  0.75702307  0.24967356  0.00295149  1
  V  V74  1  0.25313554  -0.00604254  0.74497415  1
  V  V75  1  0.74672951  0.37501646  0.63019349  1
  V  V76  1  0.87457023  0.61968900  0.76465265  1
  V  V77  1  0.74964519  0.12594162  0.87646071  1
  V  V78  1  0.13033834  -0.00680326  0.62219591  1
  V  V79  1  0.50144710  0.37515474  0.37261751  1
  V  V80  1  0.62409325  0.00639123  0.12594984  1
  V  V81  1  0.12649532  0.00716171  0.11867805  1
  V  V82  1  0.50164442  0.12179994  0.62268165  1
  V  V83  1  0.87670140  0.00033096  0.87554517  1
  V  V84  1  0.75249839  0.00871162  0.25552831  1
  Zn  Zn85  1  -0.00429027  0.38264407  0.86642311  1
  Zn  Zn86  1  0.49802913  0.62217473  0.12888298  1
  Zn  Zn87  1  0.62542411  -0.00068615  0.62130503  1
  Zn  Zn88  1  0.24699463  0.75682416  0.50376746  1
  Zn  Zn89  1  0.57692429  0.80669952  0.41412429  1
  Zn  Zn90  1  0.25000262  0.24776460  -0.00265598  1
  Zn  Zn91  1  0.62236868  0.63501990  0.50144538  1
  Zn  Zn92  1  0.24491978  0.37096428  0.61504190  1
  Zn  Zn93  1  0.62020431  0.13015368  0.00326289  1
  Zn  Zn94  1  0.13764190  0.86560275  0.73935202  1
  Zn  Zn95  1  0.61720538  0.87974747  0.25840631  1
  Zn  Zn96  1  0.35473538  0.77465980  0.62184566  1
  Zn  Zn97  1  0.62980458  0.24966528  0.36878165  1
  Zn  Zn98  1  0.73795916  0.75595840  0.49900333  1
  Zn  Zn99  1  0.37626826  0.00064241  0.87261206  1
  Zn  Zn100  1  0.00678156  0.00686413  -0.00456274  1
  Zn  Zn101  1  0.00482606  0.87624261  0.38281927  1
  Zn  Zn102  1  0.87217116  0.74643194  0.62302771  1
  Zn  Zn103  1  -0.00288900  0.52026460  -0.01173692  1
  Zn  Zn104  1  0.62965814  0.62202179  0.00059469  1
  Zn  Zn105  1  0.37574753  0.12459732  0.74895098  1
  Zn  Zn106  1  0.87135884  0.13192561  0.25156150  1
  Zn  Zn107  1  0.18664526  0.18954698  0.18611445  1
  Zn  Zn108  1  0.18950850  0.18122031  0.69032622  1
  Zn  Zn109  1  0.18489240  0.68959094  0.18695041  1
  Zn  Zn110  1  0.18856372  0.68743903  0.68367107  1
  Zn  Zn111  1  0.68785143  0.18939016  0.18455106  1
  Zn  Zn112  1  0.68558483  0.18662473  0.68544616  1
  Zn  Zn113  1  0.68685901  0.68805808  0.19040877  1
  Zn  Zn114  1  0.68587849  0.68426521  0.69184863  1
  Zn  Zn115  1  0.31427563  0.31608463  0.30636681  1
  Zn  Zn116  1  0.31111608  0.31191820  0.80804855  1
  Zn  Zn117  1  0.31364406  0.81189368  0.31458580  1
  Zn  Zn118  1  0.31367412  0.80978315  0.81544840  1
  Zn  Zn119  1  0.81332543  0.31620786  0.31176132  1
  Zn  Zn120  1  0.81319586  0.31457481  0.81379423  1
  Zn  Zn121  1  0.80682798  0.81749817  0.31806989  1
  Zn  Zn122  1  0.81528231  0.81076793  0.81666162  1
  Zn  Zn123  1  0.18638095  0.44262102  0.43693071  1
  Zn  Zn124  1  0.16346448  0.44424392  0.92504706  1
  Zn  Zn125  1  0.19142006  0.94438790  0.43453072  1
  Zn  Zn126  1  0.18973873  0.93345619  0.93503917  1
  Zn  Zn127  1  0.68787133  0.43913364  0.43906958  1
  Zn  Zn128  1  0.68381669  0.43220963  0.94150671  1
  Zn  Zn129  1  0.69124302  0.94526271  0.43693734  1
  Zn  Zn130  1  0.68896012  0.93696427  0.94171583  1
  Zn  Zn131  1  0.31486013  0.06343550  0.06338815  1
  Zn  Zn132  1  0.31601553  0.05992120  0.55826701  1
  Zn  Zn133  1  0.31195337  0.56037678  0.06101515  1
  Zn  Zn134  1  0.32226425  0.58848150  0.55316546  1
  Zn  Zn135  1  0.81445029  0.06153794  0.06385943  1
  Zn  Zn136  1  0.81111697  0.06068710  0.56212511  1
  Zn  Zn137  1  0.81539554  0.56132800  0.06576408  1
  Zn  Zn138  1  0.81424290  0.56519538  0.56271756  1
  Zn  Zn139  1  0.43778943  0.43433183  0.18493226  1
  Zn  Zn140  1  0.43367618  0.43497706  0.68965739  1
  Zn  Zn141  1  0.43869561  0.93132961  0.19004322  1
  Zn  Zn142  1  0.43564748  0.93794604  0.68441380  1
  Zn  Zn143  1  0.93767898  0.44204134  0.18601183  1
  Zn  Zn144  1  0.93312950  0.43771538  0.68713317  1
  Zn  Zn145  1  0.93924041  0.94238565  0.19084051  1
  Zn  Zn146  1  0.93789127  0.93690871  0.68716564  1
  Zn  Zn147  1  0.06413536  0.06183322  0.30863292  1
  Zn  Zn148  1  0.06711138  0.06055574  0.80700849  1
  Zn  Zn149  1  0.05901821  0.56193294  0.30881957  1
  Zn  Zn150  1  0.06649592  0.56014472  0.80846404  1
  Zn  Zn151  1  0.56475066  0.06594890  0.30893153  1
  Zn  Zn152  1  0.56293506  0.06508173  0.81439799  1
  Zn  Zn153  1  0.55887021  0.56636867  0.30838889  1
  Zn  Zn154  1  0.56474449  0.55700860  0.81498935  1
  Zn  Zn155  1  0.44111940  0.18772331  0.43369590  1
  Zn  Zn156  1  0.43388854  0.18490514  0.93390444  1
  Zn  Zn157  1  0.42900152  0.69027290  0.44206552  1
  Zn  Zn158  1  0.43800332  0.68237575  0.94112627  1
  Zn  Zn159  1  0.94155463  0.18951875  0.43839505  1
  Zn  Zn160  1  0.93770001  0.19181182  0.93739035  1
  Zn  Zn161  1  0.93063278  0.69188993  0.43729892  1
  Zn  Zn162  1  0.93615739  0.69486021  0.93960234  1
  Zn  Zn163  1  0.06443696  0.31275676  0.06420732  1
  Zn  Zn164  1  0.06124007  0.30840990  0.55962025  1
  Zn  Zn165  1  0.06390170  0.81245939  0.06649988  1
  Zn  Zn166  1  0.06146966  0.80778837  0.56216168  1
  Zn  Zn167  1  0.56552427  0.31494688  0.06011806  1
  Zn  Zn168  1  0.56233724  0.31243515  0.56102154  1
  Zn  Zn169  1  0.56597915  0.81381557  0.07134667  1
  Zn  Zn170  1  0.54387441  0.82069295  0.57650614  1
  O  O171  1  0.11665627  0.11613020  0.13044990  1
  O  O172  1  0.12109331  0.11948474  0.61639045  1
  O  O173  1  0.11177690  0.61759012  0.13454936  1
  O  O174  1  0.10865674  0.62648834  0.61545704  1
  O  O175  1  0.62833434  0.11167800  0.12142927  1
  O  O176  1  0.61615860  0.12703522  0.61435773  1
  O  O177  1  0.62577755  0.61090498  0.12589413  1
  O  O178  1  0.62031940  0.60910654  0.62592152  1
  O  O179  1  0.37987896  0.38280482  0.37996107  1
  O  O180  1  0.38409329  0.38088517  0.87165544  1
  O  O181  1  0.33871525  0.86964333  0.41192297  1
  O  O182  1  0.38636601  0.87378617  0.88616728  1
  O  O183  1  0.87942592  0.38356961  0.37945522  1
  O  O184  1  0.87772217  0.37460808  0.88784000  1
  O  O185  1  0.87481926  0.88471825  0.38567175  1
  O  O186  1  0.88582733  0.88078520  0.88198347  1
  O  O187  1  0.24693005  0.01565665  0.35964615  1
  O  O188  1  0.25047812  0.00507305  0.86653194  1
  O  O189  1  0.25525054  0.50283114  0.36441593  1
  O  O190  1  0.25858884  0.49186298  0.87409947  1
  O  O191  1  0.76421377  0.00177654  0.36379454  1
  O  O192  1  0.75593206  0.00538643  0.87189304  1
  O  O193  1  0.76196294  0.50929718  0.38306575  1
  O  O194  1  0.74235742  0.49278965  0.86168544  1
  O  O195  1  0.24493180  0.49590565  0.13076875  1
  O  O196  1  0.26043018  0.50024099  0.62926235  1
  O  O197  1  0.24496728  0.99642018  0.13170722  1
  O  O198  1  0.24252916  1.00692413  0.63167783  1
  O  O199  1  0.73866447  0.48862899  0.11720679  1
  O  O200  1  0.74438409  0.49144424  0.62566904  1
  O  O201  1  0.74430131  0.99412612  0.13043988  1
  O  O202  1  0.74842111  0.99125651  0.63341818  1
  O  O203  1  0.00492178  0.36925299  0.25314102  1
  O  O204  1  0.00607158  0.36615759  0.74495980  1
  O  O205  1  0.00744048  0.86869279  0.24850415  1
  O  O206  1  -0.00260647  0.86434581  0.75832604  1
  O  O207  1  0.50896805  0.36858551  0.25289921  1
  O  O208  1  0.49769222  0.36410508  0.75904608  1
  O  O209  1  0.49870017  0.85901707  0.25258397  1
  O  O210  1  0.50745291  0.87011012  0.76724671  1
  O  O211  1  0.49103717  0.13754036  0.25252915  1
  O  O212  1  0.50047712  0.13434171  0.74083695  1
  O  O213  1  0.49814295  0.63947712  0.24601467  1
  O  O214  1  0.49430648  0.62481147  0.75097322  1
  O  O215  1  1.00033657  0.13414773  0.24269431  1
  O  O216  1  0.99664571  0.13329037  0.74105430  1
  O  O217  1  0.99241191  0.63449737  0.24669893  1
  O  O218  1  0.99551069  0.62750025  0.74366806  1
  O  O219  1  0.37437437  0.24496406  0.01287162  1
  O  O220  1  0.38513945  0.26182182  0.50605761  1
  O  O221  1  0.36943205  0.75702088  0.00525350  1
  O  O222  1  0.35405828  0.70543950  0.52273654  1
  O  O223  1  0.86281400  0.26068435  -0.00481135  1
  O  O224  1  0.86897697  0.25443517  0.50487704  1
  O  O225  1  0.86476839  0.76617406  -0.00569627  1
  O  O226  1  0.86593254  0.76241021  0.50302505  1
  O  O227  1  0.12355659  0.24059081  0.48752153  1
  O  O228  1  0.12570126  0.25835046  0.98189966  1
  O  O229  1  0.12516567  0.73609430  0.49784336  1
  O  O230  1  0.13515027  0.75912566  0.99291637  1
  O  O231  1  0.63242472  0.24582935  0.49706286  1
  O  O232  1  0.63478607  0.24993791  0.99123346  1
  O  O233  1  0.61852468  0.75118702  0.50671980  1
  O  O234  1  0.63293281  0.75021516  0.99687245  1
  O  O235  1  0.49204693  0.26136836  0.13373528  1
  O  O236  1  0.49620554  0.24494648  0.63053344  1
  O  O237  1  0.49065933  0.74842749  0.13156380  1
  O  O238  1  0.51621809  0.72360688  0.64033748  1
  O  O239  1  1.01041299  0.23706297  0.13418854  1
  O  O240  1  0.99515940  0.24046615  0.63131680  1
  O  O241  1  1.00459586  0.74150646  0.13887560  1
  O  O242  1  0.99800751  0.74206047  0.63738430  1
  O  O243  1  0.01036196  0.25584525  0.36864359  1
  O  O244  1  0.00674576  0.25055515  0.86226120  1
  O  O245  1  -0.00275162  0.75368634  0.36280496  1
  O  O246  1  0.00705583  0.75756054  0.86951402  1
  O  O247  1  0.50160472  0.25860018  0.36067364  1
  O  O248  1  0.50398832  0.25454349  0.86894011  1
  O  O249  1  0.49285563  0.74344343  0.36542440  1
  O  O250  1  0.50786901  0.75694353  0.87617923  1
  O  O251  1  0.24426647  0.12188195  0.48578199  1
  O  O252  1  0.25358182  0.12356551  0.98550273  1
  O  O253  1  0.22967175  0.60937449  0.48768041  1
  O  O254  1  0.25269948  0.63900189  1.00143310  1
  O  O255  1  0.74041143  0.13709482  0.51050887  1
  O  O256  1  0.75284139  0.13431765  0.99465884  1
  O  O257  1  0.74783453  0.62780380  0.48988485  1
  O  O258  1  0.75318135  0.64186399  1.01086564  1
  O  O259  1  0.24071877  0.37708436  0.01053918  1
  O  O260  1  0.26326086  0.38202835  0.49832436  1
  O  O261  1  0.26117836  0.87034629  0.00502673  1
  O  O262  1  0.27392549  0.86838354  0.46532581  1
  O  O263  1  0.76006281  0.36973221  0.00501172  1
  O  O264  1  0.75404102  0.36764667  0.50961824  1
  O  O265  1  0.75823911  0.87167016  0.00966065  1
  O  O266  1  0.75652015  0.87820475  0.51388734  1
  O  O267  1  0.13098289  0.49364175  0.24214115  1
  O  O268  1  0.13864268  0.48963911  0.74928921  1
  O  O269  1  0.13578382  0.99533787  0.24017018  1
  O  O270  1  0.13500516  0.99585973  0.73866999  1
  O  O271  1  0.61633551  0.48825484  0.23927398  1
  O  O272  1  0.64024689  0.50300125  0.74169062  1
  O  O273  1  0.63385790  1.00146773  0.24337796  1
  O  O274  1  0.63268647  0.99389006  0.75344812  1
  O  O275  1  0.36514525  0.00991122  0.23816784  1
  O  O276  1  0.36859456  0.00166347  0.74937816  1
  O  O277  1  0.36594773  0.49203099  0.25823988  1
  O  O278  1  0.36570921  0.50148667  0.75973098  1
  O  O279  1  0.86987082  0.00401199  0.26160566  1
  O  O280  1  0.87039691  0.00608799  0.75594730  1
  O  O281  1  0.88206995  0.51079265  0.26303270  1
  O  O282  1  0.86254859  0.50512228  0.74850460  1
  O  O283  1  0.12085611  0.36907515  0.37110083  1
  O  O284  1  0.12806713  0.35909283  0.85392468  1
  O  O285  1  0.12214541  0.88830232  0.36081448  1
  O  O286  1  0.11362416  0.87031962  0.87052974  1
  O  O287  1  0.62166782  0.37696189  0.36472154  1
  O  O288  1  0.61392443  0.36206734  0.87770235  1
  O  O289  1  0.65461083  0.86822558  0.36452794  1
  O  O290  1  0.61918256  0.86673595  0.87624694  1
  O  O291  1  0.36730258  0.13820688  0.13645859  1
  O  O292  1  0.38689772  0.13441398  0.62078294  1
  O  O293  1  0.37458664  0.63768380  0.12116384  1
  O  O294  1  0.39102728  0.60967830  0.64597056  1
  O  O295  1  0.89252065  0.11902775  0.13009195  1
  O  O296  1  0.88309491  0.12782878  0.62872742  1
  O  O297  1  0.88359629  0.61656622  0.14119171  1
  O  O298  1  0.88581551  0.62714151  0.63334293  1
  O  O299  1  0.25403805  0.25986756  0.12222837  1
  O  O300  1  0.26630650  0.24650620  0.62997314  1
  O  O301  1  0.25471083  0.75535462  0.11894717  1
  O  O302  1  0.24192544  0.76460793  0.62247486  1
  O  O303  1  0.74342830  0.26162507  0.11301370  1
  O  O304  1  0.75437593  0.25801113  0.62049637  1
  O  O305  1  0.74283215  0.76493727  0.11924142  1
  O  O306  1  0.75051994  0.76228084  0.63074199  1
  O  O307  1  0.23893184  0.24344211  0.36237847  1
  O  O308  1  0.24472001  0.24035065  0.87238470  1
  O  O309  1  0.25463058  0.72801655  0.37290946  1
  O  O310  1  0.23962718  0.75790925  0.88490618  1
  O  O311  1  0.75101644  0.25675729  0.38941654  1
  O  O312  1  0.74306587  0.24775935  0.87959528  1
  O  O313  1  0.75252236  0.73354715  0.37833610  1
  O  O314  1  0.74032186  0.75892212  0.88812434  1
  O  O315  1  -0.00206232  0.12784719  0.01352795  1
  O  O316  1  0.01233808  0.13026899  0.51044950  1
  O  O317  1  -0.01195322  0.63164604  0.01837806  1
  O  O318  1  0.00087658  0.61971148  0.50440858  1
  O  O319  1  0.49878289  0.10852101  -0.00574045  1
  O  O320  1  0.50861481  0.12198415  0.50429006  1
  O  O321  1  0.50471302  0.61041395  0.00361880  1
  O  O322  1  0.49935950  0.61084496  0.51192286  1
  O  O323  1  0.49410582  0.38365229  0.49410342  1
  O  O324  1  0.50343495  0.38487433  0.98953200  1
  O  O325  1  0.51756878  0.89076718  0.48435999  1
  O  O326  1  0.49473985  0.87883668  0.99653664  1
  O  O327  1  0.99430499  0.38018557  0.49523906  1
  O  O328  1  0.98262126  0.36875396  1.00500361  1
  O  O329  1  0.98582444  0.87064300  0.50157247  1
  O  O330  1  0.99351691  0.87442549  0.99200716  1
  O  O331  1  0.49370829  0.49708548  0.38093683  1
  O  O332  1  0.49452844  0.48987030  0.87986340  1
  O  O333  1  0.49725431  1.00817827  0.38029864  1
  O  O334  1  0.50194136  0.98870458  0.88507860  1
  O  O335  1  0.99101705  0.49494404  0.38193679  1
  O  O336  1  1.03678640  0.48608892  0.88851495  1
  O  O337  1  0.98609485  0.99657241  0.36735160  1
  O  O338  1  0.99792722  0.99298472  0.87373458  1
  O  O339  1  0.00921830  0.01288605  0.12586627  1
  O  O340  1  0.01033643  0.01258926  0.63394169  1
  O  O341  1  0.00711464  0.51131554  0.12524306  1
  O  O342  1  -0.00917121  0.50735299  0.61432118  1
  O  O343  1  0.51077935  -0.01041321  0.11739084  1
  O  O344  1  0.50521887  0.01395266  0.62254502  1
  O  O345  1  0.50681871  0.49640991  0.11620197  1
  O  O346  1  0.50856025  0.49957255  0.62301974  1
  O  O347  1  0.24350079  0.38574176  0.24197041  1
  O  O348  1  0.24546412  0.38221310  0.74080955  1
  O  O349  1  0.24579101  0.88307718  0.24608553  1
  O  O350  1  0.25315075  0.88785635  0.75520577  1
  O  O351  1  0.74002057  0.36773370  0.24025895  1
  O  O352  1  0.75911566  0.38702820  0.73883758  1
  O  O353  1  0.75896360  0.88810500  0.23840500  1
  O  O354  1  0.74908719  0.87997365  0.74666835  1
  O  O355  1  0.25666234  0.12056074  0.25381949  1
  O  O356  1  0.25296950  0.11237000  0.75831441  1
  O  O357  1  0.24060985  0.61030171  0.25540208  1
  O  O358  1  0.26049736  0.61571879  0.74363608  1
  O  O359  1  0.75469130  0.11511103  0.24127213  1
  O  O360  1  0.75597015  0.12168481  0.75496325  1
  O  O361  1  0.75792703  0.62975052  0.26288203  1
  O  O362  1  0.75955545  0.61096024  0.74715772  1
  O  O363  1  0.36485550  0.13787241  0.35984703  1
  O  O364  1  0.36516161  0.12032826  0.86932100  1
  O  O365  1  0.36316604  0.60770645  0.38104319  1
  O  O366  1  0.38073677  0.61140861  0.86581963  1
  O  O367  1  0.88071604  0.11410618  0.37705646  1
  O  O368  1  0.87115051  0.12140156  0.86932389  1
  O  O369  1  0.86686164  0.61929747  0.36932087  1
  O  O370  1  0.88554988  0.62394512  0.86401958  1
  O  O371  1  0.13083448  0.38284705  0.13076875  1
  O  O372  1  0.12769740  0.36428915  0.63398451  1
  O  O373  1  0.13035774  0.88437420  0.13553375  1
  O  O374  1  0.11737829  0.88923557  0.62145242  1
  O  O375  1  0.63318365  0.38221194  0.13016974  1
  O  O376  1  0.63498106  0.38237677  0.62166575  1
  O  O377  1  0.63647548  0.88727030  0.13035981  1
  O  O378  1  0.63352689  0.87789357  0.63748410  1
  O  O379  1  0.11663169  0.25560367  0.25844979  1
  O  O380  1  0.11744922  0.25305501  0.75151063  1
  O  O381  1  0.11875528  0.76362658  0.24751975  1
  O  O382  1  0.11487470  0.75008660  0.75789544  1
  O  O383  1  0.61779457  0.25915930  0.24736440  1
  O  O384  1  0.61576364  0.24545586  0.75892446  1
  O  O385  1  0.60719329  0.75257691  0.24455577  1
  O  O386  1  0.62139048  0.75498643  0.76276967  1
  O  O387  1  0.38216830  0.24683009  0.23932418  1
  O  O388  1  0.38663404  0.24879994  0.73926937  1
  O  O389  1  0.38208607  0.75721916  0.23974860  1
  O  O390  1  0.38121464  0.73767892  0.75422189  1
  O  O391  1  0.89061090  0.25065561  0.25784310  1
  O  O392  1  0.88322627  0.24597628  0.74529194  1
  O  O393  1  0.88165960  0.74129828  0.25558823  1
  O  O394  1  0.88532115  0.74057478  0.75282780  1
  O  O395  1  0.38556609  0.49287888  0.49303644  1
  O  O396  1  0.38395557  0.50342296  0.99099842  1
  O  O397  1  0.39702664  1.00145306  0.50458925  1
  O  O398  1  0.38342256  0.98718716  1.00359935  1
  O  O399  1  0.88351539  0.49566832  0.49197946  1
  O  O400  1  0.87863891  0.48836105  1.00045926  1
  O  O401  1  0.86895672  0.99426439  0.48704649  1
  O  O402  1  0.87929406  0.99168191  0.99255751  1
  O  O403  1  0.12493498  -0.00909283  0.01392995  1
  O  O404  1  0.13181394  0.01203871  0.50679437  1
  O  O405  1  0.12560253  0.49972030  0.01835589  1
  O  O406  1  0.10723436  0.50494253  0.49513917  1
  O  O407  1  0.61826453  0.00024139  0.00820390  1
  O  O408  1  0.61765201  0.01217024  0.49993487  1
  O  O409  1  0.61684503  0.49977643  0.00711416  1
  O  O410  1  0.61399474  0.49872745  0.50888225  1
  O  O411  1  0.36220955  0.36707437  0.12949954  1
  O  O412  1  0.37631600  0.36704392  0.61474587  1
  O  O413  1  0.36951031  0.86576586  0.11677677  1
  O  O414  1  0.43614629  0.84841149  0.62198745  1
  O  O415  1  0.86393615  0.38186464  0.11766541  1
  O  O416  1  0.86693984  0.36875576  0.61854731  1
  O  O417  1  0.86915977  0.88602280  0.11461212  1
  O  O418  1  0.86708390  0.87614133  0.61914579  1
  O  O419  1  0.13182994  0.13139838  0.37947202  1
  O  O420  1  0.13375322  0.13410410  0.86569130  1
  O  O421  1  0.12829048  0.61736681  0.38094615  1
  O  O422  1  0.12015173  0.63964543  0.87402525  1
  O  O423  1  0.62326163  0.13123605  0.38619627  1
  O  O424  1  0.63105225  0.13654848  0.87902859  1
  O  O425  1  0.63950582  0.61462574  0.37611869  1
  O  O426  1  0.62154927  0.63759875  0.87826161  1
