# generated using pymatgen
data_V85Zn86O256
_symmetry_space_group_name_H-M   'P 1'
_cell_length_a   16.98292864
_cell_length_b   16.98166410
_cell_length_c   16.96139662
_cell_angle_alpha   90.04118493
_cell_angle_beta   89.87673665
_cell_angle_gamma   90.11128733
_symmetry_Int_Tables_number   1
_chemical_formula_structural   V85Zn86O256
_chemical_formula_sum   'V85 Zn86 O256'
_cell_volume   4891.61767736
_cell_formula_units_Z   1
loop_
 _symmetry_equiv_pos_site_id
 _symmetry_equiv_pos_as_xyz
  1  'x, y, z'
loop_
 _atom_site_type_symbol
 _atom_site_label
 _atom_site_symmetry_multiplicity
 _atom_site_fract_x
 _atom_site_fract_y
 _atom_site_fract_z
 _atom_site_occupancy
  V  V0  1  0.37564793  0.13130003  0.23760017  1
  V  V1  1  0.00018808  0.37946876  0.87769724  1
  V  V2  1  0.12501438  0.62565200  0.50462474  1
  V  V3  1  0.75099605  0.87489205  0.62688489  1
  V  V4  1  0.12385092  0.37367655  0.75114135  1
  V  V5  1  0.25076996  0.37236749  0.62634728  1
  V  V6  1  0.74273547  0.37500914  0.62986329  1
  V  V7  1  0.23927810  0.12016993  0.88050813  1
  V  V8  1  0.50820442  0.25592532  0.24436862  1
  V  V9  1  0.62986806  0.24312145  0.87436440  1
  V  V10  1  0.75127786  0.75004963  -0.00318885  1
  V  V11  1  0.87709963  0.87598455  -0.00270613  1
  V  V12  1  0.87794406  0.74957371  0.12291464  1
  V  V13  1  0.49944317  0.87669805  0.37554443  1
  V  V14  1  0.38391778  0.50215644  0.38081499  1
  V  V15  1  0.62671068  0.12406494  0.49664438  1
  V  V16  1  0.24118301  -0.00567635  0.75199926  1
  V  V17  1  0.74060746  0.49742414  0.75170155  1
  V  V18  1  0.12208659  0.50132318  0.62629974  1
  V  V19  1  0.12048407  0.00199595  0.61891691  1
  V  V20  1  0.12190547  0.74617124  0.87586260  1
  V  V21  1  0.25665528  0.36937653  0.12514529  1
  V  V22  1  0.75394032  0.12458080  0.37097929  1
  V  V23  1  0.11771487  0.50618125  0.11610412  1
  V  V24  1  0.87723873  0.00111831  0.37691079  1
  V  V25  1  0.49563536  0.74968009  0.23996863  1
  V  V26  1  0.87564596  0.50452625  0.37469139  1
  V  V27  1  0.61675670  0.62480986  0.00155942  1
  V  V28  1  0.24980529  0.00653394  0.25515125  1
  V  V29  1  0.24409410  0.86710098  0.62567464  1
  V  V30  1  0.00038774  0.24591424  0.74870358  1
  V  V31  1  0.00476147  0.00422170  -0.00385907  1
  V  V32  1  -0.00495210  0.24663659  0.25012881  1
  V  V33  1  0.61754852  0.75350762  0.86896788  1
  V  V34  1  0.00205352  0.75035801  0.24915248  1
  V  V35  1  0.12672592  0.00460568  0.12049226  1
  V  V36  1  0.49849099  0.62057065  0.62036223  1
  V  V37  1  0.62492834  0.87729274  0.24602426  1
  V  V38  1  0.25447276  0.87098713  0.12440804  1
  V  V39  1  0.62856458  0.75335714  0.38312497  1
  V  V40  1  0.25131468  0.50086737  0.25205930  1
  V  V41  1  0.75339539  0.23994714  -0.00792106  1
  V  V42  1  0.38123438  0.86998017  -0.00361840  1
  V  V43  1  0.75226300  0.00142332  0.24770386  1
  V  V44  1  0.87271895  0.50283733  0.87034611  1
  V  V45  1  0.86696859  0.00357941  0.86969011  1
  V  V46  1  0.87060407  0.87274630  0.50143958  1
  V  V47  1  0.63106120  -0.00003638  0.62927489  1
  V  V48  1  0.37698979  0.63102701  0.24095032  1
  V  V49  1  0.87626871  0.25033772  0.12253927  1
  V  V50  1  0.12723651  0.75108286  0.38029673  1
  V  V51  1  0.74914556  0.87558504  0.12355667  1
  V  V52  1  0.61992885  0.87518180  0.74933459  1
  V  V53  1  0.75500796  0.63428040  0.38478798  1
  V  V54  1  0.87297148  0.73717819  0.62773703  1
  V  V55  1  0.87548669  0.24993843  0.62535894  1
  V  V56  1  0.49992652  0.12548555  0.62542622  1
  V  V57  1  0.37490731  0.62723355  0.75195025  1
  V  V58  1  0.75381806  0.62586868  0.86583151  1
  V  V59  1  0.50622835  0.25522406  0.75049076  1
  V  V60  1  0.24838510  0.50044383  0.75296318  1
  V  V61  1  0.00095855  0.87948130  0.38305047  1
  V  V62  1  0.00399511  0.87609559  0.86233953  1
  V  V63  1  0.24296499  0.74617062  0.00078611  1
  V  V64  1  0.38650934  0.38109036  0.50340518  1
  V  V65  1  0.37074488  0.86837730  0.50029859  1
  V  V66  1  0.87920087  0.62765504  0.24657041  1
  V  V67  1  0.49921658  0.00048162  0.50106349  1
  V  V68  1  0.12618857  0.87586378  0.25144016  1
  V  V69  1  0.86034983  0.12223561  0.75316437  1
  V  V70  1  0.37478644  0.24881410  0.62609296  1
  V  V71  1  0.25052696  0.63074210  0.38144255  1
  V  V72  1  0.75155231  0.24980162  0.49928096  1
  V  V73  1  0.37602234  0.49587610  0.87871783  1
  V  V74  1  0.00242404  0.50326806  0.50606147  1
  V  V75  1  0.12277503  0.37600726  0.24886499  1
  V  V76  1  0.00050921  0.73458242  0.74487382  1
  V  V77  1  0.62222115  0.61977142  0.50129694  1
  V  V78  1  0.50780317  0.37535697  0.87566399  1
  V  V79  1  0.87700019  0.37984367  -0.00146883  1
  V  V80  1  -0.00101670  0.12517099  0.12425930  1
  V  V81  1  -0.00143967  0.37460402  0.37537170  1
  V  V82  1  0.24958461  0.24430565  0.00249566  1
  V  V83  1  0.38348128  -0.00299670  0.87404397  1
  V  V84  1  0.37252923  0.01056201  0.37724403  1
  Zn  Zn85  1  0.50878021  -0.00148356  0.00849157  1
  Zn  Zn86  1  0.63177515  0.26449499  0.36773076  1
  Zn  Zn87  1  -0.00517016  0.11350376  0.61673322  1
  Zn  Zn88  1  0.61724723  0.49356807  0.62574531  1
  Zn  Zn89  1  0.49494874  0.75378154  0.74884984  1
  Zn  Zn90  1  0.25285987  0.23748358  0.48837722  1
  Zn  Zn91  1  0.51488224  0.11954623  0.12259833  1
  Zn  Zn92  1  0.12353511  0.12450978  0.48856372  1
  Zn  Zn93  1  0.37800235  0.36641072  0.00591755  1
  Zn  Zn94  1  0.37117208  0.74657300  0.62059009  1
  Zn  Zn95  1  0.01941913  0.63797227  0.08852519  1
  Zn  Zn96  1  0.12195365  0.24444777  0.88039725  1
  Zn  Zn97  1  0.74151506  0.49309710  0.25085841  1
  Zn  Zn98  1  0.13662574  0.23947280  0.37324358  1
  Zn  Zn99  1  0.62998478  0.11375051  1.00077094  1
  Zn  Zn100  1  0.62034232  0.49347969  0.13512859  1
  Zn  Zn101  1  0.49458548  0.50252441  0.01215134  1
  Zn  Zn102  1  0.37482165  0.12380813  0.75287176  1
  Zn  Zn103  1  0.87574450  0.37737595  0.50301791  1
  Zn  Zn104  1  0.74089588  0.37308733  0.13321669  1
  Zn  Zn105  1  0.24559239  0.62161023  0.88231613  1
  Zn  Zn106  1  0.50920941  0.37946575  0.37285733  1
  Zn  Zn107  1  0.18557762  0.18760148  0.18883166  1
  Zn  Zn108  1  0.18943772  0.18216529  0.69061335  1
  Zn  Zn109  1  0.18953524  0.68744659  0.19076425  1
  Zn  Zn110  1  0.18447498  0.68692801  0.69238211  1
  Zn  Zn111  1  0.68894606  0.18670449  0.18211643  1
  Zn  Zn112  1  0.68526532  0.18858532  0.68700928  1
  Zn  Zn113  1  0.67161615  0.66195033  0.20555124  1
  Zn  Zn114  1  0.68853405  0.68820740  0.68491878  1
  Zn  Zn115  1  0.32091228  0.31403419  0.31326030  1
  Zn  Zn116  1  0.31312403  0.30815835  0.81568076  1
  Zn  Zn117  1  0.31366314  0.81485016  0.31359932  1
  Zn  Zn118  1  0.30825599  0.81295345  0.81375207  1
  Zn  Zn119  1  0.81216012  0.31500756  0.31016076  1
  Zn  Zn120  1  0.81158376  0.31471520  0.81098477  1
  Zn  Zn121  1  0.81352787  0.81265481  0.31061969  1
  Zn  Zn122  1  0.81346036  0.81485537  0.80815379  1
  Zn  Zn123  1  0.20536064  0.40834657  0.42395567  1
  Zn  Zn124  1  0.18919615  0.43186790  0.93947276  1
  Zn  Zn125  1  0.18974439  0.93949953  0.44067536  1
  Zn  Zn126  1  0.18726578  0.93085852  0.93583567  1
  Zn  Zn127  1  0.69080785  0.43832203  0.43977311  1
  Zn  Zn128  1  0.67098135  0.41793599  0.97466583  1
  Zn  Zn129  1  0.68981715  0.93718243  0.43966585  1
  Zn  Zn130  1  0.68774307  0.93503091  0.93340286  1
  Zn  Zn131  1  0.31560882  0.05966689  0.05923431  1
  Zn  Zn132  1  0.30689851  0.06157447  0.56226638  1
  Zn  Zn133  1  0.30815925  0.55931567  0.06344288  1
  Zn  Zn134  1  0.31027000  0.56025360  0.56467117  1
  Zn  Zn135  1  0.81605573  0.06083714  0.06171170  1
  Zn  Zn136  1  0.81509009  0.06204748  0.56015159  1
  Zn  Zn137  1  0.80794838  0.56245841  0.06092131  1
  Zn  Zn138  1  0.80921448  0.55960277  0.56231906  1
  Zn  Zn139  1  0.44084800  0.44164272  0.18850095  1
  Zn  Zn140  1  0.43846557  0.43845294  0.69258356  1
  Zn  Zn141  1  0.43729318  0.93831111  0.18686825  1
  Zn  Zn142  1  0.43465104  0.93737811  0.68617807  1
  Zn  Zn143  1  0.93501200  0.43899804  0.18615527  1
  Zn  Zn144  1  0.93360494  0.43684575  0.69123288  1
  Zn  Zn145  1  0.93729798  0.93689502  0.18975662  1
  Zn  Zn146  1  0.93441948  0.93588966  0.68869622  1
  Zn  Zn147  1  0.06088322  0.06432281  0.31188588  1
  Zn  Zn148  1  0.05887707  0.06109570  0.80491471  1
  Zn  Zn149  1  0.06353958  0.56278183  0.31374996  1
  Zn  Zn150  1  0.06071385  0.56315899  0.81999356  1
  Zn  Zn151  1  0.56285802  0.06483043  0.30957363  1
  Zn  Zn152  1  0.56523177  0.06416416  0.81174950  1
  Zn  Zn153  1  0.56131417  0.56771548  0.31198653  1
  Zn  Zn154  1  0.56162652  0.56433362  0.81435885  1
  Zn  Zn155  1  0.44156961  0.19261978  0.43581475  1
  Zn  Zn156  1  0.43547727  0.18369652  0.94158247  1
  Zn  Zn157  1  0.44175273  0.68802871  0.43263151  1
  Zn  Zn158  1  0.43403905  0.68959770  0.93657439  1
  Zn  Zn159  1  0.94234055  0.18381186  0.44048172  1
  Zn  Zn160  1  0.93847535  0.18558510  0.93560859  1
  Zn  Zn161  1  0.94284107  0.69152499  0.44196408  1
  Zn  Zn162  1  0.93674524  0.68701474  0.93410662  1
  Zn  Zn163  1  0.06719745  0.31340647  0.06074385  1
  Zn  Zn164  1  0.06413527  0.30979332  0.55946230  1
  Zn  Zn165  1  0.06376160  0.81831429  0.06037296  1
  Zn  Zn166  1  0.06069666  0.81169234  0.56474272  1
  Zn  Zn167  1  0.55994192  0.30544073  0.06172661  1
  Zn  Zn168  1  0.56574106  0.30908058  0.55815310  1
  Zn  Zn169  1  0.56630969  0.81112599  0.05970854  1
  Zn  Zn170  1  0.55729129  0.80992160  0.56521320  1
  O  O171  1  0.11590760  0.11257445  0.12976059  1
  O  O172  1  0.12462829  0.10706524  0.63108316  1
  O  O173  1  0.12538138  0.61152867  0.13335402  1
  O  O174  1  0.13435012  0.61650266  0.61449844  1
  O  O175  1  0.63001512  0.12162169  0.11636827  1
  O  O176  1  0.62163355  0.11705992  0.61912103  1
  O  O177  1  0.63377552  0.64164831  0.09919100  1
  O  O178  1  0.61748147  0.62825649  0.61607949  1
  O  O179  1  0.38096653  0.38625127  0.38622425  1
  O  O180  1  0.38150020  0.38495821  0.87258777  1
  O  O181  1  0.37880568  0.88598963  0.38135836  1
  O  O182  1  0.36744814  0.88565993  0.88490674  1
  O  O183  1  0.88443016  0.38702018  0.37492620  1
  O  O184  1  0.88198543  0.38028557  0.87941035  1
  O  O185  1  0.88070639  0.87739510  0.38299320  1
  O  O186  1  0.88450530  0.88220944  0.87730385  1
  O  O187  1  0.25854299  -0.00767540  0.36294211  1
  O  O188  1  0.25145722  0.00141197  0.86953676  1
  O  O189  1  0.25649775  0.50361491  0.36619017  1
  O  O190  1  0.25719703  0.49954834  0.87114464  1
  O  O191  1  0.75763988  0.00385217  0.36877719  1
  O  O192  1  0.76909725  -0.00637173  0.87616180  1
  O  O193  1  0.76404382  0.51245531  0.37652300  1
  O  O194  1  0.75484201  0.50757435  0.86650420  1
  O  O195  1  0.24112327  0.49362341  0.13668478  1
  O  O196  1  0.24420730  0.49105251  0.63436171  1
  O  O197  1  0.24332517  0.99370244  0.13126010  1
  O  O198  1  0.24266045  0.99089757  0.63440944  1
  O  O199  1  0.74644506  0.49592679  0.12810860  1
  O  O200  1  0.75086527  0.49176750  0.63383061  1
  O  O201  1  0.76337681  0.98619518  0.13409113  1
  O  O202  1  0.73832841  0.99227942  0.61746141  1
  O  O203  1  0.00520015  0.36918135  0.25429165  1
  O  O204  1  0.00259845  0.36561143  0.75776873  1
  O  O205  1  0.00674592  0.86962986  0.25769094  1
  O  O206  1  -0.00325179  0.86976957  0.76025007  1
  O  O207  1  0.48991168  0.35816563  0.25160984  1
  O  O208  1  0.49667324  0.36488763  0.75985036  1
  O  O209  1  0.50669895  0.87121471  0.25581361  1
  O  O210  1  0.51451189  0.87202040  0.73906854  1
  O  O211  1  0.48720046  0.13019157  0.24957199  1
  O  O212  1  0.49685266  0.13516801  0.74325248  1
  O  O213  1  0.48689734  0.63926283  0.25933669  1
  O  O214  1  0.48870557  0.62601257  0.74361827  1
  O  O215  1  1.00242447  0.13687045  0.23819517  1
  O  O216  1  0.99453343  0.13623358  0.74197555  1
  O  O217  1  0.98980032  0.63448902  0.25891260  1
  O  O218  1  0.99639492  0.63595236  0.75290116  1
  O  O219  1  0.35674991  0.25047794  -0.00712647  1
  O  O220  1  0.37507628  0.25988592  0.51157894  1
  O  O221  1  0.36363300  0.76508216  -0.01096635  1
  O  O222  1  0.37896028  0.76480516  0.49639349  1
  O  O223  1  0.87393424  0.25520079  0.00377029  1
  O  O224  1  0.87033502  0.24948184  0.51180286  1
  O  O225  1  0.87047801  0.75741214  0.00196758  1
  O  O226  1  0.88675619  0.76151566  0.51691201  1
  O  O227  1  0.13122886  0.25043724  0.49453932  1
  O  O228  1  0.14033387  0.25434597  0.99639131  1
  O  O229  1  0.11548480  0.73621947  0.49491782  1
  O  O230  1  0.13190211  0.75506768  0.99207403  1
  O  O231  1  0.63473757  0.23962527  0.49771728  1
  O  O232  1  0.63852199  0.24652612  0.98965357  1
  O  O233  1  0.62019135  0.74593686  0.48812083  1
  O  O234  1  0.63149449  0.74935623  0.98583313  1
  O  O235  1  0.50046408  0.24492977  0.14014718  1
  O  O236  1  0.49462587  0.24708960  0.63128362  1
  O  O237  1  0.50500748  0.75736194  0.14106022  1
  O  O238  1  0.49321521  0.73672475  0.62831378  1
  O  O239  1  0.99804013  0.24380330  0.12818246  1
  O  O240  1  0.98811859  0.25806411  0.63482900  1
  O  O241  1  0.99781573  0.74960448  0.12953017  1
  O  O242  1  0.99137223  0.75465079  0.63805157  1
  O  O243  1  -0.00820643  0.26134766  0.36463534  1
  O  O244  1  0.00057456  0.25691797  0.86420921  1
  O  O245  1  0.00634609  0.76175377  0.37022906  1
  O  O246  1  0.00116824  0.75683327  0.86260402  1
  O  O247  1  0.50520794  0.25121816  0.36243485  1
  O  O248  1  0.50489443  0.25597011  0.86772070  1
  O  O249  1  0.50962112  0.75908709  0.36797969  1
  O  O250  1  0.51395339  0.74750459  0.87023687  1
  O  O251  1  0.24124693  0.12691509  0.50363846  1
  O  O252  1  0.25231333  0.12827183  0.99151399  1
  O  O253  1  0.24013865  0.61662284  0.48917316  1
  O  O254  1  0.25846050  0.64237337  1.00103103  1
  O  O255  1  0.74672989  0.12880328  0.49174534  1
  O  O256  1  0.75900143  0.13729244  0.99848570  1
  O  O257  1  0.74406945  0.62700653  0.49070439  1
  O  O258  1  0.74330446  0.63279812  0.98577128  1
  O  O259  1  0.25380037  0.36663453  0.00961050  1
  O  O260  1  0.26270213  0.37992057  0.52047497  1
  O  O261  1  0.25532926  0.86740829  0.00716476  1
  O  O262  1  0.25968057  0.88124245  0.51356049  1
  O  O263  1  0.76839833  0.35893872  -0.00197710  1
  O  O264  1  0.75703325  0.36892331  0.50935946  1
  O  O265  1  0.75651275  0.87131729  0.00601873  1
  O  O266  1  0.75969076  0.87375013  0.50970034  1
  O  O267  1  0.13344748  0.49388048  0.24686100  1
  O  O268  1  0.12776997  0.49499883  0.74661599  1
  O  O269  1  0.13268134  0.99542390  0.24171773  1
  O  O270  1  0.13586598  0.99659864  0.74320015  1
  O  O271  1  0.64018690  0.54926709  0.23649210  1
  O  O272  1  0.63587161  0.50284899  0.74792160  1
  O  O273  1  0.63632545  0.98513850  0.25818508  1
  O  O274  1  0.61981915  0.99309915  0.73680863  1
  O  O275  1  0.36812558  0.00971906  0.25745665  1
  O  O276  1  0.36574633  -0.00372525  0.76163607  1
  O  O277  1  0.36629239  0.50786277  0.25976628  1
  O  O278  1  0.36883266  0.50730192  0.75885327  1
  O  O279  1  0.86269285  -0.01055858  0.26292790  1
  O  O280  1  0.88298654  0.01149969  0.75695767  1
  O  O281  1  0.88189480  0.51135083  0.26182007  1
  O  O282  1  0.86264912  0.49418711  0.76222702  1
  O  O283  1  0.10869088  0.38508306  0.36219455  1
  O  O284  1  0.11566343  0.37505482  0.86867258  1
  O  O285  1  0.11948791  0.87325680  0.37292721  1
  O  O286  1  0.11327454  0.86235850  0.87808503  1
  O  O287  1  0.62158773  0.37723349  0.38028058  1
  O  O288  1  0.61361047  0.36567216  0.88334582  1
  O  O289  1  0.62234071  0.86999540  0.36890147  1
  O  O290  1  0.63572663  0.86466024  0.85856378  1
  O  O291  1  0.37376365  0.12364468  0.13756264  1
  O  O292  1  0.38094953  0.13465138  0.62504200  1
  O  O293  1  0.36501678  0.62104193  0.14277814  1
  O  O294  1  0.37858733  0.62505167  0.63222073  1
  O  O295  1  0.88878494  0.13620600  0.11931515  1
  O  O296  1  0.87444501  0.13297290  0.63259295  1
  O  O297  1  0.87464848  0.63204889  0.13461755  1
  O  O298  1  0.87125225  0.63899556  0.61975167  1
  O  O299  1  0.24207921  0.25980360  0.11967589  1
  O  O300  1  0.26118430  0.25892165  0.63430218  1
  O  O301  1  0.23978436  0.76355274  0.11859079  1
  O  O302  1  0.24946951  0.76377670  0.63073155  1
  O  O303  1  0.76500178  0.25059750  0.11621244  1
  O  O304  1  0.75669535  0.25586592  0.62191418  1
  O  O305  1  0.75967029  0.76321047  0.11803904  1
  O  O306  1  0.76647937  0.75788780  0.62977943  1
  O  O307  1  0.23877220  0.29527253  0.38689241  1
  O  O308  1  0.24650335  0.23748798  0.87865445  1
  O  O309  1  0.24374377  0.73916819  0.37058140  1
  O  O310  1  0.23761626  0.75197487  0.88237323  1
  O  O311  1  0.75469929  0.23919311  0.37874322  1
  O  O312  1  0.74151769  0.25638115  0.87967927  1
  O  O313  1  0.74162400  0.74540861  0.37169568  1
  O  O314  1  0.74708716  0.74422942  0.87559563  1
  O  O315  1  0.00005626  0.11276412  0.00735714  1
  O  O316  1  0.00826080  0.12563952  0.50630892  1
  O  O317  1  -0.00389910  0.61284080  -0.01376911  1
  O  O318  1  0.01160479  0.61307652  0.49359091  1
  O  O319  1  0.50322384  0.12143789  0.00317468  1
  O  O320  1  0.50624296  0.12077850  0.50534822  1
  O  O321  1  0.51322837  0.62983552  -0.00729001  1
  O  O322  1  0.50870887  0.62921370  0.50721410  1
  O  O323  1  0.48839326  0.37499747  0.50494354  1
  O  O324  1  0.49267176  0.37342998  0.98768360  1
  O  O325  1  0.49227500  0.88173031  0.49627906  1
  O  O326  1  0.48284390  0.87114566  1.00422810  1
  O  O327  1  0.99855039  0.38363643  0.49035869  1
  O  O328  1  0.99204873  0.36629610  0.98658050  1
  O  O329  1  0.99339056  0.87381370  0.48851941  1
  O  O330  1  0.99491810  0.88523543  0.99205928  1
  O  O331  1  0.48674520  0.50236690  0.36773135  1
  O  O332  1  0.49227389  0.49143249  0.87503526  1
  O  O333  1  0.49238783  0.99595780  0.37994268  1
  O  O334  1  0.48322812  1.00211428  0.86924255  1
  O  O335  1  0.99334502  0.49503315  0.38267271  1
  O  O336  1  0.98864534  0.48670677  0.86469378  1
  O  O337  1  0.98896350  0.98838964  0.36295999  1
  O  O338  1  0.99901125  0.99356484  0.88031674  1
  O  O339  1  0.00490648  0.00533415  0.11939495  1
  O  O340  1  0.01791555  -0.00790480  0.63353624  1
  O  O341  1  0.01671880  0.49843627  0.13012290  1
  O  O342  1  0.00422745  0.48963249  0.61448528  1
  O  O343  1  0.49349835  0.00504470  0.12152197  1
  O  O344  1  0.50697272  0.00566461  0.62003346  1
  O  O345  1  0.50692091  0.50137230  0.12401744  1
  O  O346  1  0.50096266  0.51420943  0.63198066  1
  O  O347  1  0.24280410  0.38272852  0.24477925  1
  O  O348  1  0.24561872  0.37914132  0.74431051  1
  O  O349  1  0.24778302  0.88406111  0.24246288  1
  O  O350  1  0.25628220  0.88191666  0.73592872  1
  O  O351  1  0.74992875  0.37951738  0.24692572  1
  O  O352  1  0.75121533  0.38234370  0.74015244  1
  O  O353  1  0.74357179  0.87942067  0.24351611  1
  O  O354  1  0.74088818  0.87355828  0.73454458  1
  O  O355  1  0.26061218  0.11602555  0.24510791  1
  O  O356  1  0.25484263  0.11264067  0.75970707  1
  O  O357  1  0.25521742  0.61866768  0.26173080  1
  O  O358  1  0.25893924  0.61859530  0.75226171  1
  O  O359  1  0.74614379  0.11270398  0.25921318  1
  O  O360  1  0.76121624  0.12977644  0.74875391  1
  O  O361  1  0.77073030  0.63212313  0.26589713  1
  O  O362  1  0.74547915  0.61719760  0.75827012  1
  O  O363  1  0.37821896  0.11336843  0.37144048  1
  O  O364  1  0.36344213  0.10792960  0.87556197  1
  O  O365  1  0.36603527  0.61945671  0.37332678  1
  O  O366  1  0.37368158  0.61518236  0.86730930  1
  O  O367  1  0.86489190  0.11372800  0.38114983  1
  O  O368  1  0.88374098  0.11548658  0.86440728  1
  O  O369  1  0.87288951  0.62382594  0.37460675  1
  O  O370  1  0.86236550  0.61593174  0.87663227  1
  O  O371  1  0.13078132  0.38460677  0.13500603  1
  O  O372  1  0.13328167  0.38006713  0.63126996  1
  O  O373  1  0.13206648  0.88592711  0.13126121  1
  O  O374  1  0.13901663  0.88094493  0.61858758  1
  O  O375  1  0.63517470  0.38641219  0.08597046  1
  O  O376  1  0.63809819  0.37578170  0.61772651  1
  O  O377  1  0.63764682  0.86778430  0.13491337  1
  O  O378  1  0.63199818  0.87998201  0.62694615  1
  O  O379  1  0.11446121  0.26168206  0.24941321  1
  O  O380  1  0.11496704  0.25498829  0.74824593  1
  O  O381  1  0.12190035  0.75662846  0.25861216  1
  O  O382  1  0.10843406  0.74837932  0.75562283  1
  O  O383  1  0.61217798  0.24346273  0.25111266  1
  O  O384  1  0.61386291  0.24814504  0.75540863  1
  O  O385  1  0.61844339  0.75667273  0.26088806  1
  O  O386  1  0.62459859  0.75737717  0.75314862  1
  O  O387  1  0.37904332  0.23450084  0.25633112  1
  O  O388  1  0.38494828  0.24887281  0.74129983  1
  O  O389  1  0.38274192  0.74423859  0.25700779  1
  O  O390  1  0.37324027  0.73803401  0.75275662  1
  O  O391  1  0.88725188  0.25820885  0.23610631  1
  O  O392  1  0.88056657  0.24305542  0.74433060  1
  O  O393  1  0.88307517  0.74732269  0.24377467  1
  O  O394  1  0.88612301  0.75422122  0.73792480  1
  O  O395  1  0.36997338  0.49367816  0.49145986  1
  O  O396  1  0.37446318  0.50053665  0.98860342  1
  O  O397  1  0.37955419  0.99316582  0.49420208  1
  O  O398  1  0.37245453  0.98776603  0.98658590  1
  O  O399  1  0.88438409  0.50226618  0.49191751  1
  O  O400  1  0.86612989  0.48778367  0.98607171  1
  O  O401  1  0.87119832  0.98769044  0.48780902  1
  O  O402  1  0.88660613  0.99613248  0.99112778  1
  O  O403  1  0.11637341  -0.00915097  0.01039572  1
  O  O404  1  0.12894140  -0.00074985  0.51626028  1
  O  O405  1  0.13378023  0.49568636  0.01786904  1
  O  O406  1  0.11712184  0.50599419  0.50612432  1
  O  O407  1  0.61769229  0.00225677  -0.01976617  1
  O  O408  1  0.61925485  0.00335253  0.50800180  1
  O  O409  1  0.62241947  0.52156861  -0.00931165  1
  O  O410  1  0.63111427  0.51660801  0.50406907  1
  O  O411  1  0.35901025  0.38285630  0.12757420  1
  O  O412  1  0.37100944  0.36955857  0.62395825  1
  O  O413  1  0.36214011  0.88296729  0.11062115  1
  O  O414  1  0.36551152  0.87398133  0.61691066  1
  O  O415  1  0.88438204  0.36485685  0.11260994  1
  O  O416  1  0.86529907  0.36404462  0.62641123  1
  O  O417  1  0.87161278  0.86965016  0.11855068  1
  O  O418  1  0.86726823  0.87571642  0.61797336  1
  O  O419  1  0.12751557  0.12733916  0.37084272  1
  O  O420  1  0.13496235  0.12228077  0.86925216  1
  O  O421  1  0.13310184  0.62888790  0.38205864  1
  O  O422  1  0.12780079  0.63982252  0.87148809  1
  O  O423  1  0.63940745  0.11999521  0.38069281  1
  O  O424  1  0.62246773  0.14036887  0.87377982  1
  O  O425  1  0.63400502  0.63476106  0.38347874  1
  O  O426  1  0.63355840  0.63627575  0.87837630  1
