# generated using pymatgen
data_V85Zn86O256
_symmetry_space_group_name_H-M   'P 1'
_cell_length_a   16.94292378
_cell_length_b   16.93484870
_cell_length_c   16.94178556
_cell_angle_alpha   89.94647535
_cell_angle_beta   89.98645729
_cell_angle_gamma   90.07532264
_symmetry_Int_Tables_number   1
_chemical_formula_structural   V85Zn86O256
_chemical_formula_sum   'V85 Zn86 O256'
_cell_volume   4861.02977500
_cell_formula_units_Z   1
loop_
 _symmetry_equiv_pos_site_id
 _symmetry_equiv_pos_as_xyz
  1  'x, y, z'
loop_
 _atom_site_type_symbol
 _atom_site_label
 _atom_site_symmetry_multiplicity
 _atom_site_fract_x
 _atom_site_fract_y
 _atom_site_fract_z
 _atom_site_occupancy
  V  V0  1  0.75046180  0.12874220  0.88021696  1
  V  V1  1  0.13287209  0.00257000  0.12826850  1
  V  V2  1  0.12437306  0.74443437  0.38228457  1
  V  V3  1  0.25204531  0.12403299  0.87647964  1
  V  V4  1  0.87325580  0.75583441  0.12125579  1
  V  V5  1  0.87063548  0.01249326  0.36366383  1
  V  V6  1  0.49551816  0.12488875  0.62061977  1
  V  V7  1  -0.00681877  0.24448742  0.75201272  1
  V  V8  1  0.50204023  0.87480505  0.87556462  1
  V  V9  1  0.74780921  0.37246479  0.62706939  1
  V  V10  1  0.86808777  0.50713608  0.87773181  1
  V  V11  1  -0.00003246  0.62548513  0.12514470  1
  V  V12  1  0.12388120  0.37484066  0.75107902  1
  V  V13  1  0.63993168  0.74327001  0.88085401  1
  V  V14  1  0.73763712  0.88075711  0.13271618  1
  V  V15  1  0.49224127  0.25132953  0.26972860  1
  V  V16  1  0.62388739  0.49436957  0.62839708  1
  V  V17  1  0.49883196  0.48230853  0.00070909  1
  V  V18  1  0.25673904  0.87398996  0.61676077  1
  V  V19  1  0.87713663  0.00780674  0.86915302  1
  V  V20  1  0.51156026  0.74868223  0.24401735  1
  V  V21  1  0.74930250  0.49210284  0.24610473  1
  V  V22  1  0.49044503  -0.00660268  0.49669106  1
  V  V23  1  0.11676705  0.50919409  0.61948237  1
  V  V24  1  0.25454336  0.87837277  0.12637929  1
  V  V25  1  0.12251501  0.24626976  0.38328903  1
  V  V26  1  -0.00160410  0.37436508  0.87782286  1
  V  V27  1  0.36771251  0.11985533  0.25713424  1
  V  V28  1  0.50135669  0.87280536  0.36999059  1
  V  V29  1  0.24711039  0.24682326  0.50411038  1
  V  V30  1  -0.00071742  0.74214958  0.74498617  1
  V  V31  1  0.00055318  0.12500394  0.62427484  1
  V  V32  1  -0.00142338  0.37659601  0.37904755  1
  V  V33  1  0.00397525  0.00172931  -0.00005957  1
  V  V34  1  0.24928711  0.37253823  0.62568121  1
  V  V35  1  0.62435185  0.62586904  0.49212353  1
  V  V36  1  0.25847710  0.74184064  0.49919645  1
  V  V37  1  0.25227837  0.62457020  0.87533907  1
  V  V38  1  0.13277135  0.87906667  0.25124537  1
  V  V39  1  0.87354135  0.37269593  0.50236813  1
  V  V40  1  0.50678921  0.25669817  0.74143713  1
  V  V41  1  0.62490333  0.48675589  0.12588545  1
  V  V42  1  0.74975307  0.87643787  0.62452481  1
  V  V43  1  0.74679926  0.75160467  0.49630877  1
  V  V44  1  0.37504519  0.74196494  0.12954659  1
  V  V45  1  0.49681665  0.49529482  0.49391407  1
  V  V46  1  0.00120609  0.75302707  0.24970478  1
  V  V47  1  0.37581580  0.62405382  0.74842885  1
  V  V48  1  0.37597226  0.13039019  0.74693543  1
  V  V49  1  0.00153738  0.49897269  0.00318448  1
  V  V50  1  0.12628964  0.74938236  0.87424487  1
  V  V51  1  0.25031332  0.62014592  0.35982421  1
  V  V52  1  0.37462483  0.25180926  0.11927654  1
  V  V53  1  0.75330379  0.00749791  0.74792712  1
  V  V54  1  0.37264942  0.37343442  0.50037203  1
  V  V55  1  0.86784802  0.25322003  0.12389445  1
  V  V56  1  0.87235169  0.50117632  0.37535856  1
  V  V57  1  0.24627984  0.11990048  0.37668650  1
  V  V58  1  -0.00130061  0.12671873  0.12859474  1
  V  V59  1  0.74746465  0.50496319  0.75274995  1
  V  V60  1  0.86989007  0.87705451  0.00144435  1
  V  V61  1  0.73308157  0.01304422  0.24838342  1
  V  V62  1  0.00135746  0.87562791  0.87470989  1
  V  V63  1  0.12877131  0.38259542  0.25345449  1
  V  V64  1  -0.00251310  0.24705283  0.25186759  1
  V  V65  1  0.50302624  0.74932243  0.75092084  1
  V  V66  1  0.87089545  0.24642085  0.62588121  1
  V  V67  1  0.12516113  0.24872336  0.87670444  1
  V  V68  1  0.63097536  0.25679886  0.87582232  1
  V  V69  1  0.37901847  -0.00124082  0.87359134  1
  V  V70  1  0.37182582  0.50062103  0.36398292  1
  V  V71  1  0.49883629  0.62472590  0.62216978  1
  V  V72  1  0.13224419  0.12637741  0.00134043  1
  V  V73  1  0.63676254  0.12385861  0.49663955  1
  V  V74  1  0.37721177  0.49097150  0.87827153  1
  V  V75  1  0.86085151  0.37242286  0.00463589  1
  V  V76  1  0.49462077  0.61589155  0.12774480  1
  V  V77  1  0.12585887  0.87436165  0.74766402  1
  V  V78  1  0.87755932  0.74197785  0.62216782  1
  V  V79  1  0.24980345  0.38119971  0.12308804  1
  V  V80  1  0.12465752  0.00203435  0.61969199  1
  V  V81  1  0.64159143  0.24990666  0.38364370  1
  V  V82  1  0.25179462  0.74869424  -0.00109849  1
  V  V83  1  -0.00252974  0.00085956  0.49843119  1
  V  V84  1  0.62024629  0.37223040  0.26016307  1
  Zn  Zn85  1  -0.00087829  0.87764503  0.37466469  1
  Zn  Zn86  1  0.50829916  0.11835562  0.12924533  1
  Zn  Zn87  1  0.50336837  0.37284969  0.87040774  1
  Zn  Zn88  1  0.25048687  -0.00060936  0.74638070  1
  Zn  Zn89  1  -0.00468429  0.52714987  0.50942731  1
  Zn  Zn90  1  0.13132066  0.50581055  0.13389593  1
  Zn  Zn91  1  0.24841521  0.49982017  0.74961631  1
  Zn  Zn92  1  0.25516545  0.25374959  -0.00266773  1
  Zn  Zn93  1  0.87286566  0.87561078  0.49295441  1
  Zn  Zn94  1  0.38237281  0.75752056  0.61516412  1
  Zn  Zn95  1  0.36237659  -0.01408008  0.37579401  1
  Zn  Zn96  1  0.12598356  0.62451308  -0.00019711  1
  Zn  Zn97  1  0.74810222  0.62884584  0.36530476  1
  Zn  Zn98  1  0.37790206  0.87220419  -0.00042926  1
  Zn  Zn99  1  0.63428537  0.75956190  0.35304944  1
  Zn  Zn100  1  0.51124956  -0.00072959  0.01080561  1
  Zn  Zn101  1  0.63529030  0.61806843  -0.00492375  1
  Zn  Zn102  1  0.62720176  0.12314867  0.00793917  1
  Zn  Zn103  1  0.87110670  0.62678588  0.24809517  1
  Zn  Zn104  1  0.62786632  0.87700038  0.75120629  1
  Zn  Zn105  1  0.87204369  0.62632035  0.75256369  1
  Zn  Zn106  1  0.62509430  -0.00002746  0.62405452  1
  Zn  Zn107  1  0.18859296  0.19356455  0.19119283  1
  Zn  Zn108  1  0.18460917  0.18705225  0.68919206  1
  Zn  Zn109  1  0.18679466  0.68993167  0.18755474  1
  Zn  Zn110  1  0.18996940  0.68946100  0.68597305  1
  Zn  Zn111  1  0.68602087  0.18801523  0.19515815  1
  Zn  Zn112  1  0.68632739  0.18442669  0.68713216  1
  Zn  Zn113  1  0.69785436  0.67237563  0.15904360  1
  Zn  Zn114  1  0.68598848  0.68555475  0.68450337  1
  Zn  Zn115  1  0.30781499  0.31434452  0.31592281  1
  Zn  Zn116  1  0.31354903  0.30923920  0.80924903  1
  Zn  Zn117  1  0.31703164  0.80593707  0.31141455  1
  Zn  Zn118  1  0.31318195  0.81258168  0.80728536  1
  Zn  Zn119  1  0.81325368  0.31156796  0.31037177  1
  Zn  Zn120  1  0.81142627  0.31980370  0.81116358  1
  Zn  Zn121  1  0.81387356  0.82398040  0.30987031  1
  Zn  Zn122  1  0.81660681  0.81777670  0.80918419  1
  Zn  Zn123  1  0.18583805  0.43973608  0.43986938  1
  Zn  Zn124  1  0.18857130  0.43821939  0.93871211  1
  Zn  Zn125  1  0.18435499  0.93201059  0.44157305  1
  Zn  Zn126  1  0.19223235  0.93820414  0.93794338  1
  Zn  Zn127  1  0.68938053  0.43543477  0.43953333  1
  Zn  Zn128  1  0.68318527  0.43349015  0.93580309  1
  Zn  Zn129  1  0.68395272  0.94024225  0.43075864  1
  Zn  Zn130  1  0.68514984  0.93967458  0.93880213  1
  Zn  Zn131  1  0.34211876  0.05180086  0.07581177  1
  Zn  Zn132  1  0.31170456  0.06228483  0.56068221  1
  Zn  Zn133  1  0.31421563  0.55915977  0.05908914  1
  Zn  Zn134  1  0.30677532  0.56200050  0.56017737  1
  Zn  Zn135  1  0.81201721  0.06228739  0.06348897  1
  Zn  Zn136  1  0.81857719  0.06275311  0.56122670  1
  Zn  Zn137  1  0.80943748  0.56145946  0.06092417  1
  Zn  Zn138  1  0.80882857  0.56225311  0.56033341  1
  Zn  Zn139  1  0.43926406  0.42732786  0.18940332  1
  Zn  Zn140  1  0.43421309  0.43904922  0.68326778  1
  Zn  Zn141  1  0.44045810  0.93450822  0.19267545  1
  Zn  Zn142  1  0.43981479  0.94022641  0.68846042  1
  Zn  Zn143  1  0.93948440  0.43335918  0.18987754  1
  Zn  Zn144  1  0.93589487  0.43742706  0.69174238  1
  Zn  Zn145  1  0.94089947  0.93998393  0.18842008  1
  Zn  Zn146  1  0.93647833  0.93158273  0.68533267  1
  Zn  Zn147  1  0.06383105  0.06276329  0.31347698  1
  Zn  Zn148  1  0.06481326  0.06288015  0.80934111  1
  Zn  Zn149  1  0.05797753  0.56582525  0.31855500  1
  Zn  Zn150  1  0.06288755  0.56051594  0.81266106  1
  Zn  Zn151  1  0.55515799  0.06737066  0.31719396  1
  Zn  Zn152  1  0.56763482  0.06520016  0.81219839  1
  Zn  Zn153  1  0.55824898  0.56437160  0.30803824  1
  Zn  Zn154  1  0.56271267  0.56282737  0.81471419  1
  Zn  Zn155  1  0.43180962  0.18534789  0.44240244  1
  Zn  Zn156  1  0.44616705  0.18524489  0.93548829  1
  Zn  Zn157  1  0.43731716  0.68646397  0.42835081  1
  Zn  Zn158  1  0.44317836  0.68055332  0.94261438  1
  Zn  Zn159  1  0.93473903  0.18694368  0.44255675  1
  Zn  Zn160  1  0.93755284  0.18699864  0.94302472  1
  Zn  Zn161  1  0.93400972  0.68669868  0.43627271  1
  Zn  Zn162  1  0.93716393  0.68950559  0.93864292  1
  Zn  Zn163  1  0.06351252  0.31388916  0.06399701  1
  Zn  Zn164  1  0.05994016  0.31853334  0.56492535  1
  Zn  Zn165  1  0.06522852  0.81528712  0.06098124  1
  Zn  Zn166  1  0.06256795  0.81180889  0.56061964  1
  Zn  Zn167  1  0.57629770  0.28630372  0.07800252  1
  Zn  Zn168  1  0.56090106  0.31145436  0.55847225  1
  Zn  Zn169  1  0.56190610  0.80900091  0.05855906  1
  Zn  Zn170  1  0.56346205  0.81503715  0.55987948  1
  O  O171  1  0.12133071  0.12245665  0.12262341  1
  O  O172  1  0.11453647  0.11380616  0.63057330  1
  O  O173  1  0.11363617  0.62425403  0.12432303  1
  O  O174  1  0.13115703  0.60739179  0.63284291  1
  O  O175  1  0.61042872  0.17379248  0.11474394  1
  O  O176  1  0.61570998  0.12483214  0.61179607  1
  O  O177  1  0.60756964  0.59707863  0.13410332  1
  O  O178  1  0.61986111  0.61487673  0.61248945  1
  O  O179  1  0.35980529  0.39198291  0.38805189  1
  O  O180  1  0.37887135  0.38715909  0.86488159  1
  O  O181  1  0.39058289  0.87283471  0.36695530  1
  O  O182  1  0.38439617  0.88073716  0.86984392  1
  O  O183  1  0.87662620  0.37930226  0.38383101  1
  O  O184  1  0.87940178  0.38264057  0.88495601  1
  O  O185  1  0.88080176  0.89028002  0.37537654  1
  O  O186  1  0.87999304  0.88464047  0.88363053  1
  O  O187  1  0.24584814  0.01459295  0.38908468  1
  O  O188  1  0.25882520  0.00492494  0.86829169  1
  O  O189  1  0.25552836  0.51237166  0.37945816  1
  O  O190  1  0.25937197  0.50450602  0.87376343  1
  O  O191  1  0.75988673  -0.00436271  0.35951434  1
  O  O192  1  0.75859973  0.00675862  0.86714716  1
  O  O193  1  0.75788145  0.49871912  0.36768341  1
  O  O194  1  0.75635311  0.49177000  0.86573085  1
  O  O195  1  0.25032458  0.48679848  0.12351400  1
  O  O196  1  0.23848109  0.48933403  0.62618603  1
  O  O197  1  0.25122341  0.98614430  0.11941054  1
  O  O198  1  0.24104864  0.99366384  0.62232550  1
  O  O199  1  0.73890797  0.49335836  0.13722013  1
  O  O200  1  0.74217404  0.49376911  0.62975564  1
  O  O201  1  0.75646735  0.99254588  0.13752701  1
  O  O202  1  0.75420598  0.99348541  0.63063057  1
  O  O203  1  0.00751265  0.36579661  0.25811177  1
  O  O204  1  0.00385479  0.36556833  0.75792295  1
  O  O205  1  0.01351110  0.86634023  0.24624699  1
  O  O206  1  0.00539414  0.86622189  0.75530737  1
  O  O207  1  0.51044310  0.36607136  0.25833896  1
  O  O208  1  0.49461158  0.35921821  0.74156119  1
  O  O209  1  0.50186097  0.86110477  0.25258762  1
  O  O210  1  0.50256878  0.86486150  0.75506601  1
  O  O211  1  0.48767053  0.13621987  0.24995686  1
  O  O212  1  0.49554974  0.12983503  0.73937956  1
  O  O213  1  0.49572117  0.63037404  0.23744716  1
  O  O214  1  0.49459240  0.63073617  0.74421778  1
  O  O215  1  1.00818391  0.13549795  0.24037795  1
  O  O216  1  1.00213189  0.13548258  0.74142434  1
  O  O217  1  0.99866193  0.63578559  0.24206639  1
  O  O218  1  0.99662419  0.63898394  0.75654350  1
  O  O219  1  0.37772778  0.24683175  0.01646974  1
  O  O220  1  0.36285083  0.26359873  0.49425439  1
  O  O221  1  0.37087930  0.74897214  0.00883143  1
  O  O222  1  0.36625041  0.74566370  0.49849454  1
  O  O223  1  0.88184250  0.25874677  0.01344445  1
  O  O224  1  0.87840029  0.25983889  0.51344667  1
  O  O225  1  0.88378543  0.76416823  0.00977841  1
  O  O226  1  0.86172260  0.75252790  0.50386398  1
  O  O227  1  0.13025803  0.25846088  0.49147290  1
  O  O228  1  0.12463246  0.24371466  0.99318767  1
  O  O229  1  0.13434042  0.75760668  0.48605867  1
  O  O230  1  0.13167891  0.74896643  0.99231871  1
  O  O231  1  0.62225020  0.23956657  0.49176739  1
  O  O232  1  0.62317764  0.25302227  0.97656689  1
  O  O233  1  0.63302811  0.74002844  0.50161519  1
  O  O234  1  0.62279431  0.74879473  0.98257482  1
  O  O235  1  0.47779147  0.26038174  0.14229787  1
  O  O236  1  0.50435483  0.23988870  0.63265345  1
  O  O237  1  0.49495540  0.73879263  0.12548875  1
  O  O238  1  0.50142061  0.74529165  0.63268911  1
  O  O239  1  0.99958405  0.24385278  0.13429959  1
  O  O240  1  0.99468920  0.24426245  0.63208220  1
  O  O241  1  0.99660982  0.74575082  0.13036876  1
  O  O242  1  0.98988002  0.75960337  0.63406838  1
  O  O243  1  0.00349896  0.25351512  0.37195166  1
  O  O244  1  0.00276053  0.25256703  0.86940285  1
  O  O245  1  0.00720439  0.75236162  0.36369746  1
  O  O246  1  0.00431463  0.75634784  0.86761722  1
  O  O247  1  0.50229447  0.24650305  0.37235806  1
  O  O248  1  0.51078263  0.25061906  0.86023664  1
  O  O249  1  0.50430380  0.75221799  0.36099890  1
  O  O250  1  0.50385599  0.75563657  0.86693515  1
  O  O251  1  0.25511017  0.13968683  0.49527614  1
  O  O252  1  0.24669343  0.12665503  0.99238497  1
  O  O253  1  0.24853962  0.63566886  0.49217848  1
  O  O254  1  0.24816896  0.63017972  0.99366433  1
  O  O255  1  0.73502815  0.12032060  0.50539744  1
  O  O256  1  0.75057517  0.12294650  0.98473525  1
  O  O257  1  0.74042429  0.63362786  0.49644894  1
  O  O258  1  0.73268481  0.63918893  1.04889507  1
  O  O259  1  0.24234518  0.37163838  0.01714349  1
  O  O260  1  0.25292110  0.36826133  0.50727243  1
  O  O261  1  0.25237746  0.86662946  0.00892249  1
  O  O262  1  0.24789107  0.86336454  0.50880398  1
  O  O263  1  0.76182544  0.37705140  -0.00033771  1
  O  O264  1  0.76244603  0.38085751  0.51307675  1
  O  O265  1  0.76456279  0.88741658  0.01405802  1
  O  O266  1  0.74556276  0.86744009  0.50551529  1
  O  O267  1  0.11476594  0.48762948  0.25214753  1
  O  O268  1  0.12565485  0.49124036  0.74393244  1
  O  O269  1  0.12175740  0.98772215  0.24512535  1
  O  O270  1  0.12479449  0.99293663  0.73778539  1
  O  O271  1  0.62744113  0.48862758  0.25032794  1
  O  O272  1  0.62845569  0.50485698  0.73577563  1
  O  O273  1  0.63315800  1.01111963  0.25223633  1
  O  O274  1  0.63827777  0.99866225  0.74611619  1
  O  O275  1  0.37573150  0.01619416  0.25719700  1
  O  O276  1  0.37468510  0.01090460  0.75694450  1
  O  O277  1  0.37914867  0.49151064  0.26616394  1
  O  O278  1  0.37688837  0.51013770  0.75690007  1
  O  O279  1  0.87976059  0.00345777  0.26137574  1
  O  O280  1  0.86972229  -0.00719799  0.76110604  1
  O  O281  1  0.86550838  0.49250222  0.25765018  1
  O  O282  1  0.86855470  0.50236566  0.76070305  1
  O  O283  1  0.12004326  0.36845009  0.37181399  1
  O  O284  1  0.11903672  0.36975419  0.87162026  1
  O  O285  1  0.12569431  0.86564109  0.36544675  1
  O  O286  1  0.12162105  0.87057744  0.86888244  1
  O  O287  1  0.62673763  0.35926214  0.37746526  1
  O  O288  1  0.62626545  0.36187529  0.86508639  1
  O  O289  1  0.61016115  0.87204747  0.37464277  1
  O  O290  1  0.61780153  0.86419308  0.87187986  1
  O  O291  1  0.36181108  0.14531478  0.14166811  1
  O  O292  1  0.38434811  0.11934524  0.63362952  1
  O  O293  1  0.38290241  0.62983350  0.11860394  1
  O  O294  1  0.38005122  0.62280782  0.63408302  1
  O  O295  1  0.89063702  0.13763728  0.11544518  1
  O  O296  1  0.88434271  0.13632084  0.62294067  1
  O  O297  1  0.88618095  0.63677408  0.12599514  1
  O  O298  1  0.86901264  0.63861988  0.62476231  1
  O  O299  1  0.25653968  0.26060233  0.12402201  1
  O  O300  1  0.23905559  0.26027828  0.61652117  1
  O  O301  1  0.25669577  0.75439602  0.11964834  1
  O  O302  1  0.25287672  0.75578090  0.61538989  1
  O  O303  1  0.77084842  0.24563605  0.13541091  1
  O  O304  1  0.75965112  0.25893575  0.63627204  1
  O  O305  1  0.76608599  0.77114139  0.13689237  1
  O  O306  1  0.75497917  0.75650995  0.61747127  1
  O  O307  1  0.23932054  0.24562481  0.38543575  1
  O  O308  1  0.24480367  0.24387175  0.87639070  1
  O  O309  1  0.24664904  0.73862077  0.37843362  1
  O  O310  1  0.24704754  0.74546463  0.87847121  1
  O  O311  1  0.74039774  0.24695217  0.37448208  1
  O  O312  1  0.74000007  0.24294464  0.85940178  1
  O  O313  1  0.74912724  0.75191430  0.38092769  1
  O  O314  1  0.73832713  0.75680586  0.86753703  1
  O  O315  1  0.01099813  0.12089433  0.00868921  1
  O  O316  1  -0.00236020  0.11524328  0.51326542  1
  O  O317  1  -0.00034145  0.61736611  0.00863893  1
  O  O318  1  0.00993801  0.63494653  0.49374375  1
  O  O319  1  0.50387669  0.12113881  0.00575867  1
  O  O320  1  0.50198929  0.11796668  0.50707129  1
  O  O321  1  0.50840236  0.61164578  0.01203447  1
  O  O322  1  0.50563030  0.61777749  0.50183740  1
  O  O323  1  0.48822823  0.38562317  0.50636796  1
  O  O324  1  0.50456996  0.38117967  1.00024622  1
  O  O325  1  0.50438810  0.88490191  0.49187525  1
  O  O326  1  0.49767669  0.87643355  0.98700589  1
  O  O327  1  0.98658649  0.37760408  0.49610170  1
  O  O328  1  0.99352767  0.38391764  0.99780646  1
  O  O329  1  0.99718935  0.88773224  0.49897674  1
  O  O330  1  0.99526426  0.88315898  0.99481423  1
  O  O331  1  0.48429055  0.50847924  0.38420925  1
  O  O332  1  0.49704077  0.49493757  0.88204933  1
  O  O333  1  0.49695269  0.99143700  0.38093790  1
  O  O334  1  0.49492364  0.98857838  0.86566824  1
  O  O335  1  0.98588913  0.49401813  0.37447152  1
  O  O336  1  0.99095069  0.49560914  0.88449905  1
  O  O337  1  0.99362992  1.00265269  0.38286751  1
  O  O338  1  0.99541246  0.99710241  0.87789079  1
  O  O339  1  0.00885729  0.00962957  0.12129179  1
  O  O340  1  0.00237092  0.00530370  0.62053978  1
  O  O341  1  -0.00370483  0.50910258  0.11932895  1
  O  O342  1  0.01158150  0.49519052  0.62773337  1
  O  O343  1  0.45784888  0.01328340  0.11471243  1
  O  O344  1  0.50331259  0.00600333  0.61591759  1
  O  O345  1  0.49933966  0.49689248  0.11950835  1
  O  O346  1  0.50626314  0.50395076  0.61527378  1
  O  O347  1  0.23687793  0.36880837  0.24153061  1
  O  O348  1  0.24418244  0.37293088  0.74109329  1
  O  O349  1  0.24227845  0.86470859  0.23995827  1
  O  O350  1  0.24219926  0.87408991  0.73837789  1
  O  O351  1  0.73428605  0.38033904  0.25819977  1
  O  O352  1  0.75473454  0.38935594  0.73572790  1
  O  O353  1  0.74873864  0.88883820  0.23855135  1
  O  O354  1  0.75071589  0.88524089  0.74010499  1
  O  O355  1  0.25436108  0.13404888  0.26587456  1
  O  O356  1  0.25962258  0.12644332  0.75474286  1
  O  O357  1  0.25146502  0.62732814  0.26031553  1
  O  O358  1  0.26192310  0.62579456  0.75569798  1
  O  O359  1  0.75353758  0.11155689  0.24355242  1
  O  O360  1  0.75051327  0.11398299  0.75628178  1
  O  O361  1  0.75140253  0.60904978  0.24688613  1
  O  O362  1  0.75200604  0.60991178  0.74271914  1
  O  O363  1  0.36188792  0.12636668  0.37165147  1
  O  O364  1  0.37333487  0.11861373  0.86624552  1
  O  O365  1  0.36172421  0.61312851  0.37605682  1
  O  O366  1  0.37397327  0.61633083  0.86697693  1
  O  O367  1  0.87616947  0.11193463  0.38029858  1
  O  O368  1  0.87060401  0.11500520  0.87995487  1
  O  O369  1  0.87013086  0.61369160  0.36853284  1
  O  O370  1  0.87498332  0.61100447  0.88041106  1
  O  O371  1  0.13318913  0.37638443  0.13493601  1
  O  O372  1  0.13115468  0.38144853  0.63241074  1
  O  O373  1  0.13509343  0.87982085  0.13101768  1
  O  O374  1  0.13280105  0.88187894  0.62835243  1
  O  O375  1  0.61641744  0.37907058  0.14084181  1
  O  O376  1  0.63383995  0.38495103  0.61276949  1
  O  O377  1  0.64033957  0.87044589  0.11824713  1
  O  O378  1  0.63814627  0.87678639  0.62644962  1
  O  O379  1  0.11541864  0.25936451  0.26179569  1
  O  O380  1  0.11414479  0.25468027  0.75655507  1
  O  O381  1  0.11898141  0.75762671  0.25691781  1
  O  O382  1  0.11796641  0.75451719  0.75313290  1
  O  O383  1  0.61706636  0.25295164  0.26921715  1
  O  O384  1  0.61171159  0.24513851  0.75268128  1
  O  O385  1  0.61551796  0.73624951  0.23743257  1
  O  O386  1  0.61583138  0.74742328  0.75738722  1
  O  O387  1  0.37818476  0.24557831  0.25528031  1
  O  O388  1  0.38991105  0.23766489  0.75562568  1
  O  O389  1  0.38505747  0.74870318  0.23410388  1
  O  O390  1  0.38644164  0.73921650  0.74887984  1
  O  O391  1  0.88894393  0.25820002  0.23959940  1
  O  O392  1  0.88621327  0.25884107  0.74163464  1
  O  O393  1  0.88701569  0.75480548  0.24139094  1
  O  O394  1  0.88173052  0.74912150  0.74191620  1
  O  O395  1  0.38077384  0.49463863  0.49568044  1
  O  O396  1  0.38585097  0.50245564  0.98777962  1
  O  O397  1  0.38607356  1.00408101  0.49487771  1
  O  O398  1  0.37428964  0.99561080  0.97886071  1
  O  O399  1  0.87542781  0.49402071  0.49225506  1
  O  O400  1  0.87994340  0.49339646  0.99804532  1
  O  O401  1  0.88185295  0.99831568  0.49016675  1
  O  O402  1  0.88395303  0.99549547  0.99203646  1
  O  O403  1  0.12329228  0.00551910  0.00723772  1
  O  O404  1  0.11359439  -0.00511590  0.51182120  1
  O  O405  1  0.11089073  0.50097270  0.00342140  1
  O  O406  1  0.11925550  0.49378869  0.51579839  1
  O  O407  1  0.62407963  0.00719369  0.00129254  1
  O  O408  1  0.61576540  0.01371859  0.49655699  1
  O  O409  1  0.61850648  0.49429537  0.00972235  1
  O  O410  1  0.61682857  0.50581135  0.50322557  1
  O  O411  1  0.35805329  0.36430632  0.13635049  1
  O  O412  1  0.36004853  0.38278828  0.61425677  1
  O  O413  1  0.36722922  0.86336865  0.12348307  1
  O  O414  1  0.36163809  0.87502421  0.63324453  1
  O  O415  1  0.88205271  0.36224963  0.11859693  1
  O  O416  1  0.86938541  0.36884425  0.62030059  1
  O  O417  1  0.87779855  0.87244473  0.11757094  1
  O  O418  1  0.86343491  0.86518344  0.62041002  1
  O  O419  1  0.13045465  0.13813727  0.37179032  1
  O  O420  1  0.13144320  0.12841340  0.87948593  1
  O  O421  1  0.13792489  0.63330595  0.36804693  1
  O  O422  1  0.13331186  0.63068072  0.87497590  1
  O  O423  1  0.62116530  0.13652467  0.38801794  1
  O  O424  1  0.63531314  0.13707868  0.87228506  1
  O  O425  1  0.62522726  0.62553038  0.38387058  1
  O  O426  1  0.62489159  0.63728078  0.87588460  1
