# generated using pymatgen
data_V85Zn86O256
_symmetry_space_group_name_H-M   'P 1'
_cell_length_a   16.97141986
_cell_length_b   16.96328083
_cell_length_c   16.96096440
_cell_angle_alpha   89.96749998
_cell_angle_beta   89.99737602
_cell_angle_gamma   90.01954029
_symmetry_Int_Tables_number   1
_chemical_formula_structural   V85Zn86O256
_chemical_formula_sum   'V85 Zn86 O256'
_cell_volume   4882.90726953
_cell_formula_units_Z   1
loop_
 _symmetry_equiv_pos_site_id
 _symmetry_equiv_pos_as_xyz
  1  'x, y, z'
loop_
 _atom_site_type_symbol
 _atom_site_label
 _atom_site_symmetry_multiplicity
 _atom_site_fract_x
 _atom_site_fract_y
 _atom_site_fract_z
 _atom_site_occupancy
  V  V0  1  0.24361940  0.49487751  0.24851208  1
  V  V1  1  0.01740269  0.50207785  0.50383362  1
  V  V2  1  0.76604230  0.11680896  0.87438057  1
  V  V3  1  0.74311640  0.49067724  0.74994085  1
  V  V4  1  0.87387548  0.12121617  0.25659507  1
  V  V5  1  0.37782624  0.87554061  0.49146104  1
  V  V6  1  0.25224203  0.00184772  0.74973096  1
  V  V7  1  0.37285519  0.49594114  0.37997600  1
  V  V8  1  0.12295617  0.87130035  0.25069581  1
  V  V9  1  0.12531577  0.87657910  0.75198230  1
  V  V10  1  0.50698958  0.37281030  0.87035743  1
  V  V11  1  0.01201203  0.62428546  0.61959781  1
  V  V12  1  0.76233621  0.24724198  0.49054336  1
  V  V13  1  0.37881658  0.12750588  0.74852584  1
  V  V14  1  0.12028581  0.24996109  0.86396287  1
  V  V15  1  0.50432335  0.49791247  0.00511524  1
  V  V16  1  0.74963649  0.87527626  0.13398061  1
  V  V17  1  0.00210319  0.37780057  0.37197980  1
  V  V18  1  0.62531470  0.62138806  0.00419458  1
  V  V19  1  0.49691759  0.49322375  0.50208459  1
  V  V20  1  0.74177384  0.24375304  0.00218939  1
  V  V21  1  0.86861307  0.87399397  0.50331202  1
  V  V22  1  0.62330069  0.62567583  0.49776957  1
  V  V23  1  0.50561664  0.00616734  0.49094722  1
  V  V24  1  0.24693129  0.63241249  0.38386653  1
  V  V25  1  0.12395707  0.00234110  0.62514337  1
  V  V26  1  0.24986570  0.62107335  0.87191503  1
  V  V27  1  0.25326929  0.25082012  0.00354797  1
  V  V28  1  0.62391966  0.23887797  0.86804837  1
  V  V29  1  0.87816266  0.62203689  0.24991197  1
  V  V30  1  0.37848184  0.74906473  0.12521037  1
  V  V31  1  0.25411845  0.00231963  0.25371226  1
  V  V32  1  0.62454245  0.75419045  0.87524888  1
  V  V33  1  0.48872491  0.24714678  0.24556276  1
  V  V34  1  0.61733200  0.86808700  0.25677982  1
  V  V35  1  0.12437793  0.12464810  0.49857502  1
  V  V36  1  0.87746229  0.25076523  0.12801825  1
  V  V37  1  0.25073224  0.25513318  0.50073684  1
  V  V38  1  0.87356381  0.49816169  0.87125152  1
  V  V39  1  0.62236051  0.49115954  0.62918916  1
  V  V40  1  0.62405808  0.24611702  0.37965596  1
  V  V41  1  0.12508424  0.74881278  0.87771590  1
  V  V42  1  0.74369080  0.38043590  0.12477057  1
  V  V43  1  0.87223090  0.49509869  0.38830114  1
  V  V44  1  0.50713086  0.12625614  0.62004303  1
  V  V45  1  0.74700490  0.50015840  0.25064284  1
  V  V46  1  0.37217360  0.25266826  0.62137321  1
  V  V47  1  0.47677071  0.12901460  0.12662196  1
  V  V48  1  0.12185567  0.39154906  0.74659603  1
  V  V49  1  0.37169891  0.49915274  0.86992975  1
  V  V50  1  0.50509632  0.62334440  0.12661812  1
  V  V51  1  0.88187283  0.25150555  0.63664605  1
  V  V52  1  0.12554342  0.12609501  -0.00004084  1
  V  V53  1  0.74563324  0.63200931  0.37921332  1
  V  V54  1  0.63340688  0.01131832  0.13020835  1
  V  V55  1  0.25130260  0.12619484  0.87332219  1
  V  V56  1  0.24832672  0.38629442  0.63024461  1
  V  V57  1  0.62174929  0.37979312  0.24518195  1
  V  V58  1  0.37454471  0.37194710  0.00460919  1
  V  V59  1  0.00476834  0.74444018  0.25041010  1
  V  V60  1  0.12606582  0.25755582  0.36773204  1
  V  V61  1  0.87518402  0.37354033  -0.00166519  1
  V  V62  1  -0.00435073  0.88069141  0.87643912  1
  V  V63  1  0.49511099  0.37364727  0.37585035  1
  V  V64  1  0.50019126  0.75134848  0.75021990  1
  V  V65  1  0.25131462  0.74910417  -0.00027694  1
  V  V66  1  0.00042410  0.50538635  0.00304203  1
  V  V67  1  0.37984623  0.87601393  -0.00270603  1
  V  V68  1  0.75306759  0.37311272  0.61719558  1
  V  V69  1  0.50503525  0.00518697  0.00110456  1
  V  V70  1  0.37371463  0.75127619  0.62558673  1
  V  V71  1  0.87582850  0.88036674  0.00029531  1
  V  V72  1  0.75015612  0.74810704  0.00131209  1
  V  V73  1  0.37561498  0.62457713  0.24955261  1
  V  V74  1  -0.00187472  0.74805722  0.74967592  1
  V  V75  1  -0.00300437  0.12956812  0.63432459  1
  V  V76  1  0.24133322  0.37661429  0.12567557  1
  V  V77  1  0.74807267  0.62249580  0.87418685  1
  V  V78  1  0.25205026  0.87295130  0.62380285  1
  V  V79  1  0.25169588  0.87429093  0.12476494  1
  V  V80  1  0.25373891  0.12138712  0.37270585  1
  V  V81  1  -0.00289558  0.00076792  0.49469423  1
  V  V82  1  0.86778737  0.75131692  0.62330313  1
  V  V83  1  0.12314345  0.00162606  0.12292479  1
  V  V84  1  0.87964293  0.74476527  0.12691023  1
  Zn  Zn85  1  0.37867274  0.00131995  0.36921942  1
  Zn  Zn86  1  0.00012587  0.86775531  0.37815416  1
  Zn  Zn87  1  0.73837830  0.11282387  0.37055547  1
  Zn  Zn88  1  0.51362647  0.25321106  0.73870034  1
  Zn  Zn89  1  0.37126622  0.62139926  0.74734755  1
  Zn  Zn90  1  -0.00752393  0.36806293  0.86117915  1
  Zn  Zn91  1  -0.00479751  0.00475349  -0.00334223  1
  Zn  Zn92  1  0.75741903  -0.00325256  0.74193431  1
  Zn  Zn93  1  0.63497118  -0.01027440  0.61889190  1
  Zn  Zn94  1  0.00140811  0.12781470  0.12619691  1
  Zn  Zn95  1  0.73411585  0.76081256  0.50800645  1
  Zn  Zn96  1  0.49981468  0.75615848  0.27793494  1
  Zn  Zn97  1  0.12161251  0.62743343  0.00767213  1
  Zn  Zn98  1  0.37989440  0.00204452  0.87346072  1
  Zn  Zn99  1  0.49834825  0.62221837  0.62714175  1
  Zn  Zn100  1  0.87418541  0.62185511  0.74511994  1
  Zn  Zn101  1  0.11613726  0.73091519  0.40985085  1
  Zn  Zn102  1  0.63940394  0.87040847  0.72843010  1
  Zn  Zn103  1  0.11125860  0.50298399  0.13656124  1
  Zn  Zn104  1  0.86825787  -0.00940159  0.36709610  1
  Zn  Zn105  1  0.00771102  0.25755891  0.24484554  1
  Zn  Zn106  1  0.50533215  0.88155860  0.87012864  1
  Zn  Zn107  1  0.19297780  0.18675050  0.18694248  1
  Zn  Zn108  1  0.18695171  0.18774601  0.68586705  1
  Zn  Zn109  1  0.18843613  0.68119374  0.18435504  1
  Zn  Zn110  1  0.18832722  0.68863459  0.68928756  1
  Zn  Zn111  1  0.68856646  0.19445718  0.19500436  1
  Zn  Zn112  1  0.71244595  0.15630109  0.66917604  1
  Zn  Zn113  1  0.68786907  0.68877362  0.19059811  1
  Zn  Zn114  1  0.68413954  0.67954541  0.68854988  1
  Zn  Zn115  1  0.30945166  0.31182730  0.31109446  1
  Zn  Zn116  1  0.31062956  0.31418802  0.81177994  1
  Zn  Zn117  1  0.31164404  0.81097883  0.30940569  1
  Zn  Zn118  1  0.31371783  0.81197983  0.81299308  1
  Zn  Zn119  1  0.81599006  0.31579070  0.31096494  1
  Zn  Zn120  1  0.80427850  0.30759962  0.81079268  1
  Zn  Zn121  1  0.81267115  0.81197077  0.31707604  1
  Zn  Zn122  1  0.81308632  0.81659268  0.81192762  1
  Zn  Zn123  1  0.18930016  0.43773524  0.43976770  1
  Zn  Zn124  1  0.18580589  0.43466821  0.93304687  1
  Zn  Zn125  1  0.17464621  0.91209428  0.45118280  1
  Zn  Zn126  1  0.18877758  0.93760314  0.93596825  1
  Zn  Zn127  1  0.68412409  0.43614455  0.43651970  1
  Zn  Zn128  1  0.68516891  0.43307849  0.93755773  1
  Zn  Zn129  1  0.68826807  0.93976566  0.43533837  1
  Zn  Zn130  1  0.68877140  0.93843190  0.94472831  1
  Zn  Zn131  1  0.30952981  0.05915734  0.06067595  1
  Zn  Zn132  1  0.31480601  0.06192418  0.55939131  1
  Zn  Zn133  1  0.31239240  0.56067940  0.06037049  1
  Zn  Zn134  1  0.31139633  0.56529758  0.56243221  1
  Zn  Zn135  1  0.81133175  0.06570561  0.06552795  1
  Zn  Zn136  1  0.81506422  0.06496573  0.55632054  1
  Zn  Zn137  1  0.81343448  0.56136601  0.06254747  1
  Zn  Zn138  1  0.81290307  0.56751834  0.56623578  1
  Zn  Zn139  1  0.43220619  0.43690725  0.18791934  1
  Zn  Zn140  1  0.43460848  0.43217280  0.68940438  1
  Zn  Zn141  1  0.44057043  0.93908527  0.18558041  1
  Zn  Zn142  1  0.44552559  0.93981948  0.68321753  1
  Zn  Zn143  1  0.93402572  0.43686987  0.19025659  1
  Zn  Zn144  1  0.93714414  0.43567331  0.68122671  1
  Zn  Zn145  1  0.93934052  0.93503471  0.18670015  1
  Zn  Zn146  1  0.93176080  0.94021633  0.68599675  1
  Zn  Zn147  1  0.06199765  0.06790838  0.30943737  1
  Zn  Zn148  1  0.06130207  0.06329980  0.81295454  1
  Zn  Zn149  1  0.06234955  0.56240431  0.31729524  1
  Zn  Zn150  1  0.06130738  0.56458644  0.81627439  1
  Zn  Zn151  1  0.56199359  0.06122699  0.30469672  1
  Zn  Zn152  1  0.57155704  0.06031494  0.80705680  1
  Zn  Zn153  1  0.56074768  0.56401511  0.31477478  1
  Zn  Zn154  1  0.55924727  0.56394607  0.81442370  1
  Zn  Zn155  1  0.43562055  0.18846558  0.43634939  1
  Zn  Zn156  1  0.43943290  0.18687132  0.93788961  1
  Zn  Zn157  1  0.43383746  0.68391372  0.44217464  1
  Zn  Zn158  1  0.43790173  0.68555529  0.93705015  1
  Zn  Zn159  1  0.94188729  0.19099256  0.43919688  1
  Zn  Zn160  1  0.94069671  0.18813076  0.93957814  1
  Zn  Zn161  1  0.93384682  0.68462644  0.43846007  1
  Zn  Zn162  1  0.93391674  0.68820889  0.93564264  1
  Zn  Zn163  1  0.06373367  0.31592202  0.05531501  1
  Zn  Zn164  1  0.06384648  0.31743617  0.55953588  1
  Zn  Zn165  1  0.06189013  0.81189712  0.06375081  1
  Zn  Zn166  1  0.05842470  0.81427797  0.56639865  1
  Zn  Zn167  1  0.56033482  0.30805788  0.06054194  1
  Zn  Zn168  1  0.56634433  0.30939943  0.56029411  1
  Zn  Zn169  1  0.56452074  0.81250776  0.06707883  1
  Zn  Zn170  1  0.55485099  0.81496044  0.55726901  1
  O  O171  1  0.12733321  0.11716404  0.11923993  1
  O  O172  1  0.11831186  0.12249766  0.61757311  1
  O  O173  1  0.12939545  0.61344639  0.11880748  1
  O  O174  1  0.11188707  0.63321627  0.62674850  1
  O  O175  1  0.63369225  0.11209149  0.13263304  1
  O  O176  1  0.60452085  0.14647438  0.62725803  1
  O  O177  1  0.61472399  0.62787293  0.12124627  1
  O  O178  1  0.62263241  0.60708131  0.61759548  1
  O  O179  1  0.38483528  0.38335938  0.36884079  1
  O  O180  1  0.37976715  0.38027532  0.88445436  1
  O  O181  1  0.36560290  0.87503511  0.38981827  1
  O  O182  1  0.37945173  0.87736634  0.88647122  1
  O  O183  1  0.88468019  0.38695507  0.37096943  1
  O  O184  1  0.86965306  0.37953788  0.88125680  1
  O  O185  1  0.88171431  0.87338165  0.38470572  1
  O  O186  1  0.88492773  0.86419910  0.89012464  1
  O  O187  1  0.24523189  0.00742178  0.36769992  1
  O  O188  1  0.25354452  0.00770822  0.86834774  1
  O  O189  1  0.25740378  0.50202674  0.36915831  1
  O  O190  1  0.26051085  0.50825096  0.88531071  1
  O  O191  1  0.75768527  0.00472986  0.37869866  1
  O  O192  1  0.74528589  0.01760477  0.88903977  1
  O  O193  1  0.75600884  0.50242639  0.37027515  1
  O  O194  1  0.75398731  0.49972538  0.86895126  1
  O  O195  1  0.25426200  0.49190487  0.13359172  1
  O  O196  1  0.25573554  0.48464503  0.62014927  1
  O  O197  1  0.24226338  0.99495222  0.13230139  1
  O  O198  1  0.24528313  0.99514088  0.63101671  1
  O  O199  1  0.75598185  0.48730555  0.13156256  1
  O  O200  1  0.74443389  0.49213373  0.63008000  1
  O  O201  1  0.73896557  0.99105671  0.11953903  1
  O  O202  1  0.73545179  1.04615042  0.63125061  1
  O  O203  1  0.00087185  0.37930156  0.26511787  1
  O  O204  1  0.01580674  0.37848757  0.74469192  1
  O  O205  1  0.00529910  0.86241130  0.24978650  1
  O  O206  1  0.00434543  0.86628253  0.75699124  1
  O  O207  1  0.50398876  0.37041656  0.25384715  1
  O  O208  1  0.49146831  0.36655446  0.76565792  1
  O  O209  1  0.51146729  0.87169044  0.24310137  1
  O  O210  1  0.50290661  0.86210756  0.75160377  1
  O  O211  1  0.50054732  0.13169607  0.23407146  1
  O  O212  1  0.49138621  0.12938117  0.74158472  1
  O  O213  1  0.49017246  0.61923602  0.24240150  1
  O  O214  1  0.49661778  0.63667158  0.74815824  1
  O  O215  1  0.99141265  0.13558384  0.24458702  1
  O  O216  1  1.00511391  0.12277325  0.73356294  1
  O  O217  1  0.98772776  0.62903865  0.25544883  1
  O  O218  1  0.99912193  0.63367485  0.74395212  1
  O  O219  1  0.36312269  0.25903285  -0.00880842  1
  O  O220  1  0.36236737  0.24638692  0.50869232  1
  O  O221  1  0.37258813  0.75826638  0.00382694  1
  O  O222  1  0.38128223  0.76578055  0.51321329  1
  O  O223  1  0.86674735  0.25859298  0.00748528  1
  O  O224  1  0.86425853  0.25748941  0.49617571  1
  O  O225  1  0.87113114  0.75427601  0.01017161  1
  O  O226  1  0.87660257  0.75702380  0.50813902  1
  O  O227  1  0.13324323  0.24519007  0.49240265  1
  O  O228  1  0.13552684  0.24714923  0.99082751  1
  O  O229  1  0.13625727  0.80280181  0.48862533  1
  O  O230  1  0.13241826  0.75106071  0.99558647  1
  O  O231  1  0.63450133  0.25516416  0.48589378  1
  O  O232  1  0.63688983  0.25571093  0.99328943  1
  O  O233  1  0.62078372  0.72905121  0.51145308  1
  O  O234  1  0.63019362  0.74210934  0.99561017  1
  O  O235  1  0.50224344  0.23534667  0.12861363  1
  O  O236  1  0.48723879  0.24980456  0.62096086  1
  O  O237  1  0.49401200  0.73519161  0.12097838  1
  O  O238  1  0.48963437  0.74794256  0.63322200  1
  O  O239  1  0.98950217  0.25606818  0.12245107  1
  O  O240  1  0.98825458  0.24787679  0.61580835  1
  O  O241  1  0.98783353  0.75202955  0.13384331  1
  O  O242  1  0.99420591  0.74414685  0.63236868  1
  O  O243  1  0.00999106  0.26228991  0.37789007  1
  O  O244  1  0.01435096  0.25458231  0.88310677  1
  O  O245  1  0.00482780  0.74537522  0.36445174  1
  O  O246  1  0.00375380  0.75528870  0.86807588  1
  O  O247  1  0.50365622  0.25583883  0.36899196  1
  O  O248  1  0.51236983  0.25459167  0.87996640  1
  O  O249  1  0.50623269  0.74070425  0.38534156  1
  O  O250  1  0.50854775  0.74929165  0.86889241  1
  O  O251  1  0.24317193  0.13225918  0.49412133  1
  O  O252  1  0.24700062  0.13284781  0.99484825  1
  O  O253  1  0.25447107  0.62172302  0.48295866  1
  O  O254  1  0.25285019  0.63232611  0.98991567  1
  O  O255  1  0.75499035  0.14496511  0.48844902  1
  O  O256  1  0.75516791  0.13813924  0.99514073  1
  O  O257  1  0.73950404  0.62089140  0.49362483  1
  O  O258  1  0.74542638  0.62740554  0.99572361  1
  O  O259  1  0.25564541  0.36999343  0.00432086  1
  O  O260  1  0.24114220  0.36421678  0.51494974  1
  O  O261  1  0.26045587  0.87137304  0.00411316  1
  O  O262  1  0.26860538  0.88915039  0.51621051  1
  O  O263  1  0.75725100  0.37003141  0.00663512  1
  O  O264  1  0.74468968  0.36723729  0.51033167  1
  O  O265  1  0.75813457  0.86764691  0.01063336  1
  O  O266  1  0.76330350  0.87302381  0.49606979  1
  O  O267  1  0.13957201  0.50217797  0.25399214  1
  O  O268  1  0.12648464  0.49050624  0.75498152  1
  O  O269  1  0.13110243  0.99368474  0.24009383  1
  O  O270  1  0.13140090  0.99604085  0.74512353  1
  O  O271  1  0.62828763  0.48621769  0.25594948  1
  O  O272  1  0.63148445  0.50360038  0.74242315  1
  O  O273  1  0.61923391  0.98789894  0.23401656  1
  O  O274  1  0.63189756  0.99243487  0.74260169  1
  O  O275  1  0.35926035  -0.01166303  0.25202473  1
  O  O276  1  0.37348288  0.01166507  0.74857143  1
  O  O277  1  0.36848618  0.50608696  0.25955709  1
  O  O278  1  0.38136863  0.50133546  0.76543926  1
  O  O279  1  0.88371533  0.01680523  0.24694796  1
  O  O280  1  0.86981095  0.00050121  0.75145508  1
  O  O281  1  0.86834652  0.50782812  0.25728108  1
  O  O282  1  0.86656758  0.49648422  0.75772465  1
  O  O283  1  0.11944475  0.36675760  0.38052517  1
  O  O284  1  0.12689501  0.36849241  0.85873348  1
  O  O285  1  0.12079331  0.88191932  0.35324779  1
  O  O286  1  0.11772173  0.86861792  0.87170188  1
  O  O287  1  0.61270586  0.36886406  0.36590509  1
  O  O288  1  0.61399935  0.36456923  0.88057650  1
  O  O289  1  0.63091982  0.88044792  0.35434448  1
  O  O290  1  0.62478028  0.85897794  0.88515099  1
  O  O291  1  0.37829281  0.12424083  0.12818115  1
  O  O292  1  0.38049291  0.13370540  0.63052331  1
  O  O293  1  0.38153480  0.62764902  0.13231214  1
  O  O294  1  0.37339859  0.63642345  0.62692495  1
  O  O295  1  0.87588974  0.13660901  0.13258598  1
  O  O296  1  0.88400055  0.14392837  0.61544019  1
  O  O297  1  0.86537644  0.63337354  0.13795541  1
  O  O298  1  0.88791660  0.63344563  0.62611113  1
  O  O299  1  0.24369290  0.25923611  0.11229684  1
  O  O300  1  0.25524478  0.25240245  0.61682562  1
  O  O301  1  0.25878272  0.75496590  0.12049367  1
  O  O302  1  0.25925159  0.76312013  0.63431876  1
  O  O303  1  0.75666977  0.25991708  0.12028901  1
  O  O304  1  0.76179607  0.25195069  0.61227792  1
  O  O305  1  0.75933649  0.75562494  0.12172668  1
  O  O306  1  0.76404828  0.73621970  0.62420881  1
  O  O307  1  0.24510206  0.24666854  0.38173816  1
  O  O308  1  0.24225020  0.24595978  0.88283755  1
  O  O309  1  0.25315517  0.73306775  0.36964651  1
  O  O310  1  0.24524845  0.74434786  0.88041322  1
  O  O311  1  0.74313440  0.26085282  0.38239463  1
  O  O312  1  0.74022058  0.24376748  0.88333010  1
  O  O313  1  0.75424865  0.73489053  0.38238325  1
  O  O314  1  0.74361760  0.74230973  0.88079686  1
  O  O315  1  0.00905580  0.12172363  0.00533057  1
  O  O316  1  0.00528591  0.11911566  0.50639863  1
  O  O317  1  -0.00498105  0.60885933  -0.00597082  1
  O  O318  1  -0.00050207  0.61391411  0.50384988  1
  O  O319  1  0.49267809  0.11815237  0.01550700  1
  O  O320  1  0.48986930  0.11445681  0.50643666  1
  O  O321  1  0.50356383  0.61605657  0.00711810  1
  O  O322  1  0.50461650  0.60713473  0.50408774  1
  O  O323  1  0.50509164  0.38267796  0.48786100  1
  O  O324  1  0.49290898  0.37913503  0.99526870  1
  O  O325  1  0.48495236  0.89181100  0.50278401  1
  O  O326  1  0.49246188  0.88432904  1.00469005  1
  O  O327  1  1.00486386  0.39279597  0.49108593  1
  O  O328  1  0.98495093  0.38204621  0.99383001  1
  O  O329  1  0.99021666  0.88704721  0.49936767  1
  O  O330  1  0.99284822  0.87405927  0.99355967  1
  O  O331  1  0.49243599  0.49234211  0.38078924  1
  O  O332  1  0.49410022  0.49226077  0.88411990  1
  O  O333  1  0.49555458  1.01182882  0.38538878  1
  O  O334  1  0.50279528  1.00126850  0.88770591  1
  O  O335  1  0.99416381  0.49824985  0.38646788  1
  O  O336  1  0.98582489  0.49496322  0.88020693  1
  O  O337  1  0.99825667  1.00317130  0.38684116  1
  O  O338  1  1.00605207  0.98465071  0.87728081  1
  O  O339  1  0.01489246  -0.00141613  0.12287003  1
  O  O340  1  0.00473903  0.00892411  0.61549720  1
  O  O341  1  -0.00606128  0.49202995  0.10780300  1
  O  O342  1  -0.00512559  0.50724923  0.60996624  1
  O  O343  1  0.50585046  0.01584100  0.12222078  1
  O  O344  1  0.50263156  0.01227996  0.61308855  1
  O  O345  1  0.49173307  0.50873803  0.11483597  1
  O  O346  1  0.50397999  0.49258736  0.61906788  1
  O  O347  1  0.25848822  0.38269531  0.23736459  1
  O  O348  1  0.24004312  0.37293338  0.73852152  1
  O  O349  1  0.24154193  0.87933069  0.24391960  1
  O  O350  1  0.24685658  0.88173378  0.74439748  1
  O  O351  1  0.74138454  0.37828226  0.24276375  1
  O  O352  1  0.75131001  0.38402849  0.73839687  1
  O  O353  1  0.74445887  0.86758262  0.23902832  1
  O  O354  1  0.74966528  0.88136250  0.75249880  1
  O  O355  1  0.24354647  0.11361623  0.25913174  1
  O  O356  1  0.25873026  0.12088360  0.75250604  1
  O  O357  1  0.26175800  0.61519540  0.25537125  1
  O  O358  1  0.25077540  0.63049796  0.76683760  1
  O  O359  1  0.76915763  0.13627201  0.25326952  1
  O  O360  1  0.74853047  0.12742377  0.77422255  1
  O  O361  1  0.75519667  0.62071420  0.25922164  1
  O  O362  1  0.75206043  0.60906902  0.75547763  1
  O  O363  1  0.35744510  0.12452405  0.37917253  1
  O  O364  1  0.37106055  0.12648701  0.86452795  1
  O  O365  1  0.36667642  0.61443489  0.36825159  1
  O  O366  1  0.36831063  0.61631748  0.87571347  1
  O  O367  1  0.88122347  0.12987711  0.36041699  1
  O  O368  1  0.86568337  0.12842034  0.88169737  1
  O  O369  1  0.86558538  0.61586866  0.36811335  1
  O  O370  1  0.86685675  0.61337999  0.87318058  1
  O  O371  1  0.13675801  0.38455173  0.11618134  1
  O  O372  1  0.13583992  0.37033530  0.63673746  1
  O  O373  1  0.13074219  0.88167455  0.13085592  1
  O  O374  1  0.13338324  0.88228285  0.63406360  1
  O  O375  1  0.63335431  0.36796839  0.13209226  1
  O  O376  1  0.63294515  0.38403989  0.62223556  1
  O  O377  1  0.63443412  0.88043569  0.13160471  1
  O  O378  1  0.62844687  0.87472105  0.61446209  1
  O  O379  1  0.12738867  0.24684116  0.26329707  1
  O  O380  1  0.13044339  0.25301393  0.76028904  1
  O  O381  1  0.11572550  0.75612750  0.24077344  1
  O  O382  1  0.11576954  0.75613495  0.75629258  1
  O  O383  1  0.61517062  0.26355168  0.25605691  1
  O  O384  1  0.62833197  0.24833074  0.76750977  1
  O  O385  1  0.62043108  0.76300057  0.24451813  1
  O  O386  1  0.61887252  0.74758658  0.75886284  1
  O  O387  1  0.38974474  0.25497890  0.25261850  1
  O  O388  1  0.37173560  0.23991145  0.74034168  1
  O  O389  1  0.37887941  0.73988732  0.24458489  1
  O  O390  1  0.38292146  0.74969475  0.74336955  1
  O  O391  1  0.87949809  0.24843830  0.23992036  1
  O  O392  1  0.87293383  0.25213492  0.73563509  1
  O  O393  1  0.88271029  0.74169847  0.24623042  1
  O  O394  1  0.88540424  0.74881624  0.74377324  1
  O  O395  1  0.38330755  0.50307751  0.48931036  1
  O  O396  1  0.38495554  0.49193404  0.99122671  1
  O  O397  1  0.38287125  0.99195381  0.49664147  1
  O  O398  1  0.38459763  0.99224001  1.00071440  1
  O  O399  1  0.87636608  0.50496028  0.48998966  1
  O  O400  1  0.87784798  0.49238896  0.99124840  1
  O  O401  1  0.88356428  0.99240170  0.50217582  1
  O  O402  1  0.87727832  0.98402273  1.01430041  1
  O  O403  1  0.12927894  0.00575377  0.00925640  1
  O  O404  1  0.11673132  0.00288891  0.50535455  1
  O  O405  1  0.10351682  0.49418969  -0.00925601  1
  O  O406  1  0.11609933  0.50468732  0.49903695  1
  O  O407  1  0.61277003  -0.00737195  0.01854683  1
  O  O408  1  0.60756737  -0.00241787  0.49645280  1
  O  O409  1  0.61245815  0.50385843  -0.00532455  1
  O  O410  1  0.61562273  0.50253089  0.50776318  1
  O  O411  1  0.36666729  0.37877213  0.11002991  1
  O  O412  1  0.35933950  0.36341311  0.63358838  1
  O  O413  1  0.37211074  0.87053567  0.11617784  1
  O  O414  1  0.36953283  0.87008876  0.62310796  1
  O  O415  1  0.86519223  0.36890745  0.11876004  1
  O  O416  1  0.86633318  0.36280512  0.62417303  1
  O  O417  1  0.86872713  0.86467546  0.12221947  1
  O  O418  1  0.88328899  0.86181003  0.61487045  1
  O  O419  1  0.13233363  0.13487705  0.38042311  1
  O  O420  1  0.13067209  0.13112793  0.87920156  1
  O  O421  1  0.14081032  0.62623502  0.37064444  1
  O  O422  1  0.13200437  0.63015102  0.88225978  1
  O  O423  1  0.62559379  0.14235847  0.35814875  1
  O  O424  1  0.62489846  0.13714875  0.88047469  1
  O  O425  1  0.63523653  0.61252507  0.38555727  1
  O  O426  1  0.62902691  0.63264816  0.88265301  1
