# generated using pymatgen
data_V85Zn86O256
_symmetry_space_group_name_H-M   'P 1'
_cell_length_a   16.99768913
_cell_length_b   16.98614415
_cell_length_c   16.99233444
_cell_angle_alpha   90.01620928
_cell_angle_beta   90.00440901
_cell_angle_gamma   90.11891840
_symmetry_Int_Tables_number   1
_chemical_formula_structural   V85Zn86O256
_chemical_formula_sum   'V85 Zn86 O256'
_cell_volume   4906.10434082
_cell_formula_units_Z   1
loop_
 _symmetry_equiv_pos_site_id
 _symmetry_equiv_pos_as_xyz
  1  'x, y, z'
loop_
 _atom_site_type_symbol
 _atom_site_label
 _atom_site_symmetry_multiplicity
 _atom_site_fract_x
 _atom_site_fract_y
 _atom_site_fract_z
 _atom_site_occupancy
  V  V0  1  0.62309275  0.62821952  0.00336632  1
  V  V1  1  0.37497488  0.87497738  -0.00903985  1
  V  V2  1  0.37056426  0.50170514  0.36497701  1
  V  V3  1  0.37330210  0.87412033  0.49706520  1
  V  V4  1  0.87486602  0.25487633  0.12699040  1
  V  V5  1  -0.00003901  0.00030442  -0.00464565  1
  V  V6  1  0.00120535  0.25062772  0.25192399  1
  V  V7  1  0.49522887  0.62384994  0.12926926  1
  V  V8  1  0.74195695  0.00658903  0.75013616  1
  V  V9  1  0.74646295  0.88878224  0.12971458  1
  V  V10  1  0.13067569  0.37533567  0.75092832  1
  V  V11  1  0.37672133  0.74646325  0.62555996  1
  V  V12  1  0.87234350  0.00321935  0.36140805  1
  V  V13  1  0.62735952  0.50102605  0.12981580  1
  V  V14  1  0.61770180  0.37108144  0.74936558  1
  V  V15  1  0.12451708  0.51122894  0.62170282  1
  V  V16  1  0.87327122  0.74966640  0.64559290  1
  V  V17  1  0.11807800  0.75968881  0.86270174  1
  V  V18  1  0.62462163  0.62477357  0.49940845  1
  V  V19  1  0.00257872  0.37851989  0.37524462  1
  V  V20  1  0.13618976  0.49919811  0.13132203  1
  V  V21  1  0.87665439  0.50368132  0.37620404  1
  V  V22  1  0.12650467  0.00188549  0.12528001  1
  V  V23  1  0.74963432  0.60995164  0.87040451  1
  V  V24  1  0.75362454  0.24606697  0.49727854  1
  V  V25  1  -0.00952613  0.62714671  0.64456394  1
  V  V26  1  0.87463466  0.13196452  0.75117567  1
  V  V27  1  0.00027863  0.88324179  0.38134396  1
  V  V28  1  0.25981466  0.35767762  0.11976215  1
  V  V29  1  0.87528704  0.87692884  -0.00119991  1
  V  V30  1  -0.00143286  0.50215221  0.00122015  1
  V  V31  1  0.25042644  0.00275746  0.25388468  1
  V  V32  1  0.12855664  0.63558229  0.00079217  1
  V  V33  1  0.74961860  0.62773807  0.37572862  1
  V  V34  1  0.75922818  0.12497146  0.35881456  1
  V  V35  1  0.00252212  0.51246113  0.50124949  1
  V  V36  1  0.74095978  0.13454224  0.87733485  1
  V  V37  1  0.87491345  0.37846308  0.00369919  1
  V  V38  1  0.37971626  0.62383879  0.75032397  1
  V  V39  1  0.87675574  0.37675441  0.49864162  1
  V  V40  1  0.36725288  0.74865157  0.11978359  1
  V  V41  1  0.24669907  0.74027894  0.49904454  1
  V  V42  1  -0.00467505  0.12564958  0.13104450  1
  V  V43  1  0.62376795  0.75120007  0.37460747  1
  V  V44  1  0.62593413  0.88802868  0.24677063  1
  V  V45  1  0.24940887  0.63061112  0.87766740  1
  V  V46  1  0.87446245  0.75185392  0.12631982  1
  V  V47  1  0.62206613  0.00069122  0.62455467  1
  V  V48  1  0.50002239  0.87295925  0.37415257  1
  V  V49  1  0.49897473  -0.00061286  0.49390593  1
  V  V50  1  0.25066612  0.50482192  0.74836221  1
  V  V51  1  0.12482656  0.87605596  0.25122723  1
  V  V52  1  0.87595501  0.88194042  0.49977595  1
  V  V53  1  0.37075254  0.36392247  0.50958004  1
  V  V54  1  0.74471714  0.87678631  0.62584745  1
  V  V55  1  -0.00091891  0.75169151  0.25219031  1
  V  V56  1  0.25724944  0.12511430  0.88784228  1
  V  V57  1  0.49625541  0.50070473  0.50343166  1
  V  V58  1  0.87970945  0.25046556  0.62418598  1
  V  V59  1  0.49332765  0.74678293  0.24983487  1
  V  V60  1  0.25313229  0.62301017  0.36182131  1
  V  V61  1  0.12394668  0.74311785  0.37999072  1
  V  V62  1  0.74842669  0.74891482  0.00203418  1
  V  V63  1  0.50949119  0.23734474  0.75900005  1
  V  V64  1  0.49349447  0.13230850  0.61741223  1
  V  V65  1  0.13182397  0.25247923  0.38603138  1
  V  V66  1  0.24292378  0.87933081  0.62954311  1
  V  V67  1  0.13391926  0.25086499  0.88331839  1
  V  V68  1  0.74949980  0.37681341  0.62556612  1
  V  V69  1  0.75174361  0.49821334  0.24835216  1
  V  V70  1  0.62727928  0.49850290  0.62441897  1
  V  V71  1  0.00248123  0.24885056  0.74922496  1
  V  V72  1  0.62918772  0.24849397  0.37258041  1
  V  V73  1  0.87517385  0.00237958  0.87459311  1
  V  V74  1  0.37981415  0.13405840  0.24263768  1
  V  V75  1  0.00416027  0.37619592  0.87730799  1
  V  V76  1  0.51091370  -0.00232752  0.00161774  1
  V  V77  1  0.24588006  0.36130846  0.62049878  1
  V  V78  1  0.87442088  0.62759300  0.25102032  1
  V  V79  1  0.00033434  0.62675209  0.12645401  1
  V  V80  1  0.74949427  0.75176837  0.50093069  1
  V  V81  1  0.74999356  0.25601004  -0.00749563  1
  V  V82  1  0.36932639  0.13405992  0.74164209  1
  V  V83  1  0.12440682  0.10606057  0.50562971  1
  V  V84  1  0.62547249  0.37797253  0.25273084  1
  Zn  Zn85  1  0.25631339  0.13490265  0.38155180  1
  Zn  Zn86  1  0.49537038  0.48900923  -0.00014655  1
  Zn  Zn87  1  0.62437472  0.12364162  0.49296609  1
  Zn  Zn88  1  0.61646612  0.75473903  0.86855256  1
  Zn  Zn89  1  0.13393181  0.37998925  0.25414984  1
  Zn  Zn90  1  0.39605113  0.24320007  0.09754935  1
  Zn  Zn91  1  0.88411400  0.51491497  0.84622783  1
  Zn  Zn92  1  0.38907021  -0.00583240  0.86429471  1
  Zn  Zn93  1  0.37531936  0.00263798  0.36966034  1
  Zn  Zn94  1  -0.04938673  0.82400511  0.81863011  1
  Zn  Zn95  1  0.61846748  0.12997900  0.01115560  1
  Zn  Zn96  1  0.49262508  0.36830375  0.88718044  1
  Zn  Zn97  1  0.07828375  -0.05717020  0.68583536  1
  Zn  Zn98  1  0.50646465  0.62768633  0.62995965  1
  Zn  Zn99  1  0.50164741  0.77109075  0.75818288  1
  Zn  Zn100  1  0.24589895  0.86839455  0.12157720  1
  Zn  Zn101  1  0.24655914  0.00009355  0.75287923  1
  Zn  Zn102  1  0.13077908  0.13084089  0.00577750  1
  Zn  Zn103  1  0.50625760  0.24552910  0.24502423  1
  Zn  Zn104  1  0.49372697  0.37109272  0.37578846  1
  Zn  Zn105  1  0.00100551  0.10355964  0.61624140  1
  Zn  Zn106  1  0.37844464  0.49418869  0.88111287  1
  Zn  Zn107  1  0.18727447  0.18779668  0.19346231  1
  Zn  Zn108  1  0.18017749  0.17863102  0.68977084  1
  Zn  Zn109  1  0.18516610  0.68581245  0.19037074  1
  Zn  Zn110  1  0.18544299  0.69107675  0.68789466  1
  Zn  Zn111  1  0.69330999  0.19415994  0.18273919  1
  Zn  Zn112  1  0.68732849  0.18572802  0.68119249  1
  Zn  Zn113  1  0.68503056  0.69333039  0.18982237  1
  Zn  Zn114  1  0.68768295  0.68631890  0.69192084  1
  Zn  Zn115  1  0.31054862  0.32205942  0.30738041  1
  Zn  Zn116  1  0.31777799  0.31942396  0.93464268  1
  Zn  Zn117  1  0.30966339  0.81237846  0.30919497  1
  Zn  Zn118  1  0.30932997  0.80663369  0.81162453  1
  Zn  Zn119  1  0.81621806  0.31509321  0.31094639  1
  Zn  Zn120  1  0.82296860  0.34150532  0.80357013  1
  Zn  Zn121  1  0.81014108  0.81731693  0.31200881  1
  Zn  Zn122  1  0.76627575  0.82970178  0.82732589  1
  Zn  Zn123  1  0.18908988  0.44002330  0.44019838  1
  Zn  Zn124  1  0.18799901  0.44430497  0.94261702  1
  Zn  Zn125  1  0.18871370  0.93285792  0.43854060  1
  Zn  Zn126  1  0.19305333  0.93841195  0.93910263  1
  Zn  Zn127  1  0.68941671  0.43770303  0.43725151  1
  Zn  Zn128  1  0.66852529  0.42875210  0.94664327  1
  Zn  Zn129  1  0.68818292  0.94201525  0.43250020  1
  Zn  Zn130  1  0.69151512  0.94078292  0.94292408  1
  Zn  Zn131  1  0.32254398  0.05549588  0.06524560  1
  Zn  Zn132  1  0.30795080  0.06591638  0.55858895  1
  Zn  Zn133  1  0.31644929  0.56029950  0.05765099  1
  Zn  Zn134  1  0.31425879  0.55936734  0.56064809  1
  Zn  Zn135  1  0.81331088  0.06993433  0.06384585  1
  Zn  Zn136  1  0.81687455  0.06447817  0.56067863  1
  Zn  Zn137  1  0.81194373  0.56393562  0.06230409  1
  Zn  Zn138  1  0.81342430  0.56574302  0.56592052  1
  Zn  Zn139  1  0.43906791  0.43032126  0.18344407  1
  Zn  Zn140  1  0.37929787  0.36199160  0.73942491  1
  Zn  Zn141  1  0.43477589  0.93333817  0.18450458  1
  Zn  Zn142  1  0.42842465  0.94489656  0.68331598  1
  Zn  Zn143  1  0.94303493  0.43827547  0.18868299  1
  Zn  Zn144  1  0.94040797  0.43695769  0.68704163  1
  Zn  Zn145  1  0.93807741  0.93598876  0.18632824  1
  Zn  Zn146  1  0.92000297  0.94249478  0.68552712  1
  Zn  Zn147  1  0.06300137  0.06685031  0.31641205  1
  Zn  Zn148  1  0.06738731  0.06541561  0.81610740  1
  Zn  Zn149  1  0.06387309  0.56527021  0.31248828  1
  Zn  Zn150  1  0.06749060  0.56458919  0.81520365  1
  Zn  Zn151  1  0.56063278  0.06478465  0.17646602  1
  Zn  Zn152  1  0.56614884  -0.07214935  0.81811225  1
  Zn  Zn153  1  0.55774863  0.56288297  0.31561736  1
  Zn  Zn154  1  0.56312887  0.55916616  0.81625585  1
  Zn  Zn155  1  0.43988163  0.18552180  0.42680241  1
  Zn  Zn156  1  0.44557422  0.17634006  0.93329082  1
  Zn  Zn157  1  0.43591140  0.68386237  0.43765172  1
  Zn  Zn158  1  0.43921943  0.68717978  0.93662867  1
  Zn  Zn159  1  0.94277045  0.18444970  0.43678041  1
  Zn  Zn160  1  0.93848369  0.18809214  0.93865516  1
  Zn  Zn161  1  0.93498869  0.69321401  0.44217876  1
  Zn  Zn162  1  0.93472937  0.68521769  0.93713902  1
  Zn  Zn163  1  0.06396636  0.31606095  0.06505862  1
  Zn  Zn164  1  0.06269982  0.31922361  0.56382806  1
  Zn  Zn165  1  0.06030250  0.81631251  0.06044718  1
  Zn  Zn166  1  0.05667267  0.80538686  0.56521572  1
  Zn  Zn167  1  0.56331196  0.31390085  0.06476056  1
  Zn  Zn168  1  0.56215388  0.31474420  0.55636344  1
  Zn  Zn169  1  0.55972490  0.81585006  0.06501395  1
  Zn  Zn170  1  0.56143740  0.81281964  0.56644987  1
  O  O171  1  0.11704629  0.11754925  0.12476600  1
  O  O172  1  0.12343328  0.12389961  0.60943927  1
  O  O173  1  0.12113997  0.61907838  0.11988558  1
  O  O174  1  0.11103731  0.61710289  0.63316095  1
  O  O175  1  0.63781773  0.12214770  0.12166391  1
  O  O176  1  0.61779820  0.11362926  0.61725412  1
  O  O177  1  0.61598629  0.62134847  0.12522713  1
  O  O178  1  0.62882707  0.61391435  0.61769743  1
  O  O179  1  0.37074262  0.38756660  0.38651166  1
  O  O180  1  0.37944898  0.37737720  0.85459569  1
  O  O181  1  0.37907100  0.87267066  0.38417931  1
  O  O182  1  0.36655916  0.87142891  0.88771297  1
  O  O183  1  0.88228367  0.38460102  0.37953031  1
  O  O184  1  0.88855384  0.37286563  0.89583899  1
  O  O185  1  0.88022594  0.88221456  0.38041953  1
  O  O186  1  0.86488745  0.88246699  0.88081156  1
  O  O187  1  0.25056760  -0.00398485  0.36178396  1
  O  O188  1  0.25243954  0.01683685  0.87435524  1
  O  O189  1  0.26126268  0.50842803  0.38064877  1
  O  O190  1  0.24217174  0.51244283  0.86270686  1
  O  O191  1  0.75899505  0.01313438  0.37828546  1
  O  O192  1  0.75517182  0.01302914  0.86824603  1
  O  O193  1  0.75665263  0.50817284  0.36906768  1
  O  O194  1  0.74191408  0.51018970  0.88949855  1
  O  O195  1  0.23658551  0.50446405  0.12199360  1
  O  O196  1  0.23804476  0.50448939  0.62945684  1
  O  O197  1  0.23767643  1.00311872  0.13402269  1
  O  O198  1  0.25420047  0.97984761  0.61840534  1
  O  O199  1  0.74225104  0.51191595  0.14075569  1
  O  O200  1  0.73994135  0.48776275  0.61294858  1
  O  O201  1  0.75676515  0.98721268  0.11894845  1
  O  O202  1  0.74230292  0.99913601  0.62806244  1
  O  O203  1  0.00735810  0.37016729  0.25725984  1
  O  O204  1  0.01235033  0.36764293  0.75680715  1
  O  O205  1  0.00455107  0.86978921  0.26035507  1
  O  O206  1  -0.00239887  0.88160402  0.74007043  1
  O  O207  1  0.51584820  0.37850976  0.25736464  1
  O  O208  1  0.50932557  0.35297285  0.74375069  1
  O  O209  1  0.50503659  0.86560727  0.25459752  1
  O  O210  1  0.49991812  0.88311582  0.73987086  1
  O  O211  1  0.48158689  0.12111660  0.24521225  1
  O  O212  1  0.49355987  0.13252402  0.73625737  1
  O  O213  1  0.50364955  0.63456119  0.24150044  1
  O  O214  1  0.48432118  0.61632132  0.74726254  1
  O  O215  1  1.00573079  0.13618769  0.24153811  1
  O  O216  1  0.99524144  0.13890790  0.75137841  1
  O  O217  1  0.99385473  0.63219668  0.24649178  1
  O  O218  1  0.99002492  0.61205689  0.74382233  1
  O  O219  1  0.39589126  0.25940210  -0.01240548  1
  O  O220  1  0.38039056  0.26727433  0.48962846  1
  O  O221  1  0.37885284  0.75902529  0.01262871  1
  O  O222  1  0.36773185  0.75524064  0.50470014  1
  O  O223  1  0.87651681  0.26020850  0.00886467  1
  O  O224  1  0.87147756  0.25612081  0.50257624  1
  O  O225  1  0.86844301  0.75568853  0.00674815  1
  O  O226  1  0.86506944  0.76248626  0.50238581  1
  O  O227  1  0.12330275  0.25871132  0.48671736  1
  O  O228  1  0.11452838  0.24881307  0.98682176  1
  O  O229  1  0.13334306  0.75515888  0.48829938  1
  O  O230  1  0.12062792  0.73874547  0.99962666  1
  O  O231  1  0.63749527  0.25262864  0.48976685  1
  O  O232  1  0.65013910  0.25244889  1.00700397  1
  O  O233  1  0.62911504  0.74603118  0.49576135  1
  O  O234  1  0.63328472  0.74196062  1.00731844  1
  O  O235  1  0.50321214  0.25457121  0.13350513  1
  O  O236  1  0.50764799  0.23383378  0.61734472  1
  O  O237  1  0.49209001  0.74247092  0.13292505  1
  O  O238  1  0.48521256  0.74683583  0.62223517  1
  O  O239  1  0.99851321  0.24475854  0.13213300  1
  O  O240  1  0.99749644  0.25786217  0.63810802  1
  O  O241  1  0.99497521  0.74735795  0.13202568  1
  O  O242  1  0.98595756  0.73786941  0.62357786  1
  O  O243  1  0.00745558  0.25818424  0.36895813  1
  O  O244  1  0.00807866  0.25523268  0.86683208  1
  O  O245  1  0.00679008  0.75582713  0.37183546  1
  O  O246  1  0.01046039  0.74946799  0.88001361  1
  O  O247  1  0.51596520  0.25132050  0.36761643  1
  O  O248  1  0.51191987  0.24201127  0.85933296  1
  O  O249  1  0.50216464  0.75295093  0.36900514  1
  O  O250  1  0.50239974  0.75129300  0.87286532  1
  O  O251  1  0.23327965  0.12179006  0.49460500  1
  O  O252  1  0.25676785  0.12196621  0.98999552  1
  O  O253  1  0.25489274  0.63710174  0.49243728  1
  O  O254  1  0.23865263  0.61740655  0.98864508  1
  O  O255  1  0.75136632  0.13813035  0.49608486  1
  O  O256  1  0.76280646  0.14273535  0.99163678  1
  O  O257  1  0.74468641  0.63108165  0.49436259  1
  O  O258  1  0.74171989  0.63382078  1.00339223  1
  O  O259  1  0.24914968  0.37806034  0.01184065  1
  O  O260  1  0.26248564  0.38228387  0.50856859  1
  O  O261  1  0.26798700  0.88367342  0.00875218  1
  O  O262  1  0.25753828  0.86304895  0.50384479  1
  O  O263  1  0.76199172  0.36621401  -0.00439432  1
  O  O264  1  0.75621877  0.36585033  0.50449635  1
  O  O265  1  0.75569024  0.86637921  0.01053373  1
  O  O266  1  0.75435730  0.87237575  0.50700503  1
  O  O267  1  0.11983293  0.50244509  0.23431834  1
  O  O268  1  0.13176259  0.49695435  0.74241045  1
  O  O269  1  0.12932596  0.99760814  0.24427299  1
  O  O270  1  0.13634373  1.01626785  0.74542455  1
  O  O271  1  0.63314539  0.49881236  0.25038919  1
  O  O272  1  0.61420454  0.48326810  0.73308698  1
  O  O273  1  0.61287752  0.98538574  0.24928206  1
  O  O274  1  0.63654379  1.00415111  0.73892320  1
  O  O275  1  0.36433886  0.00734011  0.24575315  1
  O  O276  1  0.36732932  0.01575715  0.75027898  1
  O  O277  1  0.38180111  0.49153686  0.26757706  1
  O  O278  1  0.35754817  0.50990138  0.74776035  1
  O  O279  1  0.87716128  -0.00397238  0.26212220  1
  O  O280  1  0.85941677  0.01322812  0.75464277  1
  O  O281  1  0.87037971  0.50647049  0.25477464  1
  O  O282  1  0.86085490  0.44886162  0.76255546  1
  O  O283  1  0.12160020  0.37009151  0.37453462  1
  O  O284  1  0.12517838  0.37011739  0.87114987  1
  O  O285  1  0.11713735  0.86617539  0.37128445  1
  O  O286  1  0.13486912  0.85667599  0.88358623  1
  O  O287  1  0.62782799  0.36672203  0.36968898  1
  O  O288  1  0.63378558  0.37607991  0.84632266  1
  O  O289  1  0.62022998  0.86963187  0.36852660  1
  O  O290  1  0.65515310  0.86866256  0.86366002  1
  O  O291  1  0.36162537  0.13479086  0.13844659  1
  O  O292  1  0.38221261  0.11974201  0.62879409  1
  O  O293  1  0.38455047  0.63738242  0.11783698  1
  O  O294  1  0.37237254  0.63301936  0.63172245  1
  O  O295  1  0.88858217  0.13709481  0.12277713  1
  O  O296  1  0.87890088  0.13392019  0.63163932  1
  O  O297  1  0.88101902  0.63176063  0.13151161  1
  O  O298  1  0.87669886  0.63731616  0.62670063  1
  O  O299  1  0.24251743  0.25800616  0.11906355  1
  O  O300  1  0.23461958  0.26389070  0.62808738  1
  O  O301  1  0.26439822  0.74557219  0.13174073  1
  O  O302  1  0.25651225  0.75440883  0.61667371  1
  O  O303  1  0.76968597  0.24920279  0.11326234  1
  O  O304  1  0.75689117  0.25493762  0.61299230  1
  O  O305  1  0.75640619  0.75359058  0.11822554  1
  O  O306  1  0.75407277  0.75840109  0.62187526  1
  O  O307  1  0.23290051  0.25563907  0.36759842  1
  O  O308  1  0.24297361  0.23995790  0.87932284  1
  O  O309  1  0.24408125  0.74399466  0.37974428  1
  O  O310  1  0.23685846  0.73667062  0.87033962  1
  O  O311  1  0.75312035  0.24685165  0.38159546  1
  O  O312  1  0.76220524  0.24983528  0.88668667  1
  O  O313  1  0.74368349  0.74681679  0.38010782  1
  O  O314  1  0.74877662  0.73570258  0.89320119  1
  O  O315  1  0.00192182  0.11590667  0.01143388  1
  O  O316  1  0.01877180  0.13266808  0.50121314  1
  O  O317  1  0.00642239  0.61932208  0.00664286  1
  O  O318  1  -0.00722123  0.61509054  0.50819969  1
  O  O319  1  0.50253727  0.10463348  -0.00160244  1
  O  O320  1  0.49860582  0.11532883  0.50051329  1
  O  O321  1  0.51048482  0.62699386  0.01385530  1
  O  O322  1  0.50671397  0.61817210  0.50195316  1
  O  O323  1  0.48716691  0.38240563  0.49879859  1
  O  O324  1  0.55478553  0.38773060  0.98253711  1
  O  O325  1  0.49130568  0.87866880  0.49683680  1
  O  O326  1  0.48512908  0.87983950  1.00680835  1
  O  O327  1  0.99459711  0.38835903  0.49571045  1
  O  O328  1  0.99872681  0.38656464  0.99782777  1
  O  O329  1  0.98923997  0.86466927  0.48850252  1
  O  O330  1  0.99097460  0.89102402  1.00735282  1
  O  O331  1  0.48849731  0.50025920  0.38581483  1
  O  O332  1  0.49827330  0.49305324  0.87862712  1
  O  O333  1  0.49606203  0.98952920  0.38872878  1
  O  O334  1  0.50093326  0.98749975  0.89296894  1
  O  O335  1  0.99732003  0.50030159  0.38278238  1
  O  O336  1  1.00164499  0.49733403  0.88643202  1
  O  O337  1  0.99395241  0.98838276  0.37116528  1
  O  O338  1  0.99329580  1.01115491  0.88783352  1
  O  O339  1  0.00682052  0.00793584  0.12221179  1
  O  O340  1  -0.00372008  -0.00714392  0.62052016  1
  O  O341  1  0.00950449  0.50718034  0.11857388  1
  O  O342  1  0.00330221  0.50722886  0.61980741  1
  O  O343  1  0.49457784  -0.00413127  0.11179581  1
  O  O344  1  0.50513108  0.00790178  0.61209936  1
  O  O345  1  0.50884255  0.50891288  0.12879686  1
  O  O346  1  0.51294502  0.50326390  0.60963778  1
  O  O347  1  0.24579883  0.37393277  0.22775922  1
  O  O348  1  0.24800439  0.38907025  0.73524472  1
  O  O349  1  0.24279261  0.88332163  0.24528947  1
  O  O350  1  0.25779946  0.87400555  0.73208900  1
  O  O351  1  0.74389085  0.39097423  0.25802006  1
  O  O352  1  0.73157799  0.35713376  0.72927940  1
  O  O353  1  0.73878389  0.87000004  0.24167917  1
  O  O354  1  0.75748942  0.89320681  0.73246677  1
  O  O355  1  0.25469366  0.11722287  0.25658880  1
  O  O356  1  0.26168619  0.13343291  0.75516798  1
  O  O357  1  0.25236541  0.62823743  0.26270788  1
  O  O358  1  0.25470796  0.62169921  0.75518388  1
  O  O359  1  0.75904494  0.13797715  0.26114578  1
  O  O360  1  0.75330693  0.12520805  0.75599312  1
  O  O361  1  0.75488538  0.62074928  0.25715083  1
  O  O362  1  0.74217724  0.62021795  0.77150463  1
  O  O363  1  0.37069293  0.12012118  0.36322599  1
  O  O364  1  0.36479824  0.12616939  0.86348327  1
  O  O365  1  0.36864726  0.61083474  0.37897984  1
  O  O366  1  0.36369500  0.62619900  0.86640137  1
  O  O367  1  0.87112241  0.11412520  0.38246002  1
  O  O368  1  0.86960648  0.12283298  0.86809030  1
  O  O369  1  0.87039356  0.62294720  0.37070343  1
  O  O370  1  0.85797526  0.61722702  0.88680340  1
  O  O371  1  0.13220016  0.39066325  0.12207005  1
  O  O372  1  0.12953178  0.38925793  0.63017457  1
  O  O373  1  0.12368642  0.88531123  0.13143792  1
  O  O374  1  0.13968788  0.86553204  0.61917319  1
  O  O375  1  0.62546735  0.39345942  0.13996431  1
  O  O376  1  0.63116157  0.38076095  0.62270624  1
  O  O377  1  0.63532997  0.86720264  0.13511145  1
  O  O378  1  0.63483865  0.88785111  0.61621067  1
  O  O379  1  0.11388218  0.25353465  0.25992172  1
  O  O380  1  0.11982577  0.25395641  0.76063338  1
  O  O381  1  0.11953434  0.75562109  0.25896520  1
  O  O382  1  0.12267068  0.75014823  0.76314134  1
  O  O383  1  0.63505848  0.26407950  0.25705775  1
  O  O384  1  0.61459129  0.25495568  0.73589590  1
  O  O385  1  0.61246196  0.75574492  0.25698021  1
  O  O386  1  0.61447763  0.74242932  0.75130895  1
  O  O387  1  0.37560103  0.23751638  0.25826043  1
  O  O388  1  0.39756312  0.24205876  0.74338739  1
  O  O389  1  0.38592170  0.75644624  0.23937763  1
  O  O390  1  0.37417523  0.74002137  0.74010234  1
  O  O391  1  0.89047836  0.26150144  0.24100594  1
  O  O392  1  0.88466836  0.25233617  0.74526750  1
  O  O393  1  0.87939715  0.74661329  0.24721560  1
  O  O394  1  0.86617765  0.76300436  0.74428049  1
  O  O395  1  0.38266060  0.49211661  0.49677179  1
  O  O396  1  0.38170974  0.49654415  0.99656746  1
  O  O397  1  0.38079074  0.98809139  0.50001037  1
  O  O398  1  0.38394908  0.98716874  0.99646976  1
  O  O399  1  0.88199049  0.49741827  0.49533975  1
  O  O400  1  0.88804583  0.49464054  1.00992844  1
  O  O401  1  0.87004148  0.98568291  0.49384973  1
  O  O402  1  0.88131227  0.99758028  0.99512558  1
  O  O403  1  0.11778495  0.00098651  0.01007210  1
  O  O404  1  0.12160857  0.00702982  0.49230941  1
  O  O405  1  0.11516756  0.51141533  0.00956059  1
  O  O406  1  0.11448430  0.49770451  0.51102463  1
  O  O407  1  0.61391287  -0.00626814  0.00431163  1
  O  O408  1  0.61543154  0.00084099  0.50497768  1
  O  O409  1  0.63360237  0.51690651  0.01936005  1
  O  O410  1  0.61812805  0.50353450  0.50186359  1
  O  O411  1  0.36340071  0.36467361  0.12781361  1
  O  O412  1  0.36333935  0.37170705  0.61696773  1
  O  O413  1  0.37194856  0.85961360  0.11963966  1
  O  O414  1  0.36565530  0.86476009  0.61326069  1
  O  O415  1  0.88702406  0.36783062  0.11492494  1
  O  O416  1  0.86736956  0.36937820  0.61646617  1
  O  O417  1  0.86752461  0.86959377  0.12160739  1
  O  O418  1  0.86241065  0.86688156  0.61495061  1
  O  O419  1  0.12385225  0.14034525  0.38473961  1
  O  O420  1  0.14121603  0.13369495  0.87979941  1
  O  O421  1  0.13317182  0.63660961  0.37108088  1
  O  O422  1  0.12847648  0.63562947  0.88271656  1
  O  O423  1  0.64313622  0.14226796  0.37602533  1
  O  O424  1  0.64342567  0.12718757  0.88966978  1
  O  O425  1  0.62950859  0.63138450  0.38008193  1
  O  O426  1  0.63309471  0.62365975  0.89083552  1
