# generated using pymatgen
data_V85Zn86O256
_symmetry_space_group_name_H-M   'P 1'
_cell_length_a   16.97150511
_cell_length_b   16.96644154
_cell_length_c   16.96717999
_cell_angle_alpha   89.99900938
_cell_angle_beta   89.91135828
_cell_angle_gamma   89.98098839
_symmetry_Int_Tables_number   1
_chemical_formula_structural   V85Zn86O256
_chemical_formula_sum   'V85 Zn86 O256'
_cell_volume   4885.62632739
_cell_formula_units_Z   1
loop_
 _symmetry_equiv_pos_site_id
 _symmetry_equiv_pos_as_xyz
  1  'x, y, z'
loop_
 _atom_site_type_symbol
 _atom_site_label
 _atom_site_symmetry_multiplicity
 _atom_site_fract_x
 _atom_site_fract_y
 _atom_site_fract_z
 _atom_site_occupancy
  V  V0  1  0.00242046  0.24726148  0.74776669  1
  V  V1  1  -0.00408195  0.87761920  0.87424752  1
  V  V2  1  0.49414718  0.87461231  0.35726254  1
  V  V3  1  0.75119232  -0.00007444  0.25324607  1
  V  V4  1  0.50331092  0.24744653  0.25171626  1
  V  V5  1  0.12542332  0.49845827  0.62386434  1
  V  V6  1  0.49614173  0.75489521  0.74688824  1
  V  V7  1  0.38023210  0.38248938  0.49379075  1
  V  V8  1  0.37272857  0.25581081  0.12731327  1
  V  V9  1  -0.00200068  0.75119151  0.74718916  1
  V  V10  1  0.75061019  0.00448727  0.75691780  1
  V  V11  1  0.12512082  0.12621412  0.00364251  1
  V  V12  1  0.74651576  0.62558492  0.87219711  1
  V  V13  1  0.24177367  0.62546525  0.87903106  1
  V  V14  1  0.50139572  0.38176434  0.37573552  1
  V  V15  1  0.13008228  0.37650761  0.24357497  1
  V  V16  1  0.37420438  0.37653744  0.00483711  1
  V  V17  1  0.25072701  0.12626248  0.87982036  1
  V  V18  1  0.23782479  0.90540085  0.59301195  1
  V  V19  1  0.87572063  0.37638260  0.00053423  1
  V  V20  1  0.49841559  0.87758138  0.87180237  1
  V  V21  1  0.75232443  0.24661514  0.00003686  1
  V  V22  1  0.86842996  0.62133818  0.74556728  1
  V  V23  1  -0.00228881  0.62321852  0.62109576  1
  V  V24  1  0.24181307  0.74421786  0.00247135  1
  V  V25  1  0.50521652  0.62553120  0.61641549  1
  V  V26  1  0.49863688  0.11882907  0.62560098  1
  V  V27  1  0.39386364  0.62146643  0.24953990  1
  V  V28  1  0.62858232  0.50913531  0.12702822  1
  V  V29  1  0.50162391  0.00075528  -0.00059119  1
  V  V30  1  0.12822381  0.87624942  0.74908095  1
  V  V31  1  0.74957385  0.75139780  -0.00467656  1
  V  V32  1  0.01392650  0.11132393  0.61462729  1
  V  V33  1  0.25346167  0.74190161  0.49769565  1
  V  V34  1  0.24911203  0.87045673  0.12764356  1
  V  V35  1  0.00134792  0.12470724  0.12857333  1
  V  V36  1  0.62278131  0.88157973  0.74364461  1
  V  V37  1  0.62574665  -0.00236460  0.12940191  1
  V  V38  1  0.62957337  0.24325142  0.37672325  1
  V  V39  1  0.37375654  0.25022778  0.62500546  1
  V  V40  1  0.85468911  0.49727501  0.36812149  1
  V  V41  1  0.87231444  0.75288695  0.61215644  1
  V  V42  1  0.74941455  0.88357676  0.61483816  1
  V  V43  1  0.00544937  0.62465625  0.12363219  1
  V  V44  1  0.87633372  0.25153923  0.12640808  1
  V  V45  1  0.24586947  -0.00152431  0.75694254  1
  V  V46  1  0.74890352  0.25604824  0.51248400  1
  V  V47  1  0.37304343  0.62765686  0.74860153  1
  V  V48  1  -0.01161989  0.88405357  0.39128452  1
  V  V49  1  0.87007087  0.49937940  0.87018954  1
  V  V50  1  0.12413090  0.62050563  0.49406080  1
  V  V51  1  0.37717247  0.50204632  0.87520799  1
  V  V52  1  0.36642165  0.75722932  0.61901238  1
  V  V53  1  0.63572028  0.37636965  0.25019392  1
  V  V54  1  0.25472850  0.49668049  0.23995836  1
  V  V55  1  0.48004376  -0.00646859  0.49641261  1
  V  V56  1  0.24583046  0.24913291  0.49726311  1
  V  V57  1  0.37118676  0.12056547  0.25833996  1
  V  V58  1  0.73434292  0.73726275  0.49612235  1
  V  V59  1  0.63054607  0.12606049  -0.00382361  1
  V  V60  1  0.12537014  0.25316179  0.87593031  1
  V  V61  1  0.25472934  0.61465335  0.36909850  1
  V  V62  1  0.25092813  0.25373154  0.00488129  1
  V  V63  1  0.50244640  0.37802987  0.87439470  1
  V  V64  1  0.87463095  0.74654364  0.12807081  1
  V  V65  1  0.62092926  0.11390906  0.50596338  1
  V  V66  1  0.25268146  0.37765313  0.62483065  1
  V  V67  1  0.76383165  0.10580412  0.39638554  1
  V  V68  1  0.62999023  0.48225485  0.62668837  1
  V  V69  1  0.11623300  0.87097631  0.25090059  1
  V  V70  1  -0.00235868  0.49020346  0.48645301  1
  V  V71  1  0.61980632  0.74857516  0.35636543  1
  V  V72  1  0.12499919  0.24920997  0.37539587  1
  V  V73  1  0.50194390  0.25390554  0.75039340  1
  V  V74  1  0.87634549  0.12273057  0.25589495  1
  V  V75  1  0.74897668  0.87514614  0.12938925  1
  V  V76  1  0.12613917  -0.00147249  0.12708927  1
  V  V77  1  -0.00019260  0.00003431  0.00033195  1
  V  V78  1  0.50138523  0.12581824  0.12628403  1
  V  V79  1  0.24947681  0.50138359  0.74922767  1
  V  V80  1  0.62874769  0.25348557  0.87449822  1
  V  V81  1  0.00361952  0.50679970  -0.00027880  1
  V  V82  1  0.00001650  0.25856895  0.25727081  1
  V  V83  1  0.38925881  0.74342021  0.12819800  1
  V  V84  1  0.37518121  0.00153349  0.88065819  1
  Zn  Zn85  1  0.76626760  0.39098624  0.66667197  1
  Zn  Zn86  1  0.87414461  0.37429672  0.50358055  1
  Zn  Zn87  1  0.61677677  0.62746276  0.00207987  1
  Zn  Zn88  1  0.37267225  0.12554874  0.75202593  1
  Zn  Zn89  1  0.49784349  0.51108265  0.01203775  1
  Zn  Zn90  1  -0.00568859  0.74414857  0.25834606  1
  Zn  Zn91  1  0.86712268  0.01139836  0.88234370  1
  Zn  Zn92  1  0.37605242  0.87151349  0.00318358  1
  Zn  Zn93  1  0.12696169  0.37561514  0.74983114  1
  Zn  Zn94  1  0.25622788  -0.00812865  0.25499099  1
  Zn  Zn95  1  0.86440680  0.61735097  0.25150259  1
  Zn  Zn96  1  0.00183133  0.37830917  0.87244111  1
  Zn  Zn97  1  0.24589999  0.11700542  0.38336681  1
  Zn  Zn98  1  0.12124966  0.74830996  0.37406945  1
  Zn  Zn99  1  0.61952797  0.74962814  0.87332230  1
  Zn  Zn100  1  0.87749008  0.12489647  0.75229205  1
  Zn  Zn101  1  0.11839154  0.74552088  0.87942839  1
  Zn  Zn102  1  0.87450857  0.87750611  -0.00110457  1
  Zn  Zn103  1  0.13167701  0.49956722  0.11686163  1
  Zn  Zn104  1  0.75472671  0.38019576  0.13379941  1
  Zn  Zn105  1  0.88010856  0.25067548  0.62784933  1
  Zn  Zn106  1  0.50288382  0.51706176  0.48451961  1
  Zn  Zn107  1  0.18833414  0.18996400  0.18919092  1
  Zn  Zn108  1  0.18628683  0.18306663  0.68744744  1
  Zn  Zn109  1  0.18719365  0.68603250  0.18871898  1
  Zn  Zn110  1  0.18344671  0.68557995  0.68754823  1
  Zn  Zn111  1  0.69238699  0.18468001  0.18859234  1
  Zn  Zn112  1  0.68331693  0.18919817  0.68887789  1
  Zn  Zn113  1  0.68772942  0.69032838  0.18665880  1
  Zn  Zn114  1  0.68586562  0.69390280  0.68660015  1
  Zn  Zn115  1  0.31234998  0.31321701  0.31301575  1
  Zn  Zn116  1  0.31403521  0.31498480  0.81401234  1
  Zn  Zn117  1  0.31351136  0.80442310  0.31301186  1
  Zn  Zn118  1  0.31307621  0.81112744  0.81620946  1
  Zn  Zn119  1  0.81595358  0.30838457  0.32503287  1
  Zn  Zn120  1  0.81574085  0.30841518  0.81606006  1
  Zn  Zn121  1  0.81041702  0.81213548  0.31691653  1
  Zn  Zn122  1  0.81265550  0.81412812  0.80511105  1
  Zn  Zn123  1  0.18835174  0.43182319  0.43063301  1
  Zn  Zn124  1  0.19066429  0.43802539  0.93856835  1
  Zn  Zn125  1  0.18717541  0.93503169  0.42627238  1
  Zn  Zn126  1  0.18444746  0.93220863  0.93960342  1
  Zn  Zn127  1  0.67659430  0.43893128  0.44750749  1
  Zn  Zn128  1  0.68842165  0.43797017  0.94070411  1
  Zn  Zn129  1  0.67687802  0.92956705  0.43668607  1
  Zn  Zn130  1  0.68394028  0.93445304  0.93667324  1
  Zn  Zn131  1  0.31220280  0.06442439  0.06864300  1
  Zn  Zn132  1  0.30317622  0.06293057  0.56049713  1
  Zn  Zn133  1  0.31737474  0.56545731  0.06252232  1
  Zn  Zn134  1  0.31721902  0.56402894  0.56228906  1
  Zn  Zn135  1  0.81539143  0.06332197  0.06551799  1
  Zn  Zn136  1  0.81784186  0.07184122  0.57076353  1
  Zn  Zn137  1  0.80923279  0.56368238  0.06221876  1
  Zn  Zn138  1  0.80849550  0.56080727  0.55745907  1
  Zn  Zn139  1  0.44697073  0.44000780  0.19418883  1
  Zn  Zn140  1  0.43965532  0.44046481  0.68721671  1
  Zn  Zn141  1  0.43635039  0.93667730  0.18464640  1
  Zn  Zn142  1  0.42308465  0.93601309  0.68339272  1
  Zn  Zn143  1  0.93917984  0.43891007  0.18814503  1
  Zn  Zn144  1  0.94251548  0.43297457  0.68393804  1
  Zn  Zn145  1  0.93492344  0.93616744  0.18990211  1
  Zn  Zn146  1  0.93385874  0.93801706  0.68407116  1
  Zn  Zn147  1  0.06484457  0.05977903  0.31724684  1
  Zn  Zn148  1  0.06142002  0.06404650  0.81225189  1
  Zn  Zn149  1  0.06195145  0.56132742  0.30496741  1
  Zn  Zn150  1  0.05848936  0.56247298  0.80938749  1
  Zn  Zn151  1  0.56252711  0.05932953  0.31763206  1
  Zn  Zn152  1  0.56364424  0.06586943  0.80973271  1
  Zn  Zn153  1  0.68162610  0.56921297  0.31468439  1
  Zn  Zn154  1  0.56226487  0.56308954  0.80471730  1
  Zn  Zn155  1  0.43801447  0.19044398  0.43991846  1
  Zn  Zn156  1  0.44034530  0.18865477  0.94014727  1
  Zn  Zn157  1  0.43840507  0.69361393  0.42882845  1
  Zn  Zn158  1  0.43308039  0.68987889  0.93795466  1
  Zn  Zn159  1  0.94089635  0.18707900  0.44122059  1
  Zn  Zn160  1  0.93789352  0.18448953  0.93403447  1
  Zn  Zn161  1  0.93502326  0.68429573  0.43156794  1
  Zn  Zn162  1  0.93485126  0.68786700  0.93694791  1
  Zn  Zn163  1  0.06073888  0.31482945  0.06481696  1
  Zn  Zn164  1  0.06475845  0.31085446  0.56454242  1
  Zn  Zn165  1  0.06001998  0.81117550  0.06297145  1
  Zn  Zn166  1  0.06636929  0.81241630  0.56230200  1
  Zn  Zn167  1  0.56202317  0.31739492  0.06468410  1
  Zn  Zn168  1  0.56114362  0.31050440  0.56129987  1
  Zn  Zn169  1  0.56566646  0.81533981  0.05940221  1
  Zn  Zn170  1  0.56039903  0.81621375  0.56194350  1
  O  O171  1  0.12168004  0.12000489  0.12286762  1
  O  O172  1  0.11536853  0.12315812  0.62488177  1
  O  O173  1  0.10945730  0.62384445  0.12760968  1
  O  O174  1  0.11911251  0.61722492  0.61497763  1
  O  O175  1  0.62159326  0.11935819  0.11609904  1
  O  O176  1  0.60632084  0.13374080  0.61828261  1
  O  O177  1  0.62776787  0.61239553  0.12495696  1
  O  O178  1  0.60493962  0.63758723  0.62585364  1
  O  O179  1  0.38819587  0.36399621  0.38327583  1
  O  O180  1  0.38305939  0.38020352  0.88366212  1
  O  O181  1  0.39282630  0.86368526  0.36939884  1
  O  O182  1  0.37951620  0.88530352  0.87985906  1
  O  O183  1  0.86725663  0.39045842  0.38697125  1
  O  O184  1  0.87832590  0.38385793  0.88393853  1
  O  O185  1  0.88946842  0.87106933  0.37336237  1
  O  O186  1  0.88731326  0.87747143  0.87220804  1
  O  O187  1  0.24150928  0.00738935  0.36389832  1
  O  O188  1  0.25609422  0.00469575  0.87606875  1
  O  O189  1  0.24936805  0.50821234  0.36414011  1
  O  O190  1  0.25602461  0.50743364  0.87118646  1
  O  O191  1  0.72854694  -0.00270537  0.35581976  1
  O  O192  1  0.74799648  -0.00586242  0.86126958  1
  O  O193  1  0.75099566  0.50117422  0.38254767  1
  O  O194  1  0.76220924  0.51073834  0.88276887  1
  O  O195  1  0.24781441  0.50891418  0.13419273  1
  O  O196  1  0.24651853  0.49749469  0.62899025  1
  O  O197  1  0.24645489  0.98711037  0.12837638  1
  O  O198  1  0.27366220  0.99825358  0.65582588  1
  O  O199  1  0.73684605  0.49437790  0.11786184  1
  O  O200  1  0.73634589  0.49071685  0.61313870  1
  O  O201  1  0.74457731  0.99499027  0.13106275  1
  O  O202  1  0.75768571  0.98638404  0.62951251  1
  O  O203  1  0.00883005  0.36415957  0.24506241  1
  O  O204  1  0.00762941  0.36492990  0.75264044  1
  O  O205  1  0.00708950  0.86984790  0.25030951  1
  O  O206  1  0.00855446  0.87281358  0.75325845  1
  O  O207  1  0.51158476  0.36504570  0.25862970  1
  O  O208  1  0.49238915  0.36329282  0.75999328  1
  O  O209  1  0.50533332  0.88673690  0.25885099  1
  O  O210  1  0.50269699  0.87565298  0.74819477  1
  O  O211  1  0.49311661  0.12832125  0.24701984  1
  O  O212  1  0.49452741  0.13327524  0.74288667  1
  O  O213  1  0.48843578  0.62093077  0.25310069  1
  O  O214  1  0.49140063  0.63593382  0.74043654  1
  O  O215  1  0.99360128  0.13217749  0.24673479  1
  O  O216  1  1.00625923  0.13460760  0.74169350  1
  O  O217  1  0.99031591  0.62409969  0.23828665  1
  O  O218  1  0.98946150  0.63072946  0.74210760  1
  O  O219  1  0.37252445  0.25658005  0.00820055  1
  O  O220  1  0.36984977  0.25930900  0.50898697  1
  O  O221  1  0.36421598  0.75013166  0.01414688  1
  O  O222  1  0.36311962  0.74155549  0.50657154  1
  O  O223  1  0.87166784  0.25582264  0.00432057  1
  O  O224  1  0.85698348  0.24881475  0.50068360  1
  O  O225  1  0.86400492  0.75173370  0.00741690  1
  O  O226  1  0.86344058  0.74193619  0.50864689  1
  O  O227  1  0.13605944  0.26375713  0.48813469  1
  O  O228  1  0.12973573  0.24713199  0.99587682  1
  O  O229  1  0.13088015  0.72950334  0.50250552  1
  O  O230  1  0.13725792  0.75200375  0.99933129  1
  O  O231  1  0.62803191  0.24245569  0.49280490  1
  O  O232  1  0.63167092  0.24437557  0.99701790  1
  O  O233  1  0.63367989  0.75032772  0.50381075  1
  O  O234  1  0.63713327  0.74948411  0.99515860  1
  O  O235  1  0.49406819  0.24491299  0.13067151  1
  O  O236  1  0.49148697  0.24390315  0.63198512  1
  O  O237  1  0.48711415  0.75774690  0.12041969  1
  O  O238  1  0.48502095  0.74871963  0.62617934  1
  O  O239  1  0.99567000  0.24381342  0.13455326  1
  O  O240  1  1.00503247  0.24408936  0.63533662  1
  O  O241  1  0.98862430  0.74134851  0.12040056  1
  O  O242  1  0.99117544  0.74507342  0.62561388  1
  O  O243  1  0.00679107  0.24788543  0.36459529  1
  O  O244  1  0.01299349  0.25043177  0.86952627  1
  O  O245  1  0.00202713  0.75837938  0.37504945  1
  O  O246  1  -0.00199513  0.75744124  0.86750571  1
  O  O247  1  0.51498600  0.24882430  0.37183960  1
  O  O248  1  0.50472169  0.25730025  0.86948245  1
  O  O249  1  0.50868809  0.76154264  0.37210566  1
  O  O250  1  0.49449757  0.76046865  0.86454203  1
  O  O251  1  0.25665342  0.14617429  0.49929350  1
  O  O252  1  0.24446336  0.13219966  0.99951630  1
  O  O253  1  0.24422848  0.62163729  0.48956345  1
  O  O254  1  0.25489513  0.63131645  0.99017946  1
  O  O255  1  0.73226417  0.14026523  0.51090099  1
  O  O256  1  0.74090192  0.13287416  1.00791942  1
  O  O257  1  0.74524532  0.63843335  0.50089894  1
  O  O258  1  0.74814147  0.63554915  0.98855847  1
  O  O259  1  0.26637278  0.37064140  -0.00389796  1
  O  O260  1  0.26080699  0.36970854  0.50327024  1
  O  O261  1  0.25100763  0.86595820  0.01162588  1
  O  O262  1  0.23390222  0.84491074  0.49499079  1
  O  O263  1  0.76321668  0.36551254  0.00030302  1
  O  O264  1  0.74112894  0.35679156  0.49748261  1
  O  O265  1  0.75158569  0.86852913  0.00645272  1
  O  O266  1  0.74462116  0.87217402  0.51321108  1
  O  O267  1  0.13379962  0.49150377  0.24572819  1
  O  O268  1  0.13073029  0.49979283  0.74249390  1
  O  O269  1  0.12402845  0.98743069  0.24126383  1
  O  O270  1  0.13531812  0.98961737  0.75882318  1
  O  O271  1  0.63201463  0.48696165  0.24045544  1
  O  O272  1  0.62179509  0.51081085  0.72408623  1
  O  O273  1  0.63265180  1.01259572  0.23396887  1
  O  O274  1  0.63295204  0.99098119  0.75182994  1
  O  O275  1  0.37630432  0.01788580  0.24182799  1
  O  O276  1  0.36980594  0.00068022  0.76989957  1
  O  O277  1  0.36972560  0.51315504  0.23960769  1
  O  O278  1  0.36888445  0.50651577  0.75498455  1
  O  O279  1  0.86447620  0.01194330  0.24407726  1
  O  O280  1  0.85779966  -0.00395729  0.75248090  1
  O  O281  1  0.87201166  0.49088608  0.26559117  1
  O  O282  1  0.88178901  0.50973345  0.75745151  1
  O  O283  1  0.13014987  0.36288343  0.35798756  1
  O  O284  1  0.12604704  0.36345258  0.87590250  1
  O  O285  1  0.11485137  0.86995190  0.36470419  1
  O  O286  1  0.11337125  0.87019464  0.86758711  1
  O  O287  1  0.62157065  0.36208451  0.37025095  1
  O  O288  1  0.61371422  0.36325700  0.88698151  1
  O  O289  1  0.60547544  0.86203140  0.38399905  1
  O  O290  1  0.61551686  0.87403824  0.86358188  1
  O  O291  1  0.38245498  0.13613447  0.13180814  1
  O  O292  1  0.37972009  0.13800617  0.62505035  1
  O  O293  1  0.37850734  0.63564715  0.13224207  1
  O  O294  1  0.38163132  0.63435148  0.63070693  1
  O  O295  1  0.88020557  0.13216609  0.13606767  1
  O  O296  1  0.88833571  0.13209109  0.63477410  1
  O  O297  1  0.87943996  0.63331250  0.12392243  1
  O  O298  1  0.87638627  0.62966451  0.62932471  1
  O  O299  1  0.26412285  0.24762998  0.12061778  1
  O  O300  1  0.25664025  0.25621470  0.62033709  1
  O  O301  1  0.25375322  0.75399848  0.11912202  1
  O  O302  1  0.25677417  0.73531734  0.61303387  1
  O  O303  1  0.75744796  0.25090148  0.11551874  1
  O  O304  1  0.74550289  0.25322385  0.61679803  1
  O  O305  1  0.75414258  0.75797469  0.11516041  1
  O  O306  1  0.75377082  0.75758112  0.61390480  1
  O  O307  1  0.24415316  0.24939029  0.38207745  1
  O  O308  1  0.24464427  0.24664583  0.88265370  1
  O  O309  1  0.24626729  0.73353664  0.38067964  1
  O  O310  1  0.25038491  0.74180305  0.88511935  1
  O  O311  1  0.74408143  0.23288800  0.38902403  1
  O  O312  1  0.74076640  0.24982508  0.89145099  1
  O  O313  1  0.73478386  0.76331066  0.38955753  1
  O  O314  1  0.75295169  0.74453263  0.88028524  1
  O  O315  1  0.00663162  0.12152911  0.00868070  1
  O  O316  1  -0.00143417  0.12873059  0.51550451  1
  O  O317  1  -0.00822513  0.61575904  0.00677713  1
  O  O318  1  0.00786086  0.61349951  0.50117990  1
  O  O319  1  0.50980398  0.12116494  0.00661216  1
  O  O320  1  0.50215169  0.11607449  0.50492080  1
  O  O321  1  0.50568914  0.62029402  -0.01714860  1
  O  O322  1  0.48896555  0.63019555  0.51265053  1
  O  O323  1  0.49260161  0.36796607  0.49013426  1
  O  O324  1  0.48946803  0.37389758  0.98988775  1
  O  O325  1  0.49441794  0.89322018  0.51001944  1
  O  O326  1  0.49926587  0.88386743  0.99193769  1
  O  O327  1  1.00072543  0.38851484  0.50428570  1
  O  O328  1  0.98834235  0.38212673  0.99955599  1
  O  O329  1  1.00583621  0.87431756  0.49120704  1
  O  O330  1  0.99989491  0.87993794  0.99049355  1
  O  O331  1  0.50896254  0.48106090  0.37345516  1
  O  O332  1  0.49543745  0.48842417  0.86646571  1
  O  O333  1  0.50419183  0.98775992  0.38814116  1
  O  O334  1  0.49320896  0.99884685  0.87956958  1
  O  O335  1  1.00317434  0.49710499  0.38579315  1
  O  O336  1  0.98864500  0.50255306  0.88163699  1
  O  O337  1  1.00376903  0.98367040  0.37277780  1
  O  O338  1  1.00215840  0.99124496  0.88180233  1
  O  O339  1  0.00535268  0.00487221  0.12069595  1
  O  O340  1  -0.00217122  0.01163431  0.62871669  1
  O  O341  1  -0.00318695  0.50905151  0.11588709  1
  O  O342  1  0.00536758  0.50555007  0.61478488  1
  O  O343  1  0.50840592  0.00379254  0.11894770  1
  O  O344  1  0.48349438  0.01226909  0.61654399  1
  O  O345  1  0.52147863  0.49082534  0.12583369  1
  O  O346  1  0.50196284  0.51775810  0.62574481  1
  O  O347  1  0.24748289  0.38704971  0.25205233  1
  O  O348  1  0.25152025  0.38341751  0.74400500  1
  O  O349  1  0.24098238  0.86856186  0.24112860  1
  O  O350  1  0.23867278  0.88237905  0.76308398  1
  O  O351  1  0.73910267  0.35960662  0.25383389  1
  O  O352  1  0.73455981  0.36014109  0.76523088  1
  O  O353  1  0.75678093  0.88431437  0.23659061  1
  O  O354  1  0.74105268  0.88202183  0.74088464  1
  O  O355  1  0.26649174  0.12865936  0.24805335  1
  O  O356  1  0.25089678  0.11666910  0.76150458  1
  O  O357  1  0.25044195  0.61521245  0.25566773  1
  O  O358  1  0.25381879  0.62102064  0.75694511  1
  O  O359  1  0.75878038  0.11755723  0.26049420  1
  O  O360  1  0.74378930  0.10537192  0.73886549  1
  O  O361  1  0.75253923  0.62588451  0.24906360  1
  O  O362  1  0.76101987  0.63429971  0.75530719  1
  O  O363  1  0.37588451  0.13360148  0.36026674  1
  O  O364  1  0.37002255  0.11786785  0.87919325  1
  O  O365  1  0.36757748  0.63129525  0.35844619  1
  O  O366  1  0.36390635  0.62122355  0.86745318  1
  O  O367  1  0.87237020  0.13988340  0.35955649  1
  O  O368  1  0.87679153  0.12269266  0.86619971  1
  O  O369  1  0.87926057  0.60178383  0.37376929  1
  O  O370  1  0.86723098  0.61959520  0.86537250  1
  O  O371  1  0.12521854  0.37586311  0.13733906  1
  O  O372  1  0.13603961  0.38199150  0.62515324  1
  O  O373  1  0.13097505  0.87720854  0.13053406  1
  O  O374  1  0.14183935  0.86997558  0.63440779  1
  O  O375  1  0.63039371  0.37475087  0.13667707  1
  O  O376  1  0.61590964  0.38173327  0.63073288  1
  O  O377  1  0.63632104  0.88748138  0.11761187  1
  O  O378  1  0.63790287  0.87154732  0.63310850  1
  O  O379  1  0.11881539  0.25690079  0.25300352  1
  O  O380  1  0.12297427  0.25072405  0.76158163  1
  O  O381  1  0.12001669  0.75912972  0.24916295  1
  O  O382  1  0.11763515  0.75923898  0.74969440  1
  O  O383  1  0.62348985  0.24836876  0.25999832  1
  O  O384  1  0.61137291  0.24003236  0.76314240  1
  O  O385  1  0.63126239  0.76034479  0.25781758  1
  O  O386  1  0.61600048  0.76375995  0.75064723  1
  O  O387  1  0.38206526  0.24456913  0.24294535  1
  O  O388  1  0.38158764  0.24908804  0.74223333  1
  O  O389  1  0.37136232  0.73645078  0.23551382  1
  O  O390  1  0.37509289  0.74913781  0.73896901  1
  O  O391  1  0.88259841  0.24694220  0.24644448  1
  O  O392  1  0.89300650  0.25007891  0.75363731  1
  O  O393  1  0.87248115  0.74993160  0.23586467  1
  O  O394  1  0.87870902  0.74154473  0.73726293  1
  O  O395  1  0.38221784  0.48630464  0.50423968  1
  O  O396  1  0.37842324  0.49215799  0.99544130  1
  O  O397  1  0.38224605  1.00763295  0.49430985  1
  O  O398  1  0.38039507  1.00063349  0.99444370  1
  O  O399  1  0.88733862  0.50152855  0.49196382  1
  O  O400  1  0.88125924  0.49390127  0.99201272  1
  O  O401  1  0.81969170  1.04604640  0.45693340  1
  O  O402  1  0.88307789  0.99811406  1.00040158  1
  O  O403  1  0.12081680  0.00569090  0.00708768  1
  O  O404  1  0.21141253  -0.01670610  0.53015123  1
  O  O405  1  0.10880692  0.49059952  -0.00022360  1
  O  O406  1  0.11817959  0.50353109  0.50092281  1
  O  O407  1  0.62313443  0.00870404  0.00696438  1
  O  O408  1  0.61818636  0.01161060  0.50099878  1
  O  O409  1  0.62265998  0.50005497  0.01260165  1
  O  O410  1  0.61122744  0.49833879  0.51826819  1
  O  O411  1  0.38750462  0.36519590  0.11777568  1
  O  O412  1  0.37395584  0.36743319  0.61788553  1
  O  O413  1  0.36571787  0.86277114  0.12822818  1
  O  O414  1  0.34764107  0.86558101  0.62364896  1
  O  O415  1  0.87473224  0.37056524  0.11672378  1
  O  O416  1  0.87063594  0.36996728  0.62089680  1
  O  O417  1  0.86619648  0.86655275  0.12121359  1
  O  O418  1  0.86027948  0.86310865  0.63064515  1
  O  O419  1  0.12760245  0.14363951  0.36545128  1
  O  O420  1  0.13056344  0.13423467  0.88399351  1
  O  O421  1  0.13212515  0.62183911  0.38092349  1
  O  O422  1  0.13730135  0.62639290  0.86782483  1
  O  O423  1  0.63514784  0.12657380  0.38652241  1
  O  O424  1  0.61717461  0.13672715  0.88830601  1
  O  O425  1  0.61961911  0.64812037  0.37133486  1
  O  O426  1  0.63906749  0.62728275  0.86689616  1
