# generated using pymatgen
data_V85Zn86O256
_symmetry_space_group_name_H-M   'P 1'
_cell_length_a   16.93976261
_cell_length_b   16.95047879
_cell_length_c   16.93331056
_cell_angle_alpha   89.97379783
_cell_angle_beta   89.93441832
_cell_angle_gamma   90.01867382
_symmetry_Int_Tables_number   1
_chemical_formula_structural   V85Zn86O256
_chemical_formula_sum   'V85 Zn86 O256'
_cell_volume   4862.17751147
_cell_formula_units_Z   1
loop_
 _symmetry_equiv_pos_site_id
 _symmetry_equiv_pos_as_xyz
  1  'x, y, z'
loop_
 _atom_site_type_symbol
 _atom_site_label
 _atom_site_symmetry_multiplicity
 _atom_site_fract_x
 _atom_site_fract_y
 _atom_site_fract_z
 _atom_site_occupancy
  V  V0  1  0.14406060  0.62825142  0.00056662  1
  V  V1  1  0.37649609  0.86109522  0.00977338  1
  V  V2  1  0.49583480  0.12334706  0.11947492  1
  V  V3  1  0.50154311  0.62883112  0.63202258  1
  V  V4  1  0.12387913  0.88427647  0.24770796  1
  V  V5  1  0.24291470  0.13673666  0.37721490  1
  V  V6  1  0.00116688  0.37395929  0.37735355  1
  V  V7  1  0.87268476  0.50176739  0.87652399  1
  V  V8  1  0.62710365  0.24073242  0.87568714  1
  V  V9  1  0.86373857  0.75534360  0.12467888  1
  V  V10  1  0.00246135  0.25493115  0.75479650  1
  V  V11  1  0.12435304  0.75287077  0.37343275  1
  V  V12  1  -0.00952004  0.12376732  0.63231014  1
  V  V13  1  0.75866879  0.12483222  0.87086641  1
  V  V14  1  0.75282866  0.00288610  0.75031868  1
  V  V15  1  0.50657045  0.64187858  0.12906172  1
  V  V16  1  0.62237069  0.24676366  0.37848748  1
  V  V17  1  0.12436025  -0.00008886  0.62547620  1
  V  V18  1  0.86947696  0.62709860  0.75563617  1
  V  V19  1  0.61900408  0.86333243  0.75427659  1
  V  V20  1  0.74787759  0.62488986  0.37372714  1
  V  V21  1  0.00337769  0.00023493  0.00270907  1
  V  V22  1  0.12712792  0.12580307  0.00065872  1
  V  V23  1  0.25087627  0.75129571  0.50130507  1
  V  V24  1  0.87410436  0.49953242  0.37662884  1
  V  V25  1  0.12565440  0.50257850  0.12468690  1
  V  V26  1  0.25346934  0.37360851  0.12717717  1
  V  V27  1  0.74598283  0.75338078  -0.01796332  1
  V  V28  1  0.13790140  0.74551446  0.88002235  1
  V  V29  1  -0.00096586  0.74896600  0.75118791  1
  V  V30  1  0.86962926  0.25444681  0.63061665  1
  V  V31  1  0.50143541  0.24664812  0.74699503  1
  V  V32  1  0.86921456  0.25625291  0.12672773  1
  V  V33  1  0.74631448  0.49518134  0.23736960  1
  V  V34  1  0.36954943  0.62205211  0.75414269  1
  V  V35  1  0.12269787  0.62414970  0.50135905  1
  V  V36  1  0.12721600  0.49612212  0.63410584  1
  V  V37  1  0.37979033  0.74968940  0.63006061  1
  V  V38  1  0.38010207  0.12315077  0.74797036  1
  V  V39  1  0.74808714  0.24666633  0.00118023  1
  V  V40  1  0.50891520  0.49805600  0.01086227  1
  V  V41  1  0.37526879  0.50127513  0.37592045  1
  V  V42  1  0.00305442  0.25107992  0.25521287  1
  V  V43  1  0.86700600  -0.00028608  0.37070577  1
  V  V44  1  0.61455438  0.74869089  0.36476118  1
  V  V45  1  0.74878839  0.50079329  0.75285328  1
  V  V46  1  0.12531021  0.14100017  0.49820586  1
  V  V47  1  0.36936246  0.24888559  0.62031797  1
  V  V48  1  0.63880967  0.00423077  0.12400838  1
  V  V49  1  0.37373364  0.13069167  0.24796107  1
  V  V50  1  0.61647097  0.00514756  0.61478791  1
  V  V51  1  0.62731784  0.49595061  0.62412586  1
  V  V52  1  0.50349172  0.37417030  0.87557656  1
  V  V53  1  0.25707812  0.24801530  0.00728710  1
  V  V54  1  0.12463128  0.37508297  0.25193540  1
  V  V55  1  0.00427791  0.12250836  0.12667042  1
  V  V56  1  0.63055293  0.62404017  -0.01204833  1
  V  V57  1  -0.00213358  0.00115489  0.50022955  1
  V  V58  1  0.74786910  0.87263506  0.62368382  1
  V  V59  1  0.25295328  0.12366366  0.87728208  1
  V  V60  1  0.86831386  0.12315568  0.25048344  1
  V  V61  1  0.37961307  0.37102617  0.00751937  1
  V  V62  1  0.37540684  0.00314968  0.38067660  1
  V  V63  1  0.36379882  0.37189392  0.50157431  1
  V  V64  1  0.63478475  0.88078589  0.24427153  1
  V  V65  1  0.50094776  0.37583276  0.37525581  1
  V  V66  1  0.87248051  0.87436701  0.49947771  1
  V  V67  1  -0.00048113  0.62769632  0.12148390  1
  V  V68  1  -0.00112380  0.87522482  0.37362062  1
  V  V69  1  0.74511250  0.12527179  0.38010802  1
  V  V70  1  0.24166338  0.87000134  0.11963920  1
  V  V71  1  0.25172326  0.62697412  0.37340179  1
  V  V72  1  0.37313311  0.50250668  0.87707463  1
  V  V73  1  0.87428039  0.37569640  0.00064176  1
  V  V74  1  0.62280409  0.62538292  0.49894360  1
  V  V75  1  -0.00243176  0.87486971  0.87851109  1
  V  V76  1  0.50151277  0.86049599  0.87310918  1
  V  V77  1  0.74914958  0.25688714  0.50336827  1
  V  V78  1  0.49627626  0.87869938  0.37073830  1
  V  V79  1  0.62829215  0.37635186  0.23885841  1
  V  V80  1  0.24952622  0.87541110  0.62479274  1
  V  V81  1  0.25188894  0.50190112  0.24984373  1
  V  V82  1  0.37915605  -0.00293404  0.87853916  1
  V  V83  1  0.38064351  0.63903246  0.24600964  1
  V  V84  1  0.63126889  0.37228528  0.74458102  1
  Zn  Zn85  1  0.87505586  0.62463993  0.24747757  1
  Zn  Zn86  1  -0.00152130  0.50021913  0.50330056  1
  Zn  Zn87  1  0.00332299  0.49950083  -0.00205669  1
  Zn  Zn88  1  0.24355727  0.49137978  0.76163977  1
  Zn  Zn89  1  0.38472092  0.88184781  0.50385180  1
  Zn  Zn90  1  0.00837764  0.38086035  0.87162463  1
  Zn  Zn91  1  0.86281082  0.88532898  0.00472790  1
  Zn  Zn92  1  0.12606950  0.87444314  0.75321819  1
  Zn  Zn93  1  0.25032052  -0.00033247  0.75095937  1
  Zn  Zn94  1  0.13934080  0.26259876  0.86245550  1
  Zn  Zn95  1  0.49757907  0.49910697  0.50326007  1
  Zn  Zn96  1  0.49725978  0.25353056  0.24247589  1
  Zn  Zn97  1  0.87450038  0.74724678  0.62254117  1
  Zn  Zn98  1  -0.00081452  0.75102776  0.24677556  1
  Zn  Zn99  1  0.24761035  0.00420636  0.24490014  1
  Zn  Zn100  1  0.87989722  0.00465867  0.87007564  1
  Zn  Zn101  1  0.24081577  0.36620627  0.63519937  1
  Zn  Zn102  1  0.87104778  0.37970197  0.50762422  1
  Zn  Zn103  1  0.49868522  0.11965274  0.59221840  1
  Zn  Zn104  1  0.74943592  0.74996111  0.49720037  1
  Zn  Zn105  1  -0.00267209  0.62423680  0.62567009  1
  Zn  Zn106  1  0.50715753  -0.00129593  -0.00015946  1
  Zn  Zn107  1  0.18735076  0.18767462  0.18898489  1
  Zn  Zn108  1  0.18656793  0.18333672  0.68721838  1
  Zn  Zn109  1  0.19043355  0.69318780  0.18678387  1
  Zn  Zn110  1  0.18910909  0.68416195  0.69100287  1
  Zn  Zn111  1  0.68264692  0.18720620  0.18972165  1
  Zn  Zn112  1  0.68740619  0.18302817  0.68554254  1
  Zn  Zn113  1  0.68308725  0.68473203  0.18588935  1
  Zn  Zn114  1  0.68817643  0.68512594  0.68996911  1
  Zn  Zn115  1  0.31235909  0.31180984  0.31354234  1
  Zn  Zn116  1  0.31538558  0.31419552  0.81381845  1
  Zn  Zn117  1  0.30951164  0.81791524  0.31063609  1
  Zn  Zn118  1  0.31725381  0.81336103  0.81014627  1
  Zn  Zn119  1  0.81141446  0.31320840  0.31432463  1
  Zn  Zn120  1  0.81687862  0.31339865  0.81213540  1
  Zn  Zn121  1  0.81004434  0.81123914  0.30922795  1
  Zn  Zn122  1  0.81249596  0.81759604  0.81149715  1
  Zn  Zn123  1  0.18543893  0.43823721  0.43870570  1
  Zn  Zn124  1  0.18869456  0.43731750  0.94201705  1
  Zn  Zn125  1  0.19006009  0.94464218  0.43663552  1
  Zn  Zn126  1  0.18887669  0.93635646  0.94011441  1
  Zn  Zn127  1  0.68597253  0.43690055  0.43525346  1
  Zn  Zn128  1  0.68932524  0.43354122  0.93777674  1
  Zn  Zn129  1  0.68341716  0.93502918  0.43424063  1
  Zn  Zn130  1  0.68522887  0.93920235  0.93681611  1
  Zn  Zn131  1  0.31314557  0.05272699  0.06551713  1
  Zn  Zn132  1  0.30881400  0.06668260  0.55942356  1
  Zn  Zn133  1  0.32187414  0.56150958  0.06718513  1
  Zn  Zn134  1  0.31086139  0.56094997  0.56382527  1
  Zn  Zn135  1  0.81556167  0.06798564  0.05891971  1
  Zn  Zn136  1  0.80719325  0.06330282  0.56138498  1
  Zn  Zn137  1  0.81166489  0.56777923  0.05929795  1
  Zn  Zn138  1  0.81021751  0.56381166  0.56484547  1
  Zn  Zn139  1  0.43977819  0.44287368  0.19058383  1
  Zn  Zn140  1  0.43865054  0.43538069  0.68846027  1
  Zn  Zn141  1  0.44204693  0.94182570  0.19312689  1
  Zn  Zn142  1  0.43928321  0.93682784  0.68851942  1
  Zn  Zn143  1  0.93645010  0.43996345  0.18806591  1
  Zn  Zn144  1  0.93987045  0.43773997  0.68780177  1
  Zn  Zn145  1  0.93534193  0.93685656  0.18720579  1
  Zn  Zn146  1  0.93664914  0.93434081  0.68795551  1
  Zn  Zn147  1  0.05955845  0.06396663  0.31629219  1
  Zn  Zn148  1  0.06486746  0.06665966  0.81384016  1
  Zn  Zn149  1  0.06178937  0.56402193  0.31064239  1
  Zn  Zn150  1  0.06001965  0.56709795  0.81699664  1
  Zn  Zn151  1  0.55826939  0.06139666  0.31076574  1
  Zn  Zn152  1  0.56494986  0.05428059  0.80774935  1
  Zn  Zn153  1  0.56228967  0.55968648  0.30772205  1
  Zn  Zn154  1  0.55786904  0.56186393  0.81397746  1
  Zn  Zn155  1  0.43365157  0.18772827  0.43400480  1
  Zn  Zn156  1  0.44003715  0.18667824  0.93735367  1
  Zn  Zn157  1  0.43799165  0.68874499  0.44110745  1
  Zn  Zn158  1  0.43926499  0.68315458  0.94116434  1
  Zn  Zn159  1  0.93443249  0.18758185  0.44311218  1
  Zn  Zn160  1  0.93626937  0.18747612  0.93852205  1
  Zn  Zn161  1  0.93639894  0.68875030  0.43633815  1
  Zn  Zn162  1  0.93793312  0.68815594  0.94009186  1
  Zn  Zn163  1  0.06399173  0.31192508  0.06103799  1
  Zn  Zn164  1  0.05406021  0.31569770  0.56776054  1
  Zn  Zn165  1  0.06128260  0.80973966  0.06149389  1
  Zn  Zn166  1  0.06142276  0.81308855  0.56204000  1
  Zn  Zn167  1  0.56337291  0.30567998  0.06133850  1
  Zn  Zn168  1  0.55579468  0.30729676  0.55976149  1
  Zn  Zn169  1  0.56801800  0.81619239  0.05948892  1
  Zn  Zn170  1  0.56415827  0.81370822  0.55640147  1
  O  O171  1  0.11218909  0.12967895  0.11814489  1
  O  O172  1  0.11702522  0.11638978  0.61787075  1
  O  O173  1  0.12020429  0.62471972  0.11919327  1
  O  O174  1  0.12462349  0.61899065  0.61609499  1
  O  O175  1  0.61374940  0.11063998  0.13653480  1
  O  O176  1  0.62174374  0.10851042  0.62894820  1
  O  O177  1  0.61220393  0.62550392  0.11659471  1
  O  O178  1  0.61915043  0.61904598  0.62178413  1
  O  O179  1  0.38081083  0.37932555  0.38080008  1
  O  O180  1  0.38495203  0.38068458  0.88745971  1
  O  O181  1  0.37871935  0.88442109  0.37409120  1
  O  O182  1  0.38176894  0.87968157  0.87971185  1
  O  O183  1  0.88291864  0.38518070  0.37403813  1
  O  O184  1  0.88027129  0.38364739  0.88193344  1
  O  O185  1  0.87624033  0.88214139  0.37703245  1
  O  O186  1  0.88775290  0.87652110  0.88113010  1
  O  O187  1  0.25713669  0.00926844  0.36900698  1
  O  O188  1  0.26007903  0.00391624  0.87405381  1
  O  O189  1  0.25474322  0.50710487  0.36949153  1
  O  O190  1  0.26938680  0.49604345  0.88206430  1
  O  O191  1  0.75943611  0.00888418  0.38148692  1
  O  O192  1  0.74854186  0.00868500  0.86921154  1
  O  O193  1  0.75638825  0.50808820  0.37064138  1
  O  O194  1  0.75994369  0.49470225  0.86425790  1
  O  O195  1  0.24662716  0.49404614  0.13078950  1
  O  O196  1  0.23471945  0.49961728  0.62602485  1
  O  O197  1  0.25501351  0.98049709  0.12981693  1
  O  O198  1  0.24152727  0.99281044  0.62448106  1
  O  O199  1  0.75636041  0.50358615  0.13930117  1
  O  O200  1  0.73648068  0.50350662  0.63590441  1
  O  O201  1  0.73901131  1.01122400  0.12378834  1
  O  O202  1  0.74233980  0.99150732  0.63055840  1
  O  O203  1  0.00284821  0.36922858  0.25592514  1
  O  O204  1  -0.00174326  0.35886644  0.75093044  1
  O  O205  1  0.00598333  0.87372932  0.25478421  1
  O  O206  1  0.00136670  0.86698716  0.76004220  1
  O  O207  1  0.50683035  0.37611643  0.25824448  1
  O  O208  1  0.50981233  0.36732987  0.75569926  1
  O  O209  1  0.50937776  0.87530268  0.26253254  1
  O  O210  1  0.51212426  0.87601473  0.75550912  1
  O  O211  1  0.48997737  0.12754449  0.24293612  1
  O  O212  1  0.48877643  0.12789998  0.75469507  1
  O  O213  1  0.49723547  0.62184003  0.23676418  1
  O  O214  1  0.49317480  0.62238220  0.73798165  1
  O  O215  1  0.99183526  0.13219677  0.24625274  1
  O  O216  1  1.00071147  0.13011598  0.73862627  1
  O  O217  1  0.99911038  0.62858796  0.23653727  1
  O  O218  1  0.98924782  0.63492554  0.75119911  1
  O  O219  1  0.37035037  0.25995841  -0.00264287  1
  O  O220  1  0.37901277  0.25960527  0.50913404  1
  O  O221  1  0.37620944  0.76240837  -0.00339350  1
  O  O222  1  0.36757846  0.75015214  0.51280575  1
  O  O223  1  0.86982879  0.25527666  0.00767761  1
  O  O224  1  0.86700762  0.25348709  0.50923924  1
  O  O225  1  0.86082873  0.74627272  0.00797692  1
  O  O226  1  0.87066446  0.75776544  0.50162547  1
  O  O227  1  0.11764505  0.23968619  0.50866385  1
  O  O228  1  0.13586112  0.23793231  1.00151429  1
  O  O229  1  0.12968864  0.74312274  0.49574982  1
  O  O230  1  0.12310380  0.74392081  0.98752752  1
  O  O231  1  0.63237061  0.25764328  0.48671738  1
  O  O232  1  0.63679564  0.25807571  0.98650842  1
  O  O233  1  0.62854080  0.74311635  0.48612174  1
  O  O234  1  0.63798694  0.74040405  1.00282675  1
  O  O235  1  0.50926784  0.22970867  0.12676360  1
  O  O236  1  0.49122051  0.24223325  0.63078998  1
  O  O237  1  0.50302123  0.74014509  0.12077614  1
  O  O238  1  0.49082685  0.74195188  0.61813326  1
  O  O239  1  0.99008775  0.24235188  0.13274482  1
  O  O240  1  0.99069117  0.24239320  0.63466349  1
  O  O241  1  0.98854368  0.74260486  0.12195625  1
  O  O242  1  0.99895584  0.75125973  0.63945615  1
  O  O243  1  -0.01177617  0.25953978  0.36445523  1
  O  O244  1  -0.00375917  0.24484113  0.85958817  1
  O  O245  1  0.00534830  0.75801037  0.37259788  1
  O  O246  1  0.00476797  0.75731343  0.86974578  1
  O  O247  1  0.50673848  0.26220359  0.36967739  1
  O  O248  1  0.50938106  0.25299921  0.87016649  1
  O  O249  1  0.50931961  0.75319685  0.37469361  1
  O  O250  1  0.49710588  0.76144040  0.87729218  1
  O  O251  1  0.23624549  0.12210551  0.49108052  1
  O  O252  1  0.24708785  0.12871994  1.00019814  1
  O  O253  1  0.24239510  0.63079748  0.49451997  1
  O  O254  1  0.24321954  0.62403248  1.00943395  1
  O  O255  1  0.75355011  0.13674614  0.48703432  1
  O  O256  1  0.75382961  0.13835611  0.98817316  1
  O  O257  1  0.74262056  0.62464173  0.48941223  1
  O  O258  1  0.73644795  0.63127326  0.99968704  1
  O  O259  1  0.26135374  0.36708210  0.00710294  1
  O  O260  1  0.26076613  0.37815842  0.50310660  1
  O  O261  1  0.26124821  0.87723991  0.01015663  1
  O  O262  1  0.24931122  0.87034805  0.51198745  1
  O  O263  1  0.76316825  0.36121881  -0.00682620  1
  O  O264  1  0.75265656  0.36233413  0.49329017  1
  O  O265  1  0.74782517  0.85869887  -0.00597795  1
  O  O266  1  0.75343525  0.87416765  0.50790190  1
  O  O267  1  0.13220145  0.49625739  0.24432941  1
  O  O268  1  0.12436746  0.51121878  0.73797984  1
  O  O269  1  0.12038140  0.98786528  0.25303333  1
  O  O270  1  0.12651021  1.00008640  0.73751010  1
  O  O271  1  0.63884544  0.49188209  0.25372249  1
  O  O272  1  0.63005522  0.49329451  0.74670055  1
  O  O273  1  0.62336311  0.98846912  0.24244457  1
  O  O274  1  0.63471824  0.98887041  0.74020456  1
  O  O275  1  0.37323627  0.01262600  0.26048733  1
  O  O276  1  0.37555753  0.00626752  0.75919930  1
  O  O277  1  0.36995127  0.50864676  0.25693379  1
  O  O278  1  0.38090657  0.50525002  0.76143645  1
  O  O279  1  0.88020397  0.01075400  0.25938452  1
  O  O280  1  0.85818811  -0.01020336  0.75204606  1
  O  O281  1  0.86276969  0.50057307  0.25861976  1
  O  O282  1  0.86809996  0.50526881  0.75546810  1
  O  O283  1  0.11081705  0.38425726  0.36782595  1
  O  O284  1  0.11839512  0.36882514  0.89183735  1
  O  O285  1  0.11972257  0.87313088  0.36938466  1
  O  O286  1  0.11682156  0.86429949  0.87653820  1
  O  O287  1  0.61675294  0.36948842  0.36787389  1
  O  O288  1  0.62283455  0.36510341  0.86470699  1
  O  O289  1  0.61897333  0.86907464  0.36481809  1
  O  O290  1  0.61761451  0.87993171  0.86143826  1
  O  O291  1  0.38630489  0.11561291  0.13361914  1
  O  O292  1  0.37779753  0.12852880  0.63173853  1
  O  O293  1  0.39310033  0.62082742  0.13299760  1
  O  O294  1  0.38202802  0.62909751  0.63153726  1
  O  O295  1  0.88324516  0.13366896  0.13272468  1
  O  O296  1  0.88427631  0.13218119  0.61741953  1
  O  O297  1  0.88266026  0.63428555  0.12399264  1
  O  O298  1  0.87553814  0.62655465  0.63855437  1
  O  O299  1  0.24779098  0.25584147  0.11495819  1
  O  O300  1  0.26489085  0.24754489  0.63011884  1
  O  O301  1  0.25475485  0.76958923  0.13020282  1
  O  O302  1  0.25592229  0.75671084  0.62244428  1
  O  O303  1  0.75966403  0.23943331  0.11612825  1
  O  O304  1  0.75717850  0.24074288  0.61550904  1
  O  O305  1  0.76160425  0.74335504  0.12105147  1
  O  O306  1  0.74914692  0.76227299  0.62401305  1
  O  O307  1  0.24813309  0.23676545  0.37163887  1
  O  O308  1  0.25545315  0.24207078  0.88893096  1
  O  O309  1  0.24449506  0.74653389  0.38116950  1
  O  O310  1  0.23573149  0.75603750  0.86939604  1
  O  O311  1  0.74398865  0.24430874  0.38195835  1
  O  O312  1  0.74579207  0.24321865  0.87723794  1
  O  O313  1  0.74190497  0.73687821  0.37152547  1
  O  O314  1  0.75534513  0.74635401  0.88339387  1
  O  O315  1  0.00668715  0.12171384  0.00630121  1
  O  O316  1  0.00581301  0.11994910  0.50800777  1
  O  O317  1  0.00746790  0.62383088  0.01028283  1
  O  O318  1  0.01077804  0.62589295  0.50106727  1
  O  O319  1  0.49424163  0.12080622  0.01425709  1
  O  O320  1  0.51100124  0.12882552  0.48342896  1
  O  O321  1  0.50917576  0.61906398  0.01065019  1
  O  O322  1  0.50506269  0.62125252  0.51159529  1
  O  O323  1  0.49203145  0.37704870  0.48857744  1
  O  O324  1  0.49824244  0.37869891  0.99783139  1
  O  O325  1  0.49938536  0.86946721  0.48033723  1
  O  O326  1  0.49042409  0.87568628  0.99277607  1
  O  O327  1  0.99545228  0.37792551  0.48829293  1
  O  O328  1  0.98502288  0.37575223  1.00170077  1
  O  O329  1  0.99306264  0.88086673  0.49451414  1
  O  O330  1  1.00255324  0.88565999  0.99451763  1
  O  O331  1  0.49522899  0.49089197  0.37536955  1
  O  O332  1  0.49576055  0.49251550  0.88651582  1
  O  O333  1  0.48742179  0.99234362  0.36991730  1
  O  O334  1  0.49322418  0.99084670  0.87663634  1
  O  O335  1  0.98912488  0.49434339  0.37257369  1
  O  O336  1  0.98716884  0.49984883  0.87721627  1
  O  O337  1  0.98705823  0.99564458  0.38056901  1
  O  O338  1  1.00190812  0.99333935  0.88159762  1
  O  O339  1  -0.00815385  0.01223352  0.11620324  1
  O  O340  1  0.00386069  0.00467886  0.62208230  1
  O  O341  1  0.00589089  0.50940392  0.12438650  1
  O  O342  1  0.01117445  0.50403862  0.62359799  1
  O  O343  1  0.50802468  0.01022109  0.12460153  1
  O  O344  1  0.51203257  -0.00051301  0.62656018  1
  O  O345  1  0.50306566  0.50176776  0.11314146  1
  O  O346  1  0.51153714  0.50816448  0.62625114  1
  O  O347  1  0.24569852  0.38046481  0.24695243  1
  O  O348  1  0.25344180  0.37879883  0.74835901  1
  O  O349  1  0.23970710  0.87788875  0.24116079  1
  O  O350  1  0.24844895  0.87678393  0.73691631  1
  O  O351  1  0.74414986  0.38757251  0.25556269  1
  O  O352  1  0.73932361  0.38283997  0.75285830  1
  O  O353  1  0.73478644  0.87681215  0.25379669  1
  O  O354  1  0.73922821  0.88025711  0.74405016  1
  O  O355  1  0.25345591  0.12388948  0.25557597  1
  O  O356  1  0.26348127  0.12406413  0.75710819  1
  O  O357  1  0.25853739  0.62149786  0.25292482  1
  O  O358  1  0.26541936  0.61528267  0.74665870  1
  O  O359  1  0.76360729  0.13390501  0.25991948  1
  O  O360  1  0.74521144  0.11381866  0.75805803  1
  O  O361  1  0.74676018  0.61201238  0.25798591  1
  O  O362  1  0.75724311  0.61439805  0.74967674  1
  O  O363  1  0.36339607  0.12094626  0.36846931  1
  O  O364  1  0.37316109  0.11622462  0.87000413  1
  O  O365  1  0.37199875  0.62091549  0.36920007  1
  O  O366  1  0.38780956  0.61478666  0.86596577  1
  O  O367  1  0.86862393  0.11894840  0.36935853  1
  O  O368  1  0.86336083  0.12447425  0.87428133  1
  O  O369  1  0.86641900  0.61818290  0.37166990  1
  O  O370  1  0.87892711  0.61543997  0.86654436  1
  O  O371  1  0.13122669  0.38153634  0.13007319  1
  O  O372  1  0.12348524  0.39207406  0.61851834  1
  O  O373  1  0.13358535  0.87129049  0.12929109  1
  O  O374  1  0.13114312  0.88247405  0.62685671  1
  O  O375  1  0.62151743  0.36632499  0.13976291  1
  O  O376  1  0.61544917  0.38261023  0.63463921  1
  O  O377  1  0.62052825  0.88464827  0.13750494  1
  O  O378  1  0.62900790  0.88068699  0.63348785  1
  O  O379  1  0.10977493  0.25702995  0.24337634  1
  O  O380  1  0.10912032  0.24338278  0.74807914  1
  O  O381  1  0.12326697  0.76204723  0.25654598  1
  O  O382  1  0.11643513  0.74639832  0.76278220  1
  O  O383  1  0.62732344  0.25992723  0.26281525  1
  O  O384  1  0.62329466  0.25553152  0.75411856  1
  O  O385  1  0.62888152  0.76063510  0.25677736  1
  O  O386  1  0.62866656  0.76455785  0.74711793  1
  O  O387  1  0.37619898  0.23688789  0.25279052  1
  O  O388  1  0.38234832  0.24134564  0.74412764  1
  O  O389  1  0.37294715  0.73739823  0.25631758  1
  O  O390  1  0.37084926  0.73990672  0.73784705  1
  O  O391  1  0.88102932  0.24489006  0.24411240  1
  O  O392  1  0.88309461  0.24948365  0.74106010  1
  O  O393  1  0.87454763  0.74729554  0.23621267  1
  O  O394  1  0.88086183  0.74323304  0.75205951  1
  O  O395  1  0.37614326  0.49178593  0.49483453  1
  O  O396  1  0.38759329  0.49257773  0.99579572  1
  O  O397  1  0.36840174  0.99948903  0.48699257  1
  O  O398  1  0.37762934  0.99027686  0.98765505  1
  O  O399  1  0.87488589  0.50046024  0.49033637  1
  O  O400  1  0.87068939  0.49318409  0.99259628  1
  O  O401  1  0.87781582  0.99533122  0.49133805  1
  O  O402  1  0.88770268  1.00177500  0.99544290  1
  O  O403  1  0.11572807  0.01302532  -0.00431703  1
  O  O404  1  0.11692098  0.00300333  0.51153135  1
  O  O405  1  0.12502390  0.51161030  0.00712866  1
  O  O406  1  0.12385556  0.51183771  0.50703948  1
  O  O407  1  0.62376892  -0.00957612  0.01871887  1
  O  O408  1  0.63021970  -0.00662543  0.51640811  1
  O  O409  1  0.62180814  0.51077279  -0.00645187  1
  O  O410  1  0.62480982  0.50451759  0.50918492  1
  O  O411  1  0.37236659  0.38234991  0.11471852  1
  O  O412  1  0.37823679  0.36631755  0.61670297  1
  O  O413  1  0.37695136  0.87740321  0.11212323  1
  O  O414  1  0.36912310  0.86795321  0.62515308  1
  O  O415  1  0.87782845  0.36381798  0.11978466  1
  O  O416  1  0.87902114  0.36162302  0.62451886  1
  O  O417  1  0.87899897  0.86006624  0.12062019  1
  O  O418  1  0.86377435  0.87453830  0.61910588  1
  O  O419  1  0.12907367  0.11976367  0.38624806  1
  O  O420  1  0.13435416  0.12987725  0.88422289  1
  O  O421  1  0.13047764  0.63030155  0.38124417  1
  O  O422  1  0.12371427  0.63724743  0.88451668  1
  O  O423  1  0.63650630  0.13426106  0.36097369  1
  O  O424  1  0.63151290  0.13623009  0.86829637  1
  O  O425  1  0.62844084  0.62940143  0.37642196  1
  O  O426  1  0.61469459  0.62837098  0.88920516  1
