# generated using pymatgen
data_V85Zn86O256
_symmetry_space_group_name_H-M   'P 1'
_cell_length_a   16.98293589
_cell_length_b   16.98984780
_cell_length_c   16.97424490
_cell_angle_alpha   89.86909767
_cell_angle_beta   89.86765817
_cell_angle_gamma   89.87373867
_symmetry_Int_Tables_number   1
_chemical_formula_structural   V85Zn86O256
_chemical_formula_sum   'V85 Zn86 O256'
_cell_volume   4897.66843881
_cell_formula_units_Z   1
loop_
 _symmetry_equiv_pos_site_id
 _symmetry_equiv_pos_as_xyz
  1  'x, y, z'
loop_
 _atom_site_type_symbol
 _atom_site_label
 _atom_site_symmetry_multiplicity
 _atom_site_fract_x
 _atom_site_fract_y
 _atom_site_fract_z
 _atom_site_occupancy
  V  V0  1  0.49999222  0.62583250  0.62505770  1
  V  V1  1  0.49702750  0.50066230  0.49925916  1
  V  V2  1  -0.00063803  0.74864411  0.24722460  1
  V  V3  1  0.37742248  0.37158813  0.00708755  1
  V  V4  1  0.62403353  0.75108155  0.37465452  1
  V  V5  1  0.24825483  0.37573885  0.12710891  1
  V  V6  1  0.00235956  0.12015464  0.62554784  1
  V  V7  1  0.24633557  0.25280844  0.50329365  1
  V  V8  1  0.24927084  0.00050701  0.24624254  1
  V  V9  1  0.62640206  0.24887004  0.87515497  1
  V  V10  1  0.62639515  -0.00044394  0.13233410  1
  V  V11  1  0.24902231  0.62669756  0.37277492  1
  V  V12  1  0.74794644  0.87653653  0.62121218  1
  V  V13  1  0.24490735  0.49809022  0.24854849  1
  V  V14  1  0.87476862  0.12006701  0.75338504  1
  V  V15  1  0.75106359  0.37984382  0.12741219  1
  V  V16  1  0.00354161  0.27024188  0.25294766  1
  V  V17  1  0.50093753  0.11970938  0.60974812  1
  V  V18  1  0.88260418  0.37600478  0.49390587  1
  V  V19  1  0.74788741  0.37015899  0.62151663  1
  V  V20  1  0.12413623  -0.01482469  0.63265624  1
  V  V21  1  0.37430564  0.62475675  0.75877442  1
  V  V22  1  0.62642805  0.37942465  0.25056655  1
  V  V23  1  0.25139566  0.75303548  0.50472981  1
  V  V24  1  0.37541936  0.11785095  0.75574591  1
  V  V25  1  0.50660062  0.75189992  0.75404367  1
  V  V26  1  0.12025858  0.88264145  0.24597290  1
  V  V27  1  0.75832569  0.78521172  0.03267121  1
  V  V28  1  0.37105713  0.75995125  0.62199783  1
  V  V29  1  0.88397831  0.25034757  0.12546495  1
  V  V30  1  -0.00128004  0.50177506  -0.00247284  1
  V  V31  1  0.37202323  0.37573134  0.50444858  1
  V  V32  1  -0.00567997  0.60989420  0.61196796  1
  V  V33  1  0.50778406  0.87555205  0.87735470  1
  V  V34  1  0.88684951  0.00014716  0.37689470  1
  V  V35  1  0.25342143  0.24859304  0.00727983  1
  V  V36  1  0.49947960  0.24608122  0.75048410  1
  V  V37  1  0.62547870  0.12573372  0.00175536  1
  V  V38  1  0.49657072  0.13221290  0.12798520  1
  V  V39  1  0.73481926  0.63191151  0.87847001  1
  V  V40  1  0.62371406  0.62425443  0.49851704  1
  V  V41  1  0.36886943  0.25197703  0.62871255  1
  V  V42  1  0.50030506  0.37299599  0.87732208  1
  V  V43  1  0.24607287  -0.01204668  0.75157944  1
  V  V44  1  0.12341244  0.50422546  0.12181605  1
  V  V45  1  0.24731822  0.12575992  0.37459784  1
  V  V46  1  -0.02160188  -0.00806113  0.00334295  1
  V  V47  1  0.24639187  0.74851974  -0.00170873  1
  V  V48  1  0.88279322  0.87586720  0.49463229  1
  V  V49  1  0.50398507  0.50762915  0.00083108  1
  V  V50  1  0.62752219  0.87913957  0.75013799  1
  V  V51  1  0.37270220  0.50032456  0.37489924  1
  V  V52  1  0.12497923  0.25107947  0.87781566  1
  V  V53  1  0.37404742  0.13140227  0.24819425  1
  V  V54  1  0.00999534  0.74474753  0.74572329  1
  V  V55  1  0.74637378  0.24414915  0.49739391  1
  V  V56  1  0.74984974  0.74973606  0.49584749  1
  V  V57  1  0.00117501  0.24998830  0.75177916  1
  V  V58  1  0.11588042  0.61634411  0.49425831  1
  V  V59  1  0.87260267  0.62380993  0.24471598  1
  V  V60  1  0.25228813  0.11906905  0.87778409  1
  V  V61  1  0.37739535  0.75231648  0.12472761  1
  V  V62  1  0.75491764  0.11723241  0.87535319  1
  V  V63  1  0.49852085  0.00069989  -0.00175654  1
  V  V64  1  0.11898265  0.26334789  0.37221846  1
  V  V65  1  0.62218951  0.00289138  0.60523360  1
  V  V66  1  0.61903242  0.87907768  0.24973380  1
  V  V67  1  0.49068378  0.88088811  0.39175201  1
  V  V68  1  0.74764896  0.61276302  0.37012563  1
  V  V69  1  0.87321958  0.49717591  0.87303478  1
  V  V70  1  0.12320788  0.75981783  0.37432816  1
  V  V71  1  0.87247622  0.62143217  0.74369251  1
  V  V72  1  0.89502627  0.49604531  0.37436342  1
  V  V73  1  0.75252303  0.25035702  0.00092077  1
  V  V74  1  0.49757166  0.75095436  0.24981233  1
  V  V75  1  0.37666365  0.87916279  -0.00345718  1
  V  V76  1  0.87263054  0.74667238  0.61922239  1
  V  V77  1  0.62202396  0.24579933  0.37371639  1
  V  V78  1  0.62378373  0.37118837  0.74776043  1
  V  V79  1  0.74741909  0.49490041  0.74596341  1
  V  V80  1  0.88616891  0.13403221  0.25157003  1
  V  V81  1  0.12090385  0.11363169  0.01628486  1
  V  V82  1  0.74978250  0.12362560  0.37011415  1
  V  V83  1  0.62640265  0.50624587  0.12391813  1
  V  V84  1  0.78252395  -0.03320184  0.23608301  1
  Zn  Zn85  1  0.49411906  0.25428134  0.24688378  1
  Zn  Zn86  1  0.11397258  0.63258794  -0.00574927  1
  Zn  Zn87  1  0.13127152  0.75417191  0.85663070  1
  Zn  Zn88  1  0.00551785  0.37954791  0.86980268  1
  Zn  Zn89  1  0.12910817  0.49233473  0.62481277  1
  Zn  Zn90  1  0.24604142  0.48794993  0.75066624  1
  Zn  Zn91  1  0.38073778  0.00429668  0.39212743  1
  Zn  Zn92  1  0.24642314  0.88181564  0.12048486  1
  Zn  Zn93  1  0.50841066  0.63027518  0.12080736  1
  Zn  Zn94  1  0.01211145  -0.00816611  0.49754311  1
  Zn  Zn95  1  0.49833320  0.37453447  0.37256986  1
  Zn  Zn96  1  0.14489725  0.36580476  0.73056717  1
  Zn  Zn97  1  0.12253027  0.12445947  0.50141305  1
  Zn  Zn98  1  0.37283143  0.49753903  0.87808275  1
  Zn  Zn99  1  0.62266529  0.49583386  0.62235342  1
  Zn  Zn100  1  -0.00957545  0.63400261  0.11882912  1
  Zn  Zn101  1  0.24125476  0.61864933  0.87857275  1
  Zn  Zn102  1  0.87632294  0.24804392  0.62102943  1
  Zn  Zn103  1  0.37557112  0.62459259  0.24670027  1
  Zn  Zn104  1  0.75145725  -0.00127843  0.74980803  1
  Zn  Zn105  1  -0.00470406  0.87903153  0.87712201  1
  Zn  Zn106  1  0.87739581  0.37302676  -0.00189851  1
  Zn  Zn107  1  0.18510534  0.19132530  0.19111403  1
  Zn  Zn108  1  0.18612896  0.18122052  0.69115377  1
  Zn  Zn109  1  0.18587033  0.68975877  0.18333807  1
  Zn  Zn110  1  0.19455524  0.65754479  0.67508880  1
  Zn  Zn111  1  0.68993564  0.19084391  0.18953909  1
  Zn  Zn112  1  0.68539018  0.18251034  0.68486264  1
  Zn  Zn113  1  0.69227224  0.69265882  0.18709348  1
  Zn  Zn114  1  0.68805090  0.68777872  0.68796370  1
  Zn  Zn115  1  0.30952548  0.31487644  0.31443778  1
  Zn  Zn116  1  0.31268724  0.31074906  0.81893251  1
  Zn  Zn117  1  0.30942842  0.81616763  0.31454442  1
  Zn  Zn118  1  0.32187060  0.81116910  0.81547683  1
  Zn  Zn119  1  0.81073262  0.31599271  0.31219848  1
  Zn  Zn120  1  0.81351988  0.30787018  0.81059620  1
  Zn  Zn121  1  0.81626997  0.81027057  0.30710789  1
  Zn  Zn122  1  0.81748475  0.80921826  0.82044576  1
  Zn  Zn123  1  0.18796747  0.43678613  0.43979897  1
  Zn  Zn124  1  0.18920351  0.43967467  0.93535843  1
  Zn  Zn125  1  0.22453021  0.95823352  0.46700801  1
  Zn  Zn126  1  0.17624075  0.93137433  0.93155389  1
  Zn  Zn127  1  0.68580482  0.43308991  0.43914974  1
  Zn  Zn128  1  0.68852381  0.43878068  0.93789782  1
  Zn  Zn129  1  0.69395950  0.93571940  0.42524117  1
  Zn  Zn130  1  0.69063014  0.93439488  0.94233680  1
  Zn  Zn131  1  0.31352671  0.06388206  0.06513226  1
  Zn  Zn132  1  0.31377279  0.06541515  0.57037543  1
  Zn  Zn133  1  0.31856248  0.56412362  0.06316719  1
  Zn  Zn134  1  0.31032960  0.56686863  0.56550635  1
  Zn  Zn135  1  0.81160592  0.06639738  0.06925487  1
  Zn  Zn136  1  0.81365448  0.06153853  0.56339858  1
  Zn  Zn137  1  0.80841127  0.56560206  0.05744705  1
  Zn  Zn138  1  0.80944141  0.55598226  0.55565437  1
  Zn  Zn139  1  0.43826523  0.43945207  0.18749440  1
  Zn  Zn140  1  0.43521711  0.43707296  0.68885330  1
  Zn  Zn141  1  0.43399349  0.94320864  0.19040804  1
  Zn  Zn142  1  0.43880064  0.94075559  0.68403391  1
  Zn  Zn143  1  0.93511240  0.44280878  0.18697590  1
  Zn  Zn144  1  0.93597025  0.43050321  0.68329725  1
  Zn  Zn145  1  0.94949342  0.94150606  0.18491100  1
  Zn  Zn146  1  0.92077602  0.91648133  0.71508676  1
  Zn  Zn147  1  0.06535748  0.06972663  0.31010539  1
  Zn  Zn148  1  0.06312448  0.06074557  0.82042325  1
  Zn  Zn149  1  0.06330919  0.56595868  0.30752257  1
  Zn  Zn150  1  0.06775462  0.56455655  0.80992980  1
  Zn  Zn151  1  0.55821463  0.06281252  0.31813731  1
  Zn  Zn152  1  0.56552290  0.06159142  0.81096794  1
  Zn  Zn153  1  0.56148971  0.56220799  0.31094221  1
  Zn  Zn154  1  0.55987743  0.55618249  0.81125746  1
  Zn  Zn155  1  0.43239042  0.19055907  0.43410565  1
  Zn  Zn156  1  0.43642709  0.18725879  0.93913063  1
  Zn  Zn157  1  0.43483799  0.69030416  0.43705974  1
  Zn  Zn158  1  0.44324012  0.69323477  0.93873425  1
  Zn  Zn159  1  0.93850771  0.18759440  0.43963993  1
  Zn  Zn160  1  0.94090907  0.17992867  0.94032294  1
  Zn  Zn161  1  0.93612925  0.68828726  0.42876207  1
  Zn  Zn162  1  0.92409554  0.69005811  0.93432705  1
  Zn  Zn163  1  0.06541752  0.31570272  0.05988572  1
  Zn  Zn164  1  0.06226735  0.31130027  0.56421948  1
  Zn  Zn165  1  0.05704284  0.82312384  0.06406833  1
  Zn  Zn166  1  0.06395942  0.80246058  0.56619559  1
  Zn  Zn167  1  0.56633629  0.31508455  0.06307071  1
  Zn  Zn168  1  0.55891136  0.30766019  0.56091046  1
  Zn  Zn169  1  0.57413901  0.80985835  0.06041780  1
  Zn  Zn170  1  0.56328307  0.81151515  0.56551514  1
  O  O171  1  0.13041565  0.12901539  0.11462821  1
  O  O172  1  0.11466223  0.11996214  0.62627679  1
  O  O173  1  0.12417867  0.61434894  0.11706772  1
  O  O174  1  0.10631215  0.62244406  0.60762178  1
  O  O175  1  0.61974881  0.11779644  0.12395320  1
  O  O176  1  0.61312753  0.11516302  0.62753930  1
  O  O177  1  0.62873280  0.61053139  0.13472787  1
  O  O178  1  0.61313675  0.62526970  0.61962795  1
  O  O179  1  0.37496140  0.38098123  0.38567841  1
  O  O180  1  0.38300109  0.37295917  0.88984106  1
  O  O181  1  0.38887797  0.87447700  0.37175157  1
  O  O182  1  0.39183775  0.87357381  0.88775877  1
  O  O183  1  0.86915523  0.39016879  0.37714286  1
  O  O184  1  0.87457937  0.38717303  0.87307279  1
  O  O185  1  0.87033219  0.88712379  0.38300098  1
  O  O186  1  0.89368000  0.88591113  0.82597748  1
  O  O187  1  0.24129039  0.01584193  0.36160291  1
  O  O188  1  0.24092624  0.01006232  0.86335595  1
  O  O189  1  0.25185951  0.50655723  0.36647156  1
  O  O190  1  0.25732110  0.50467275  0.87154608  1
  O  O191  1  0.76353219  0.00523809  0.35528440  1
  O  O192  1  0.74075210  0.01494941  0.87266716  1
  O  O193  1  0.74451102  0.51153533  0.37600694  1
  O  O194  1  0.75543460  0.50380456  0.86544784  1
  O  O195  1  0.24508585  0.49708327  0.12897596  1
  O  O196  1  0.23634464  0.54185522  0.64514457  1
  O  O197  1  0.25522144  1.00018997  0.14137909  1
  O  O198  1  0.23566469  1.00771724  0.64245275  1
  O  O199  1  0.74126577  0.48758594  0.11552372  1
  O  O200  1  0.74603904  0.48930592  0.62769495  1
  O  O201  1  0.74156833  1.01122498  0.14565503  1
  O  O202  1  0.74018219  0.99567524  0.62633493  1
  O  O203  1  -0.00060665  0.36950986  0.25109842  1
  O  O204  1  -0.00388921  0.35703051  0.75096392  1
  O  O205  1  0.01503502  0.86871309  0.24997594  1
  O  O206  1  0.00954290  0.84325009  0.72562630  1
  O  O207  1  0.50799918  0.37147047  0.25056181  1
  O  O208  1  0.50224042  0.36655284  0.75572440  1
  O  O209  1  0.50389205  0.86787941  0.25529266  1
  O  O210  1  0.50592661  0.87203301  0.75810838  1
  O  O211  1  0.49095399  0.12534415  0.24454120  1
  O  O212  1  0.49045340  0.12704382  0.74916107  1
  O  O213  1  0.49795838  0.64077794  0.25002774  1
  O  O214  1  0.49787487  0.63359471  0.74405209  1
  O  O215  1  0.99088667  0.14165887  0.25511446  1
  O  O216  1  0.99464442  0.13002020  0.74794265  1
  O  O217  1  0.99244565  0.63064227  0.24376189  1
  O  O218  1  0.98589058  0.62243123  0.73515648  1
  O  O219  1  0.36427693  0.25724364  -0.00076139  1
  O  O220  1  0.36703430  0.25701926  0.50771890  1
  O  O221  1  0.37255562  0.76012166  0.00662787  1
  O  O222  1  0.36424908  0.74045517  0.51027374  1
  O  O223  1  0.87379003  0.24954855  0.00961303  1
  O  O224  1  0.86157453  0.25681881  0.49490471  1
  O  O225  1  0.84593352  0.74746806  -0.00909946  1
  O  O226  1  0.86985877  0.75663394  0.49842865  1
  O  O227  1  0.13122594  0.24813462  0.48939558  1
  O  O228  1  0.13328767  0.24009203  0.99656796  1
  O  O229  1  0.12849326  0.73740113  0.49187796  1
  O  O230  1  0.14331546  0.75315876  1.01269300  1
  O  O231  1  0.63493464  0.25553534  0.48673669  1
  O  O232  1  0.63145783  0.24449891  0.99548244  1
  O  O233  1  0.62918026  0.74336268  0.49463937  1
  O  O234  1  0.65993980  0.76123024  1.00617010  1
  O  O235  1  0.50803122  0.23555251  0.12527356  1
  O  O236  1  0.49061155  0.23974321  0.63024044  1
  O  O237  1  0.49689305  0.75194370  0.13090117  1
  O  O238  1  0.49345517  0.74267858  0.63131196  1
  O  O239  1  0.99099392  0.26194230  0.13323896  1
  O  O240  1  1.00087843  0.23744144  0.63545954  1
  O  O241  1  1.00554690  0.75039430  0.14082680  1
  O  O242  1  0.99002259  0.73095685  0.62590115  1
  O  O243  1  0.01307282  0.24910635  0.37154124  1
  O  O244  1  0.00895672  0.24591101  0.86883364  1
  O  O245  1  0.01317518  0.74318252  0.36195804  1
  O  O246  1  -0.00902597  0.74008936  0.84960008  1
  O  O247  1  0.51063387  0.25019304  0.37388975  1
  O  O248  1  0.50607529  0.25273303  0.87134613  1
  O  O249  1  0.50250849  0.75785650  0.36792649  1
  O  O250  1  0.50192864  0.76160784  0.86529966  1
  O  O251  1  0.25000240  0.14036378  0.49106723  1
  O  O252  1  0.24879254  0.13169759  0.99680582  1
  O  O253  1  0.24035517  0.62990562  0.48666190  1
  O  O254  1  0.25791000  0.64166295  0.99930779  1
  O  O255  1  0.75801972  0.13252136  0.48369911  1
  O  O256  1  0.74472540  0.13026740  0.99512199  1
  O  O257  1  0.74312031  0.62936972  0.49061009  1
  O  O258  1  0.74710889  0.61694337  0.97780883  1
  O  O259  1  0.25804498  0.36868909  0.00642708  1
  O  O260  1  0.26082491  0.36432687  0.49636751  1
  O  O261  1  0.26090011  0.86890413  0.00018221  1
  O  O262  1  0.23679571  0.84997459  0.49657260  1
  O  O263  1  0.75225900  0.36765120  0.00812483  1
  O  O264  1  0.75552465  0.36437726  0.50226307  1
  O  O265  1  0.76014507  0.88678158  0.01538586  1
  O  O266  1  0.75817207  0.86910752  0.50130831  1
  O  O267  1  0.13682883  0.50620263  0.23879652  1
  O  O268  1  0.12346987  0.48754848  0.74903914  1
  O  O269  1  0.12769593  0.98815785  0.25484796  1
  O  O270  1  0.13408411  1.00157840  0.74467616  1
  O  O271  1  0.61766425  0.48791513  0.24080872  1
  O  O272  1  0.62814384  0.48766921  0.74489209  1
  O  O273  1  0.61726650  0.99394752  0.24397715  1
  O  O274  1  0.62540097  0.98917303  0.74136899  1
  O  O275  1  0.36607146  0.01102645  0.25879946  1
  O  O276  1  0.36100113  0.01042230  0.74181865  1
  O  O277  1  0.36405351  0.50357426  0.25412790  1
  O  O278  1  0.37980248  0.51778479  0.75140056  1
  O  O279  1  0.88435790  0.01976227  0.25794915  1
  O  O280  1  0.87139704  0.01791062  0.73990478  1
  O  O281  1  0.87937660  0.50808425  0.26547988  1
  O  O282  1  0.86924029  0.50282452  0.75288243  1
  O  O283  1  0.12970857  0.36174942  0.37782041  1
  O  O284  1  0.12579283  0.35745193  0.88111190  1
  O  O285  1  0.13150772  0.86147794  0.36293302  1
  O  O286  1  0.10973029  0.86081642  0.87851117  1
  O  O287  1  0.62431697  0.36668968  0.36585894  1
  O  O288  1  0.62072038  0.36755795  0.86910389  1
  O  O289  1  0.60854566  0.87058581  0.37092223  1
  O  O290  1  0.61742054  0.88183443  0.86551192  1
  O  O291  1  0.38549806  0.12079564  0.13533499  1
  O  O292  1  0.38175364  0.13200623  0.63534739  1
  O  O293  1  0.38123268  0.64025419  0.12617634  1
  O  O294  1  0.38751538  0.63342107  0.63690438  1
  O  O295  1  0.86832472  0.14295554  0.13840561  1
  O  O296  1  0.88440908  0.12746207  0.63132254  1
  O  O297  1  0.87115636  0.61318212  0.14029790  1
  O  O298  1  0.87462920  0.62459370  0.62437746  1
  O  O299  1  0.24173327  0.26247989  0.11677934  1
  O  O300  1  0.26051253  0.23802539  0.61690335  1
  O  O301  1  0.26221785  0.75429871  0.11690581  1
  O  O302  1  0.25994972  0.73505880  0.61572367  1
  O  O303  1  0.75835448  0.25942993  0.12007606  1
  O  O304  1  0.74831454  0.24981236  0.61238447  1
  O  O305  1  0.75989405  0.76380715  0.13314992  1
  O  O306  1  0.75278286  0.75425919  0.61532453  1
  O  O307  1  0.23996519  0.24539147  0.38035442  1
  O  O308  1  0.24452260  0.24044248  0.88759348  1
  O  O309  1  0.24501304  0.74092521  0.37877997  1
  O  O310  1  0.25406200  0.75337497  0.89116339  1
  O  O311  1  0.74275686  0.24421308  0.37894780  1
  O  O312  1  0.74522132  0.24212835  0.88122563  1
  O  O313  1  0.74329126  0.74242180  0.37917946  1
  O  O314  1  0.74952459  0.73052777  0.85838730  1
  O  O315  1  0.01674216  0.11602225  -0.00018390  1
  O  O316  1  -0.00024259  0.12038440  0.51311164  1
  O  O317  1  -0.00737808  0.61712668  0.00110625  1
  O  O318  1  0.00398354  0.62798187  0.50008532  1
  O  O319  1  0.50360736  0.11885125  0.00689434  1
  O  O320  1  0.48945940  0.12693016  0.51104903  1
  O  O321  1  0.49733826  0.61231114  0.00014324  1
  O  O322  1  0.50280232  0.62193070  0.50686012  1
  O  O323  1  0.48818177  0.38010600  0.49838009  1
  O  O324  1  0.49321550  0.37858352  0.99881357  1
  O  O325  1  0.49799436  0.86677105  0.48987137  1
  O  O326  1  0.49959648  0.88064741  0.99566746  1
  O  O327  1  0.98055114  0.36271244  0.50128546  1
  O  O328  1  0.99808867  0.38827948  0.99436162  1
  O  O329  1  0.98616666  0.87329905  0.50795361  1
  O  O330  1  0.98790258  0.88470283  0.99996374  1
  O  O331  1  0.49051369  0.50093930  0.38167449  1
  O  O332  1  0.49892416  0.49033079  0.88451295  1
  O  O333  1  0.49801462  0.98612021  0.37823970  1
  O  O334  1  0.50784641  0.99430482  0.89072079  1
  O  O335  1  0.99351485  0.50146096  0.37543326  1
  O  O336  1  0.99020265  0.50184624  0.88004790  1
  O  O337  1  0.99063616  1.00941202  0.37915084  1
  O  O338  1  1.01079306  0.99988682  0.89853433  1
  O  O339  1  0.00063629  -0.00199887  0.10483691  1
  O  O340  1  0.01446672  0.00637315  0.63113325  1
  O  O341  1  0.00771260  0.50039033  0.11517107  1
  O  O342  1  -0.00616003  0.50820049  0.62177311  1
  O  O343  1  0.50749985  0.01010507  0.11915677  1
  O  O344  1  0.50848015  0.00816708  0.62578937  1
  O  O345  1  0.50800287  0.50350120  0.11806946  1
  O  O346  1  0.49797820  0.51059825  0.61932899  1
  O  O347  1  0.25597128  0.38616909  0.23951588  1
  O  O348  1  0.25847865  0.37361203  0.74717132  1
  O  O349  1  0.24129205  0.88452058  0.25072088  1
  O  O350  1  0.25773614  0.89017582  0.76009972  1
  O  O351  1  0.73920226  0.37009449  0.23816428  1
  O  O352  1  0.74425350  0.37422216  0.74219103  1
  O  O353  1  0.72271589  0.87664093  0.27266813  1
  O  O354  1  0.73905780  0.87384116  0.74181869  1
  O  O355  1  0.25448672  0.12260215  0.25515423  1
  O  O356  1  0.25791557  0.12141033  0.76101733  1
  O  O357  1  0.25044039  0.61910876  0.25756716  1
  O  O358  1  0.27299693  0.64316784  0.76285699  1
  O  O359  1  0.76689800  0.13730698  0.26201541  1
  O  O360  1  0.75701396  0.12734963  0.75869848  1
  O  O361  1  0.75975418  0.63352650  0.26220629  1
  O  O362  1  0.75698976  0.61480333  0.74753581  1
  O  O363  1  0.36349580  0.12511414  0.36833884  1
  O  O364  1  0.36519825  0.12872123  0.86793477  1
  O  O365  1  0.36326691  0.62005828  0.37389303  1
  O  O366  1  0.38691677  0.62663396  0.86304468  1
  O  O367  1  0.87037825  0.12019143  0.37023795  1
  O  O368  1  0.86473239  0.13129690  0.86721716  1
  O  O369  1  0.86813060  0.60996926  0.37144386  1
  O  O370  1  0.86485809  0.61214778  0.86020707  1
  O  O371  1  0.13823885  0.39054611  0.11557027  1
  O  O372  1  0.12806258  0.37896142  0.61833371  1
  O  O373  1  0.13041654  0.87071570  0.14241358  1
  O  O374  1  0.12233752  0.88709275  0.62217425  1
  O  O375  1  0.63197217  0.38112131  0.13213735  1
  O  O376  1  0.62848841  0.37134779  0.62962966  1
  O  O377  1  0.61700161  0.89018407  0.13669390  1
  O  O378  1  0.62753804  0.88395826  0.62934239  1
  O  O379  1  0.11867627  0.25014448  0.26370044  1
  O  O380  1  0.11855352  0.24718845  0.76043452  1
  O  O381  1  0.12208287  0.75647887  0.25583026  1
  O  O382  1  0.11149420  0.72342675  0.73943656  1
  O  O383  1  0.62306016  0.25962393  0.25771008  1
  O  O384  1  0.61866752  0.25205471  0.75480128  1
  O  O385  1  0.61440072  0.75891548  0.25342501  1
  O  O386  1  0.61364118  0.76425605  0.73744627  1
  O  O387  1  0.37375770  0.23684361  0.25669894  1
  O  O388  1  0.37926391  0.23927562  0.74506180  1
  O  O389  1  0.38168865  0.75417329  0.24120318  1
  O  O390  1  0.38934187  0.74404730  0.74532007  1
  O  O391  1  0.88502299  0.25234373  0.24686812  1
  O  O392  1  0.88386023  0.23879501  0.74749408  1
  O  O393  1  0.88851532  0.73397757  0.26493492  1
  O  O394  1  0.87831732  0.73286977  0.73662573  1
  O  O395  1  0.37464761  0.49394031  0.49824335  1
  O  O396  1  0.38571699  0.49024905  1.00128597  1
  O  O397  1  0.33189533  0.99077508  0.49261633  1
  O  O398  1  0.38757547  0.99096547  1.00979101  1
  O  O399  1  0.87063204  0.49129045  0.48308513  1
  O  O400  1  0.88136384  0.49943813  0.98953095  1
  O  O401  1  0.87545682  0.99209948  0.49184181  1
  O  O402  1  0.88022560  1.01264388  0.99915013  1
  O  O403  1  0.14081989  0.01511105  0.00345064  1
  O  O404  1  0.12978960  0.00475671  0.51781134  1
  O  O405  1  0.11517174  0.50478012  0.00259863  1
  O  O406  1  0.12921797  0.51410887  0.49596516  1
  O  O407  1  0.61851085  0.00542013  0.01323036  1
  O  O408  1  0.63309503  -0.00506799  0.50624833  1
  O  O409  1  0.61356757  0.48948188  0.01110499  1
  O  O410  1  0.61582928  0.50566545  0.50082632  1
  O  O411  1  0.36444320  0.38033708  0.11554153  1
  O  O412  1  0.38091675  0.36255752  0.61715767  1
  O  O413  1  0.37774715  0.86785125  0.11574352  1
  O  O414  1  0.37899074  0.85876250  0.63280971  1
  O  O415  1  0.86625710  0.36931061  0.12527144  1
  O  O416  1  0.86523478  0.36949229  0.61386648  1
  O  O417  1  0.84686017  0.89210286  0.20353057  1
  O  O418  1  0.86587173  0.86771452  0.61741705  1
  O  O419  1  0.13429372  0.13590106  0.37733044  1
  O  O420  1  0.13663168  0.13423184  0.88432162  1
  O  O421  1  0.13292602  0.63213844  0.37593001  1
  O  O422  1  0.12635467  0.63804669  0.87914625  1
  O  O423  1  0.63685011  0.13389338  0.36372045  1
  O  O424  1  0.63181805  0.13074899  0.88094837  1
  O  O425  1  0.62942652  0.63075115  0.37751906  1
  O  O426  1  0.63628270  0.62009110  0.86242325  1
