# generated using pymatgen
data_V85Zn86O256
_symmetry_space_group_name_H-M   'P 1'
_cell_length_a   16.94874942
_cell_length_b   16.97020149
_cell_length_c   16.95297208
_cell_angle_alpha   90.07093473
_cell_angle_beta   89.96846930
_cell_angle_gamma   90.04329037
_symmetry_Int_Tables_number   1
_chemical_formula_structural   V85Zn86O256
_chemical_formula_sum   'V85 Zn86 O256'
_cell_volume   4876.07056635
_cell_formula_units_Z   1
loop_
 _symmetry_equiv_pos_site_id
 _symmetry_equiv_pos_as_xyz
  1  'x, y, z'
loop_
 _atom_site_type_symbol
 _atom_site_label
 _atom_site_symmetry_multiplicity
 _atom_site_fract_x
 _atom_site_fract_y
 _atom_site_fract_z
 _atom_site_occupancy
  V  V0  1  0.62947801  -0.00290812  0.63775048  1
  V  V1  1  0.12876201  0.74954466  0.88109738  1
  V  V2  1  0.75266798  0.37545099  0.61831862  1
  V  V3  1  0.00642126  0.25090478  0.25418648  1
  V  V4  1  0.48832967  0.12663868  0.12970831  1
  V  V5  1  0.87477326  0.00591155  0.37615420  1
  V  V6  1  -0.00136114  0.00191868  -0.00055299  1
  V  V7  1  0.37826423  0.49890762  0.39095237  1
  V  V8  1  -0.00625485  0.49431010  0.50142595  1
  V  V9  1  0.88061656  0.62836226  0.25099257  1
  V  V10  1  0.50081646  0.63058166  0.63335662  1
  V  V11  1  0.12416105  0.25042686  0.87482416  1
  V  V12  1  -0.00012112  0.62605329  0.62554565  1
  V  V13  1  0.12536624  0.50054842  0.62695242  1
  V  V14  1  0.74961971  0.00651410  0.25532271  1
  V  V15  1  0.00677972  0.37266805  0.37555705  1
  V  V16  1  0.00706987  0.75399285  0.75011241  1
  V  V17  1  0.50037474  0.12235267  0.62270843  1
  V  V18  1  -0.00072680  0.11956402  0.61841166  1
  V  V19  1  0.24235827  -0.00167338  0.74965820  1
  V  V20  1  0.88029439  0.88038186  0.49935313  1
  V  V21  1  -0.00557601  0.12852926  0.12801887  1
  V  V22  1  0.74852205  0.25483853  0.00761116  1
  V  V23  1  0.74949359  0.75175342  0.49946316  1
  V  V24  1  0.00581760  0.87699156  0.87245241  1
  V  V25  1  0.63010283  0.12318687  0.49301112  1
  V  V26  1  0.88060312  0.75042468  0.12993546  1
  V  V27  1  0.61795186  0.49941603  0.62017226  1
  V  V28  1  0.37879023  0.62270797  0.23474856  1
  V  V29  1  0.74998115  0.24775597  0.49368216  1
  V  V30  1  0.49807053  0.37736546  0.38614921  1
  V  V31  1  0.12768878  -0.00239391  0.12821609  1
  V  V32  1  0.74803407  0.74990116  0.00207820  1
  V  V33  1  0.62281379  0.37464573  0.75334641  1
  V  V34  1  0.37272415  0.25554984  0.61594097  1
  V  V35  1  0.62535381  -0.00277860  0.13100639  1
  V  V36  1  0.49750397  0.48206140  0.00161503  1
  V  V37  1  0.24882297  0.12463361  0.87517287  1
  V  V38  1  0.12724027  0.13079543  0.49696319  1
  V  V39  1  0.62484340  0.12307393  0.00205997  1
  V  V40  1  0.12259736  -0.00199717  0.61890026  1
  V  V41  1  0.13330241  0.87338975  0.24778150  1
  V  V42  1  0.38001074  0.75213956  0.63243560  1
  V  V43  1  0.36542158  0.86089921  0.00943790  1
  V  V44  1  0.26202856  0.37247200  0.12120033  1
  V  V45  1  0.86759332  -0.00059391  0.87155690  1
  V  V46  1  0.61676059  0.62177244  0.49950636  1
  V  V47  1  0.00485314  0.50438918  0.00111671  1
  V  V48  1  0.62353250  0.25134507  0.87546747  1
  V  V49  1  0.74827499  0.62628169  0.87442172  1
  V  V50  1  0.24575760  0.87471451  0.62761344  1
  V  V51  1  0.38131051  0.48472218  0.87324868  1
  V  V52  1  0.50025137  0.87358859  0.37280728  1
  V  V53  1  0.87458611  0.62510073  0.75092918  1
  V  V54  1  0.37430703  -0.00216947  0.87685311  1
  V  V55  1  0.87067228  0.37633150  0.00492647  1
  V  V56  1  0.87482564  0.75195440  0.62483821  1
  V  V57  1  -0.00003882  0.25006296  0.74957907  1
  V  V58  1  0.62728963  0.37452619  0.24215679  1
  V  V59  1  0.61321522  0.62682970  0.00572872  1
  V  V60  1  0.50134546  0.86951863  0.86561235  1
  V  V61  1  -0.00049097  0.87663395  0.36819855  1
  V  V62  1  0.49882832  0.25092607  0.75216073  1
  V  V63  1  0.11847261  0.74839674  0.37021126  1
  V  V64  1  0.62211662  0.75332227  0.37146076  1
  V  V65  1  0.26336520  0.25275043  0.00171594  1
  V  V66  1  0.48707779  0.24909499  0.24587243  1
  V  V67  1  0.74864287  0.62451898  0.37568486  1
  V  V68  1  0.86682139  0.12063990  0.74873708  1
  V  V69  1  0.74779851  0.87926060  0.63746667  1
  V  V70  1  0.74889412  0.49671343  0.24056255  1
  V  V71  1  0.12463109  0.62517358  0.49979580  1
  V  V72  1  0.37470028  0.00255585  0.36900454  1
  V  V73  1  0.25010034  0.12986786  0.36688560  1
  V  V74  1  0.25359383  0.63019054  0.37565589  1
  V  V75  1  0.74964230  0.50087446  0.75023370  1
  V  V76  1  0.87294557  0.49412314  0.37825425  1
  V  V77  1  0.25371132  0.62828363  0.87995996  1
  V  V78  1  0.12283993  0.12802341  0.00026534  1
  V  V79  1  0.74626842  0.87533282  0.13224018  1
  V  V80  1  0.37515426  0.87647402  0.49842947  1
  V  V81  1  0.12798530  0.37640539  0.74842528  1
  V  V82  1  0.49689030  0.74752992  0.23864428  1
  V  V83  1  0.62211659  0.75380490  0.86316691  1
  V  V84  1  0.87440172  0.25310217  0.62158924  1
  Zn  Zn85  1  0.24877174  0.75045070  0.50213101  1
  Zn  Zn86  1  0.74485851  0.11833885  0.87053978  1
  Zn  Zn87  1  0.61761690  0.50376242  0.12563888  1
  Zn  Zn88  1  0.50381587  -0.00154134  0.49909723  1
  Zn  Zn89  1  0.37358249  0.12418506  0.74839559  1
  Zn  Zn90  1  0.12652477  0.49845632  0.13016423  1
  Zn  Zn91  1  0.24766272  0.25916552  0.48930793  1
  Zn  Zn92  1  0.87018783  0.13111044  0.25840681  1
  Zn  Zn93  1  0.86947518  0.25499594  0.12978335  1
  Zn  Zn94  1  0.49814767  -0.00326666  0.00378199  1
  Zn  Zn95  1  0.62735559  0.24695207  0.37167826  1
  Zn  Zn96  1  0.37828895  0.62882576  0.75450268  1
  Zn  Zn97  1  -0.00261569  0.37595749  0.87552841  1
  Zn  Zn98  1  0.12777838  0.37545321  0.24782145  1
  Zn  Zn99  1  0.00363468  0.62845703  0.12900497  1
  Zn  Zn100  1  0.13650898  0.63285592  0.01079901  1
  Zn  Zn101  1  0.87510747  0.87664265  0.00175280  1
  Zn  Zn102  1  0.25416846  0.50132649  0.75007062  1
  Zn  Zn103  1  0.25221559  0.49644442  0.24859736  1
  Zn  Zn104  1  0.87335422  0.49813286  0.87539667  1
  Zn  Zn105  1  0.25681893  0.00055201  0.24402119  1
  Zn  Zn106  1  0.25874346  0.38325141  0.61515187  1
  Zn  Zn107  1  0.18741667  0.19074308  0.18497070  1
  Zn  Zn108  1  0.18765202  0.18544710  0.68706099  1
  Zn  Zn109  1  0.18636408  0.68267218  0.18860384  1
  Zn  Zn110  1  0.19118242  0.68592678  0.69193300  1
  Zn  Zn111  1  0.68168538  0.18658164  0.18983823  1
  Zn  Zn112  1  0.68610492  0.18644048  0.68301896  1
  Zn  Zn113  1  0.68814107  0.68429494  0.18867329  1
  Zn  Zn114  1  0.68912088  0.68896900  0.68476740  1
  Zn  Zn115  1  0.31279057  0.31653544  0.31133009  1
  Zn  Zn116  1  0.30967886  0.30955055  0.80795661  1
  Zn  Zn117  1  0.30981187  0.80735232  0.17913148  1
  Zn  Zn118  1  0.31125901  0.81514857  0.81431410  1
  Zn  Zn119  1  0.81581046  0.31498338  0.30987504  1
  Zn  Zn120  1  0.81021061  0.31114512  0.81492916  1
  Zn  Zn121  1  0.81052938  0.81513764  0.31250186  1
  Zn  Zn122  1  0.81657861  0.81102395  0.81598745  1
  Zn  Zn123  1  0.18832637  0.44033780  0.43838467  1
  Zn  Zn124  1  0.19206121  0.43685613  0.93655683  1
  Zn  Zn125  1  0.18930507  0.94013662  0.43585837  1
  Zn  Zn126  1  0.18609361  0.93625263  0.94148157  1
  Zn  Zn127  1  0.68478018  0.43589726  0.43338822  1
  Zn  Zn128  1  0.68557927  0.43885282  0.93914915  1
  Zn  Zn129  1  0.68943049  0.93814689  0.44286599  1
  Zn  Zn130  1  0.68556427  0.93464304  0.94022600  1
  Zn  Zn131  1  0.30922442  0.06076257  0.05779963  1
  Zn  Zn132  1  0.31189063  0.06540536  0.55686862  1
  Zn  Zn133  1  0.31474030  0.55505919  0.05670043  1
  Zn  Zn134  1  0.31265133  0.56510384  0.56472902  1
  Zn  Zn135  1  0.81077603  0.06343924  0.06083802  1
  Zn  Zn136  1  0.80976568  0.06122856  0.56200689  1
  Zn  Zn137  1  0.81420013  0.56488080  0.06087675  1
  Zn  Zn138  1  0.80935586  0.56445802  0.56298088  1
  Zn  Zn139  1  0.43764317  0.43758822  0.19028572  1
  Zn  Zn140  1  0.43947673  0.43832639  0.68847636  1
  Zn  Zn141  1  0.44314481  0.93694051  0.18914706  1
  Zn  Zn142  1  0.43634316  0.93935977  0.68784601  1
  Zn  Zn143  1  0.93649005  0.43729657  0.18741368  1
  Zn  Zn144  1  0.93814886  0.43687738  0.68953039  1
  Zn  Zn145  1  0.93750669  0.93737190  0.19007622  1
  Zn  Zn146  1  0.93684850  0.93701158  0.68853773  1
  Zn  Zn147  1  0.06142481  0.06081455  0.31385737  1
  Zn  Zn148  1  0.05952997  0.06390240  0.80865663  1
  Zn  Zn149  1  0.06478525  0.55774476  0.31253982  1
  Zn  Zn150  1  0.06346236  0.56405748  0.81738163  1
  Zn  Zn151  1  0.56052238  0.06240978  0.31062474  1
  Zn  Zn152  1  0.55883464  0.06185757  0.81449094  1
  Zn  Zn153  1  0.55994486  0.56146198  0.31219199  1
  Zn  Zn154  1  0.56299291  0.56280253  0.81659396  1
  Zn  Zn155  1  0.43898529  0.18718592  0.43444097  1
  Zn  Zn156  1  0.44046693  0.18343985  0.93705022  1
  Zn  Zn157  1  0.43580261  0.69015917  0.43991014  1
  Zn  Zn158  1  0.43514764  0.68747792  0.93869599  1
  Zn  Zn159  1  0.93869688  0.18944150  0.43959589  1
  Zn  Zn160  1  0.93451786  0.18875556  0.93672649  1
  Zn  Zn161  1  0.93720421  0.68747213  0.43729515  1
  Zn  Zn162  1  0.93656311  0.68826294  0.93790825  1
  Zn  Zn163  1  0.06495531  0.31729867  0.06394872  1
  Zn  Zn164  1  0.06378846  0.31342402  0.56231376  1
  Zn  Zn165  1  0.06545798  0.81550572  0.06167749  1
  Zn  Zn166  1  0.06221363  0.81244162  0.55804593  1
  Zn  Zn167  1  0.55963558  0.31058008  0.06526373  1
  Zn  Zn168  1  0.56481694  0.30867102  0.56453113  1
  Zn  Zn169  1  0.55856038  0.81733460  0.05384214  1
  Zn  Zn170  1  0.56430590  0.81383938  0.56359731  1
  O  O171  1  0.11289124  0.11915342  0.12131492  1
  O  O172  1  0.11821894  0.11847638  0.61928529  1
  O  O173  1  0.11858606  0.61680249  0.12370367  1
  O  O174  1  0.11911623  0.62136079  0.62115717  1
  O  O175  1  0.61761884  0.11706158  0.11812370  1
  O  O176  1  0.61807167  0.11901262  0.61731623  1
  O  O177  1  0.63078032  0.62210500  0.11126117  1
  O  O178  1  0.62040413  0.61956030  0.61897149  1
  O  O179  1  0.38525834  0.38824242  0.37110648  1
  O  O180  1  0.37260853  0.38618859  0.86858940  1
  O  O181  1  0.38530965  0.88367551  0.38740206  1
  O  O182  1  0.38331400  0.87829555  0.88232368  1
  O  O183  1  0.88253346  0.39007843  0.37291087  1
  O  O184  1  0.87520744  0.37585423  0.88492158  1
  O  O185  1  0.88133522  0.87897757  0.38010500  1
  O  O186  1  0.88537569  0.88256446  0.87731046  1
  O  O187  1  0.25871299  0.00884426  0.37302683  1
  O  O188  1  0.25280598  0.00271359  0.86751391  1
  O  O189  1  0.26430989  0.50745563  0.37449829  1
  O  O190  1  0.26563975  0.50563723  0.87497616  1
  O  O191  1  0.75862498  -0.01088276  0.36415827  1
  O  O192  1  0.76293174  -0.00244583  0.88056300  1
  O  O193  1  0.75673558  0.50492443  0.37107173  1
  O  O194  1  0.74710530  0.50826761  0.86723920  1
  O  O195  1  0.25048952  0.48459244  0.12161966  1
  O  O196  1  0.24200854  0.50122764  0.62923340  1
  O  O197  1  0.23215034  1.01040852  0.12628098  1
  O  O198  1  0.24477026  0.99532113  0.63086305  1
  O  O199  1  0.74998603  0.50393223  0.13844786  1
  O  O200  1  0.74151399  0.49381963  0.62932972  1
  O  O201  1  0.74532697  0.99386701  0.13116278  1
  O  O202  1  0.74240161  0.99073727  0.62169916  1
  O  O203  1  -0.00185594  0.36822524  0.25825725  1
  O  O204  1  0.00825078  0.36791901  0.75142593  1
  O  O205  1  0.00818838  0.87514756  0.26154670  1
  O  O206  1  -0.00533929  0.86479834  0.75914620  1
  O  O207  1  0.50585403  0.36436654  0.25412109  1
  O  O208  1  0.51331901  0.36303999  0.74186402  1
  O  O209  1  0.49380845  0.85863645  0.26222116  1
  O  O210  1  0.49397150  0.87767250  0.76644601  1
  O  O211  1  0.50573884  0.14078134  0.24522972  1
  O  O212  1  0.50093973  0.13411877  0.73980819  1
  O  O213  1  0.48880620  0.63489108  0.25561848  1
  O  O214  1  0.50231929  0.62375410  0.73685141  1
  O  O215  1  0.99782478  0.13239338  0.24500454  1
  O  O216  1  0.99201676  0.13128257  0.73839954  1
  O  O217  1  0.98372335  0.61749712  0.25143659  1
  O  O218  1  0.99493427  0.63307631  0.74525499  1
  O  O219  1  0.36265336  0.24524744  -0.00787322  1
  O  O220  1  0.37767229  0.24664358  0.51415510  1
  O  O221  1  0.37678171  0.76206577  0.00194766  1
  O  O222  1  0.37191051  0.76031853  0.50994853  1
  O  O223  1  0.86440864  0.25633326  0.00004490  1
  O  O224  1  0.86653822  0.24292335  0.51477663  1
  O  O225  1  0.86141879  0.74860724  0.00865764  1
  O  O226  1  0.86990803  0.75698180  0.50504690  1
  O  O227  1  0.12629683  0.23516188  0.50649313  1
  O  O228  1  0.12957617  0.24483837  0.99240001  1
  O  O229  1  0.12661313  0.74335973  0.49029287  1
  O  O230  1  0.11582501  0.74735427  0.98540152  1
  O  O231  1  0.63335992  0.24131957  0.49938264  1
  O  O232  1  0.62794231  0.24460001  0.99405659  1
  O  O233  1  0.62899072  0.74114176  0.49167172  1
  O  O234  1  0.63210501  0.74498401  0.99464804  1
  O  O235  1  0.50334872  0.24208907  0.13737193  1
  O  O236  1  0.49401927  0.24220575  0.63181831  1
  O  O237  1  0.51340605  0.75616094  0.14183706  1
  O  O238  1  0.49267453  0.74305870  0.62065756  1
  O  O239  1  0.99853684  0.24202227  0.13280799  1
  O  O240  1  0.99113609  0.24301674  0.62851207  1
  O  O241  1  0.98333779  0.75068361  0.11692440  1
  O  O242  1  0.99633875  0.74741456  0.63158299  1
  O  O243  1  -0.00979416  0.26214663  0.36885190  1
  O  O244  1  0.00676318  0.24905257  0.86715997  1
  O  O245  1  0.00959256  0.75910578  0.38067095  1
  O  O246  1  0.00431760  0.75691200  0.86863300  1
  O  O247  1  0.49856762  0.26114791  0.36451362  1
  O  O248  1  0.51206724  0.24177229  0.86462555  1
  O  O249  1  0.50477311  0.75551407  0.37127579  1
  O  O250  1  0.50618339  0.76215204  0.87855141  1
  O  O251  1  0.24329055  0.13087852  0.49097801  1
  O  O252  1  0.24234825  0.13281443  0.99462207  1
  O  O253  1  0.24244008  0.62392911  0.49253081  1
  O  O254  1  0.25111241  0.61850168  0.98518838  1
  O  O255  1  0.74071515  0.13566551  0.50725693  1
  O  O256  1  0.73817675  0.13243703  0.99811159  1
  O  O257  1  0.74040111  0.63199638  0.49602522  1
  O  O258  1  0.74227933  0.63381061  0.99467311  1
  O  O259  1  0.24728008  0.36571611  0.00957047  1
  O  O260  1  0.24156821  0.36923466  0.50454264  1
  O  O261  1  0.26678455  0.87749286  -0.00666434  1
  O  O262  1  0.25897727  0.87645026  0.50941648  1
  O  O263  1  0.75489392  0.36534848  -0.00581470  1
  O  O264  1  0.74113406  0.36790252  0.51259781  1
  O  O265  1  0.75101383  0.86500008  0.01005672  1
  O  O266  1  0.76071028  0.86803449  0.50566546  1
  O  O267  1  0.13379694  0.49628805  0.24961093  1
  O  O268  1  0.12238027  0.49151195  0.74589511  1
  O  O269  1  0.12443878  0.99185147  0.24336811  1
  O  O270  1  0.13484507  1.00550305  0.73815801  1
  O  O271  1  0.63086730  0.49553238  0.24859183  1
  O  O272  1  0.62855611  0.49262147  0.74255713  1
  O  O273  1  0.63298088  1.00493432  0.23945859  1
  O  O274  1  0.62408748  1.00801888  0.73723401  1
  O  O275  1  0.37456026  -0.00717209  0.26368414  1
  O  O276  1  0.36425015  0.00022273  0.76027176  1
  O  O277  1  0.37787273  0.51332708  0.25883100  1
  O  O278  1  0.37895050  0.50353064  0.76198501  1
  O  O279  1  0.86737268  0.00173806  0.25889396  1
  O  O280  1  0.88168765  0.00997765  0.75923166  1
  O  O281  1  0.86682294  0.50625634  0.25830890  1
  O  O282  1  0.86787854  0.50682044  0.75020796  1
  O  O283  1  0.10967426  0.38168383  0.37229350  1
  O  O284  1  0.12540513  0.36926781  0.86378435  1
  O  O285  1  0.11929881  0.87009160  0.37070789  1
  O  O286  1  0.11346957  0.86886257  0.87818177  1
  O  O287  1  0.60996129  0.37770137  0.36512684  1
  O  O288  1  0.63096315  0.36520461  0.86239450  1
  O  O289  1  0.61402440  0.86396023  0.38518916  1
  O  O290  1  0.60952796  0.86970906  0.88339628  1
  O  O291  1  0.38988192  0.11321185  0.12077584  1
  O  O292  1  0.38599025  0.13079551  0.62547331  1
  O  O293  1  0.37305463  0.61638448  0.13690752  1
  O  O294  1  0.38444287  0.63419871  0.62493561  1
  O  O295  1  0.88687811  0.12505288  0.12545236  1
  O  O296  1  0.88101800  0.12862846  0.62992026  1
  O  O297  1  0.87338699  0.63404805  0.13452840  1
  O  O298  1  0.87925423  0.63225215  0.62972897  1
  O  O299  1  0.24595125  0.25931975  0.11457724  1
  O  O300  1  0.26860240  0.24495849  0.62843953  1
  O  O301  1  0.23791393  0.75000614  0.11940790  1
  O  O302  1  0.25600268  0.75931384  0.62461099  1
  O  O303  1  0.74779582  0.24377512  0.11150468  1
  O  O304  1  0.75495615  0.25762901  0.61841032  1
  O  O305  1  0.75291927  0.75725384  0.12073172  1
  O  O306  1  0.75492636  0.75792817  0.61894504  1
  O  O307  1  0.26064779  0.23383124  0.37320188  1
  O  O308  1  0.24404148  0.24424660  0.87971420  1
  O  O309  1  0.24011385  0.73481015  0.38008067  1
  O  O310  1  0.23812947  0.74387623  0.86649758  1
  O  O311  1  0.75144139  0.26011768  0.39048363  1
  O  O312  1  0.73660314  0.24398964  0.88188412  1
  O  O313  1  0.74051026  0.74627883  0.37797673  1
  O  O314  1  0.74299852  0.74940403  0.88452065  1
  O  O315  1  0.00360005  0.12251367  0.00744680  1
  O  O316  1  0.00683462  0.12802974  0.51254805  1
  O  O317  1  -0.00418916  0.61151824  0.00084916  1
  O  O318  1  0.00391467  0.61727007  0.50545787  1
  O  O319  1  0.51070067  0.12447164  0.00931430  1
  O  O320  1  0.50910977  0.12584627  0.50960696  1
  O  O321  1  0.51041065  0.62221236  -0.00439379  1
  O  O322  1  0.51188603  0.62910584  0.50917653  1
  O  O323  1  0.50585214  0.36818572  0.48449301  1
  O  O324  1  0.50722364  0.38321188  0.99386166  1
  O  O325  1  0.49178906  0.87493950  0.49309139  1
  O  O326  1  0.48572215  0.87971713  0.99129580  1
  O  O327  1  1.00240521  0.38727737  0.49476064  1
  O  O328  1  0.99122925  0.38503636  0.99711838  1
  O  O329  1  0.98686141  0.87178405  0.49155704  1
  O  O330  1  0.99702487  0.88298553  0.98970068  1
  O  O331  1  0.49023256  0.48931645  0.37330116  1
  O  O332  1  0.48968086  0.50164770  0.88183078  1
  O  O333  1  0.49491159  0.99096775  0.37455860  1
  O  O334  1  0.49116881  0.99079961  0.87677525  1
  O  O335  1  0.99154188  0.49470423  0.38313341  1
  O  O336  1  0.99468838  0.49938440  0.88646798  1
  O  O337  1  0.98897600  0.98824155  0.37251039  1
  O  O338  1  0.99473464  0.99424110  0.87764927  1
  O  O339  1  0.00493872  0.00851648  0.12113391  1
  O  O340  1  0.00987398  0.00845207  0.63196068  1
  O  O341  1  -0.00298301  0.50093690  0.11022421  1
  O  O342  1  0.00209615  0.50560887  0.61860715  1
  O  O343  1  0.51101092  0.00724656  0.12777884  1
  O  O344  1  0.50687208  0.00780494  0.62442759  1
  O  O345  1  0.49656851  0.49464369  0.10642951  1
  O  O346  1  0.51258447  0.50756434  0.62722633  1
  O  O347  1  0.24876806  0.37282575  0.23701721  1
  O  O348  1  0.23825807  0.37597545  0.74272318  1
  O  O349  1  0.23632106  0.87861601  0.24713000  1
  O  O350  1  0.25399396  0.88550853  0.73768609  1
  O  O351  1  0.73927197  0.38601422  0.25961951  1
  O  O352  1  0.74074099  0.37782767  0.73973748  1
  O  O353  1  0.75068136  0.88391111  0.23838060  1
  O  O354  1  0.75875092  0.86992238  0.73632617  1
  O  O355  1  0.24247525  0.12287574  0.26330511  1
  O  O356  1  0.25164875  0.11529290  0.75610510  1
  O  O357  1  0.26650027  0.62472482  0.25970452  1
  O  O358  1  0.25357998  0.62049618  0.76260088  1
  O  O359  1  0.75207968  0.11194117  0.24481639  1
  O  O360  1  0.76272795  0.13027898  0.74878706  1
  O  O361  1  0.75633593  0.61592610  0.25745137  1
  O  O362  1  0.75423594  0.62081110  0.75321521  1
  O  O363  1  0.36374650  0.11368436  0.38352099  1
  O  O364  1  0.36955443  0.11351164  0.87383720  1
  O  O365  1  0.37122123  0.61547062  0.37681932  1
  O  O366  1  0.36831895  0.62327460  0.87228923  1
  O  O367  1  0.88052596  0.11026241  0.37884368  1
  O  O368  1  0.87389447  0.11713091  0.86561575  1
  O  O369  1  0.86927910  0.61866764  0.36952279  1
  O  O370  1  0.86528906  0.62713506  0.86787192  1
  O  O371  1  0.13546110  0.37906855  0.12775636  1
  O  O372  1  0.12135452  0.38216852  0.63543952  1
  O  O373  1  0.11304294  0.88716873  0.13523873  1
  O  O374  1  0.13517075  0.88344624  0.61513289  1
  O  O375  1  0.62002058  0.37932714  0.13836576  1
  O  O376  1  0.63102877  0.38117521  0.63161430  1
  O  O377  1  0.63341316  0.88766572  0.11601475  1
  O  O378  1  0.63520181  0.88426088  0.61838346  1
  O  O379  1  0.10967283  0.25095166  0.24951150  1
  O  O380  1  0.12073858  0.25612660  0.75267182  1
  O  O381  1  0.12745700  0.75653194  0.26394882  1
  O  O382  1  0.11208447  0.74530301  0.75857760  1
  O  O383  1  0.62161287  0.25943747  0.25491738  1
  O  O384  1  0.62013688  0.25458212  0.75455793  1
  O  O385  1  0.61348184  0.73762220  0.26426256  1
  O  O386  1  0.63071144  0.74781691  0.76419672  1
  O  O387  1  0.38908742  0.25235113  0.25013730  1
  O  O388  1  0.38604203  0.24652253  0.74431696  1
  O  O389  1  0.38728721  0.73774027  0.24320732  1
  O  O390  1  0.37179250  0.75249883  0.73561505  1
  O  O391  1  0.88307065  0.24795279  0.24696769  1
  O  O392  1  0.87804967  0.24219846  0.74049330  1
  O  O393  1  0.86513697  0.74009789  0.24217787  1
  O  O394  1  0.88480617  0.74453539  0.74477520  1
  O  O395  1  0.37698640  0.50200648  0.48996491  1
  O  O396  1  0.38912028  0.50029995  0.98596706  1
  O  O397  1  0.37852070  0.99156041  0.49389098  1
  O  O398  1  0.37389516  0.99486733  0.98663077  1
  O  O399  1  0.88310944  0.50868124  0.49194596  1
  O  O400  1  0.87962431  0.49340422  0.99741839  1
  O  O401  1  0.86596861  0.98875876  0.49049056  1
  O  O402  1  0.88113602  1.00140260  0.98995628  1
  O  O403  1  0.11848163  0.00656256  0.00741894  1
  O  O404  1  0.13183689  0.01124588  0.51245142  1
  O  O405  1  0.11028682  0.49952123  -0.00390952  1
  O  O406  1  0.11299648  0.50704428  0.50567629  1
  O  O407  1  0.62541806  0.00943259  0.00918728  1
  O  O408  1  0.62461923  0.00914218  0.50847160  1
  O  O409  1  0.61184332  0.50684512  -0.00290608  1
  O  O410  1  0.63252263  0.50990249  0.50952048  1
  O  O411  1  0.36186647  0.37495820  0.12795934  1
  O  O412  1  0.37844645  0.35957364  0.63033453  1
  O  O413  1  0.37598772  0.88013582  0.11515284  1
  O  O414  1  0.36924603  0.87196615  0.61796150  1
  O  O415  1  0.87633945  0.37332937  0.11049566  1
  O  O416  1  0.86446434  0.36507186  0.63201701  1
  O  O417  1  0.86568153  0.86826365  0.12461668  1
  O  O418  1  0.87027355  0.87262332  0.61707625  1
  O  O419  1  0.13835744  0.11496945  0.38474533  1
  O  O420  1  0.12897302  0.12897542  0.87913609  1
  O  O421  1  0.13048395  0.62978779  0.37820698  1
  O  O422  1  0.13378635  0.63309337  0.87867711  1
  O  O423  1  0.61802465  0.12621604  0.38879170  1
  O  O424  1  0.62409313  0.12984529  0.88463109  1
  O  O425  1  0.62693634  0.62963052  0.38333233  1
  O  O426  1  0.62898906  0.63511129  0.88290336  1
