# generated using pymatgen
data_V85Zn86O256
_symmetry_space_group_name_H-M   'P 1'
_cell_length_a   16.91897875
_cell_length_b   16.94839713
_cell_length_c   16.93946269
_cell_angle_alpha   89.90045354
_cell_angle_beta   90.01176555
_cell_angle_gamma   90.14077651
_symmetry_Int_Tables_number   1
_chemical_formula_structural   V85Zn86O256
_chemical_formula_sum   'V85 Zn86 O256'
_cell_volume   4857.36156424
_cell_formula_units_Z   1
loop_
 _symmetry_equiv_pos_site_id
 _symmetry_equiv_pos_as_xyz
  1  'x, y, z'
loop_
 _atom_site_type_symbol
 _atom_site_label
 _atom_site_symmetry_multiplicity
 _atom_site_fract_x
 _atom_site_fract_y
 _atom_site_fract_z
 _atom_site_occupancy
  V  V0  1  0.75319014  0.11545455  0.86432719  1
  V  V1  1  0.50226241  0.12281808  0.12186058  1
  V  V2  1  0.12823277  -0.00034277  0.62582290  1
  V  V3  1  0.62797073  0.00198661  0.62124708  1
  V  V4  1  0.75754682  0.75133347  0.49977145  1
  V  V5  1  0.50491528  0.75762924  0.24982720  1
  V  V6  1  0.50039752  0.62183102  0.62307358  1
  V  V7  1  0.01454619  0.74793319  0.75161679  1
  V  V8  1  0.50534589  0.12521053  0.62111457  1
  V  V9  1  0.87475644  0.61883139  0.24754159  1
  V  V10  1  -0.00192942  0.49887762  -0.00158532  1
  V  V11  1  0.25081694  0.74541133  0.49429231  1
  V  V12  1  0.73360919  0.36920601  0.12942801  1
  V  V13  1  0.37439212  0.37594093  -0.00076986  1
  V  V14  1  0.12404317  0.61853368  0.51315926  1
  V  V15  1  0.24931922  0.50307511  0.25673085  1
  V  V16  1  0.37848855  0.87586385  0.50086145  1
  V  V17  1  0.01454953  0.87465799  0.86822859  1
  V  V18  1  0.74961598  0.49532279  0.74598700  1
  V  V19  1  0.50588961  0.25715648  0.25311075  1
  V  V20  1  0.24491269  -0.00527785  0.74958439  1
  V  V21  1  0.37579336  0.75527392  0.12103055  1
  V  V22  1  0.74318338  -0.00206598  0.25222561  1
  V  V23  1  0.12204875  0.37450474  0.74883956  1
  V  V24  1  0.74603909  0.87475317  0.12906561  1
  V  V25  1  0.49868132  0.88085829  0.88883307  1
  V  V26  1  0.87379154  0.36962523  0.00895622  1
  V  V27  1  0.74484191  0.24315601  -0.00659476  1
  V  V28  1  0.12616475  0.50087108  0.12494795  1
  V  V29  1  0.25208836  0.87700208  0.12011166  1
  V  V30  1  -0.00629198  0.24272937  0.75045040  1
  V  V31  1  -0.00393337  0.50110255  0.51193830  1
  V  V32  1  0.87879862  0.62521309  0.74650199  1
  V  V33  1  0.87580929  -0.00234427  0.37906434  1
  V  V34  1  0.37720304  0.62601138  0.74888565  1
  V  V35  1  0.75000662  0.62221999  0.37214881  1
  V  V36  1  0.25139656  0.62793882  0.87548542  1
  V  V37  1  0.62191673  0.36581518  0.75265162  1
  V  V38  1  0.24476403  0.12592855  0.38301164  1
  V  V39  1  0.24878222  0.75215255  -0.00412641  1
  V  V40  1  -0.00225595  0.74794883  0.24892534  1
  V  V41  1  0.38156525  0.25146557  0.63095281  1
  V  V42  1  0.38451933  0.37870343  0.50155704  1
  V  V43  1  0.12297020  0.87360385  0.24930364  1
  V  V44  1  0.75119733  0.26486536  0.50364590  1
  V  V45  1  -0.00859201  0.12852818  0.12564137  1
  V  V46  1  0.24628939  0.25028266  0.00058465  1
  V  V47  1  -0.00614302  0.37705811  0.37838431  1
  V  V48  1  0.74727406  0.12293413  0.38679191  1
  V  V49  1  0.62418650  0.25015175  0.37865472  1
  V  V50  1  0.36972698  0.62822470  0.25582063  1
  V  V51  1  0.62195212  0.62102662  0.49931748  1
  V  V52  1  0.37543112  -0.00002220  0.37568951  1
  V  V53  1  0.87314569  0.87603634  -0.01029463  1
  V  V54  1  0.38206023  0.50047082  0.87633548  1
  V  V55  1  0.62291659  0.00182927  0.11860645  1
  V  V56  1  0.12145832  0.00099221  0.12484335  1
  V  V57  1  0.62619285  0.49671246  0.62343129  1
  V  V58  1  0.24343366  0.12516646  0.87346792  1
  V  V59  1  0.37973966  0.50168208  0.37981846  1
  V  V60  1  0.25064300  0.37626571  0.12580712  1
  V  V61  1  0.37706465  0.75038421  0.62384288  1
  V  V62  1  0.38264079  0.12648346  0.75127798  1
  V  V63  1  0.62536661  0.61677540  0.00321834  1
  V  V64  1  0.74913058  0.62442370  0.87419184  1
  V  V65  1  -0.00394839  0.87337425  0.38091242  1
  V  V66  1  0.12291416  0.24734885  0.38319858  1
  V  V67  1  0.12724327  0.74120006  0.37406241  1
  V  V68  1  0.50191591  0.35623991  0.87265386  1
  V  V69  1  0.87396121  0.26325354  0.62034172  1
  V  V70  1  0.75010042  0.74901432  -0.00107504  1
  V  V71  1  0.01019388  0.00601518  0.49528075  1
  V  V72  1  0.37390733  0.12848511  0.25177626  1
  V  V73  1  -0.00542025  -0.00043037  -0.00595044  1
  V  V74  1  0.75307821  0.87402072  0.62545855  1
  V  V75  1  -0.00301986  0.12361901  0.62196063  1
  V  V76  1  0.24593320  0.49938409  0.74720619  1
  V  V77  1  0.50262941  0.62021202  0.12385759  1
  V  V78  1  0.73337069  0.49548074  0.24445672  1
  V  V79  1  0.62640481  0.75699062  0.37189841  1
  V  V80  1  -0.00672944  0.25085999  0.24788958  1
  V  V81  1  0.12465945  0.62873322  -0.00491616  1
  V  V82  1  0.24808528  0.37608059  0.62439967  1
  V  V83  1  0.88149846  0.75040829  0.62326824  1
  V  V84  1  0.37893717  -0.00092564  0.88750055  1
  Zn  Zn85  1  0.24846897  0.00122065  0.24981542  1
  Zn  Zn86  1  -0.00167411  0.62691158  0.12220361  1
  Zn  Zn87  1  0.87616469  0.75047681  0.12443440  1
  Zn  Zn88  1  0.12113958  0.12699136  0.00004910  1
  Zn  Zn89  1  0.50787885  0.38228828  0.37482048  1
  Zn  Zn90  1  0.37619264  0.25190833  0.12771132  1
  Zn  Zn91  1  -0.00452547  0.37080925  0.87528393  1
  Zn  Zn92  1  0.50677956  0.88198651  0.37012934  1
  Zn  Zn93  1  0.86946126  0.12816192  0.24781150  1
  Zn  Zn94  1  0.50245690  0.75538917  0.75034193  1
  Zn  Zn95  1  0.62104774  0.75316686  0.87218371  1
  Zn  Zn96  1  0.62328225  0.87479159  0.75008680  1
  Zn  Zn97  1  0.50772857  0.00572921  0.49592708  1
  Zn  Zn98  1  0.87484265  0.49588252  0.87429009  1
  Zn  Zn99  1  0.50782029  0.49221654  0.00629222  1
  Zn  Zn100  1  0.24588075  0.87193319  0.63047847  1
  Zn  Zn101  1  0.12469480  0.37517753  0.25195585  1
  Zn  Zn102  1  0.61167719  0.12679506  -0.01684693  1
  Zn  Zn103  1  0.76431328  -0.00378244  0.74942418  1
  Zn  Zn104  1  0.87129224  0.49370040  0.37960834  1
  Zn  Zn105  1  0.24611286  0.24816195  0.50498316  1
  Zn  Zn106  1  0.11976205  0.24859547  0.87356135  1
  Zn  Zn107  1  0.18228723  0.18944027  0.19192566  1
  Zn  Zn108  1  0.18435793  0.18427280  0.68803116  1
  Zn  Zn109  1  0.18582719  0.68737112  0.18430641  1
  Zn  Zn110  1  0.19312298  0.68602309  0.68416567  1
  Zn  Zn111  1  0.68766068  0.18754345  0.18983657  1
  Zn  Zn112  1  0.69125331  0.18514500  0.68606863  1
  Zn  Zn113  1  0.68777169  0.68610105  0.18673397  1
  Zn  Zn114  1  0.68727153  0.68910576  0.68860172  1
  Zn  Zn115  1  0.31223771  0.31494694  0.31611001  1
  Zn  Zn116  1  0.31297397  0.31203953  0.81318478  1
  Zn  Zn117  1  0.31161453  0.81519864  0.31013922  1
  Zn  Zn118  1  0.31944326  0.81580303  0.81382774  1
  Zn  Zn119  1  0.81017925  0.31312318  0.31203238  1
  Zn  Zn120  1  0.81319084  0.31029910  0.81532311  1
  Zn  Zn121  1  0.81397135  0.81118421  0.31094267  1
  Zn  Zn122  1  0.81673110  0.81129668  0.80881524  1
  Zn  Zn123  1  0.18580293  0.43544135  0.43733453  1
  Zn  Zn124  1  0.18619172  0.43855259  0.93408458  1
  Zn  Zn125  1  0.18857531  0.93385720  0.43800845  1
  Zn  Zn126  1  0.18844057  0.94177109  0.93748384  1
  Zn  Zn127  1  0.68771409  0.43771064  0.43488544  1
  Zn  Zn128  1  0.68913143  0.43281569  0.93522500  1
  Zn  Zn129  1  0.69136212  0.93653373  0.44368833  1
  Zn  Zn130  1  0.68518777  0.94109796  0.93657881  1
  Zn  Zn131  1  0.31140521  0.06658414  0.06484051  1
  Zn  Zn132  1  0.31593959  0.06315439  0.56390309  1
  Zn  Zn133  1  0.31465451  0.56466459  0.06473929  1
  Zn  Zn134  1  0.31030985  0.56283909  0.56047463  1
  Zn  Zn135  1  0.81107585  0.06061829  0.06034378  1
  Zn  Zn136  1  0.82048744  0.06107294  0.56374018  1
  Zn  Zn137  1  0.81096045  0.55561045  0.06682440  1
  Zn  Zn138  1  0.81248110  0.56415743  0.56330139  1
  Zn  Zn139  1  0.43511264  0.43813638  0.19008702  1
  Zn  Zn140  1  0.44035984  0.43808181  0.68985725  1
  Zn  Zn141  1  0.43741007  0.94038918  0.18596154  1
  Zn  Zn142  1  0.43916645  0.93980454  0.69302630  1
  Zn  Zn143  1  0.93472587  0.43593709  0.18746186  1
  Zn  Zn144  1  0.93668307  0.43674132  0.68702242  1
  Zn  Zn145  1  0.93164156  0.93668266  0.18812675  1
  Zn  Zn146  1  0.94303387  0.93087098  0.68134424  1
  Zn  Zn147  1  0.06239813  0.06499902  0.30894203  1
  Zn  Zn148  1  -0.06791760  0.06192071  0.81208180  1
  Zn  Zn149  1  0.06032023  0.56059077  0.31530873  1
  Zn  Zn150  1  0.06371213  0.56241904  0.81350947  1
  Zn  Zn151  1  0.56462499  0.06860126  0.31091795  1
  Zn  Zn152  1  0.56930220  0.05705540  0.80710961  1
  Zn  Zn153  1  0.55836023  0.56929961  0.31182544  1
  Zn  Zn154  1  0.56454104  0.56281882  0.81110839  1
  Zn  Zn155  1  0.43443771  0.19162741  0.44189410  1
  Zn  Zn156  1  0.42882965  0.18520275  0.93996458  1
  Zn  Zn157  1  0.44046934  0.68865600  0.43625350  1
  Zn  Zn158  1  0.43895590  0.69083757  0.93805937  1
  Zn  Zn159  1  0.93382907  0.18615915  0.43686610  1
  Zn  Zn160  1  0.93151738  0.19105257  0.94227384  1
  Zn  Zn161  1  0.93983072  0.68049303  0.43579950  1
  Zn  Zn162  1  0.93774040  0.68939501  0.93243451  1
  Zn  Zn163  1  0.06319080  0.31426785  0.06510113  1
  Zn  Zn164  1  0.06054541  0.31656924  0.56330599  1
  Zn  Zn165  1  0.06207257  0.81280842  0.06082541  1
  Zn  Zn166  1  0.06449392  0.81344090  0.56293294  1
  Zn  Zn167  1  0.56129434  0.30686210  0.05996594  1
  Zn  Zn168  1  0.56664074  0.30984638  0.56397204  1
  Zn  Zn169  1  0.56636176  0.81015189  0.06152916  1
  Zn  Zn170  1  0.56521102  0.81259652  0.56112570  1
  O  O171  1  0.11622725  0.11455026  0.12531734  1
  O  O172  1  0.11148763  0.11522599  0.62724427  1
  O  O173  1  0.12416904  0.61871640  0.11232023  1
  O  O174  1  0.12563430  0.62506396  0.61222687  1
  O  O175  1  0.61604232  0.11830399  0.12809952  1
  O  O176  1  0.61521356  0.11810846  0.63258295  1
  O  O177  1  0.61445833  0.63208092  0.11542380  1
  O  O178  1  0.62004911  0.61877604  0.61813874  1
  O  O179  1  0.37693803  0.38246393  0.38584607  1
  O  O180  1  0.38301034  0.38164873  0.87719261  1
  O  O181  1  0.37486863  0.88532634  0.37974554  1
  O  O182  1  0.38770655  0.88609775  0.87488319  1
  O  O183  1  0.88835682  0.37368130  0.37411987  1
  O  O184  1  0.87417544  0.37753918  0.88897754  1
  O  O185  1  0.88621261  0.88220648  0.36879949  1
  O  O186  1  0.88077966  0.87066673  0.88594337  1
  O  O187  1  0.25739721  0.00679865  0.37279874  1
  O  O188  1  0.25677421  0.00599236  0.86948668  1
  O  O189  1  0.25908460  0.49542557  0.36351535  1
  O  O190  1  0.26105155  0.50428371  0.86704744  1
  O  O191  1  0.75500935  0.00242747  0.37226136  1
  O  O192  1  0.75397583  0.01040067  0.87400909  1
  O  O193  1  0.75206266  0.50329389  0.36505607  1
  O  O194  1  0.75016671  0.51014248  0.86628016  1
  O  O195  1  0.24747556  0.49650531  0.13364426  1
  O  O196  1  0.25923094  0.49013682  0.63795466  1
  O  O197  1  0.24039394  0.99384975  0.12339309  1
  O  O198  1  0.24534938  1.00227179  0.63084337  1
  O  O199  1  0.74918138  0.48421269  0.13186702  1
  O  O200  1  0.74041178  0.50648085  0.63519838  1
  O  O201  1  0.74434754  0.99539755  0.13330112  1
  O  O202  1  0.74846282  0.98879894  0.61844892  1
  O  O203  1  0.00155000  0.36877176  0.25685090  1
  O  O204  1  0.00757249  0.36794941  0.74865027  1
  O  O205  1  0.00348921  0.86908424  0.25755840  1
  O  O206  1  0.00131766  0.86411527  0.76119515  1
  O  O207  1  0.49092487  0.36103919  0.25374192  1
  O  O208  1  0.51191392  0.37847045  0.75859820  1
  O  O209  1  0.49568812  0.86152235  0.24993253  1
  O  O210  1  0.50222281  0.87371849  0.76070505  1
  O  O211  1  0.49145584  0.13404846  0.24446485  1
  O  O212  1  0.48869067  0.11884084  0.74237817  1
  O  O213  1  0.49103109  0.63642390  0.24182350  1
  O  O214  1  0.49477288  0.62739276  0.74074839  1
  O  O215  1  0.99727156  0.13215812  0.24212999  1
  O  O216  1  0.99671064  0.13726234  0.74204893  1
  O  O217  1  0.99089441  0.62851274  0.24918958  1
  O  O218  1  0.99200495  0.63774015  0.76169697  1
  O  O219  1  0.36194337  0.25706294  0.00355630  1
  O  O220  1  0.36951669  0.26125112  0.51150026  1
  O  O221  1  0.36513946  0.74339224  0.01409517  1
  O  O222  1  0.36867030  0.75445027  0.50090323  1
  O  O223  1  0.86089892  0.25934762  0.00272710  1
  O  O224  1  0.86585950  0.24819199  0.50894900  1
  O  O225  1  0.86553554  0.75530344  0.00102429  1
  O  O226  1  0.86787274  0.73530810  0.50942532  1
  O  O227  1  0.12461672  0.25411165  0.48798945  1
  O  O228  1  0.13444960  0.25010115  0.99641943  1
  O  O229  1  0.12981094  0.74116484  0.49475927  1
  O  O230  1  0.13608447  0.74012313  1.00630884  1
  O  O231  1  0.64262480  0.24974666  0.49937135  1
  O  O232  1  0.63964952  0.24537357  1.00112271  1
  O  O233  1  0.63527929  0.73996133  0.49349328  1
  O  O234  1  0.63703002  0.73997179  0.99608675  1
  O  O235  1  0.49934409  0.24222757  0.13612868  1
  O  O236  1  0.48956177  0.24303723  0.62337465  1
  O  O237  1  0.49405390  0.74544148  0.13024490  1
  O  O238  1  0.49544995  0.73854640  0.62341311  1
  O  O239  1  1.00854004  0.23958725  0.13444504  1
  O  O240  1  0.99122799  0.24525892  0.62665559  1
  O  O241  1  0.99810517  0.74872470  0.13302883  1
  O  O242  1  0.99450815  0.75903016  0.63993659  1
  O  O243  1  0.00473201  0.25473697  0.37123960  1
  O  O244  1  -0.00166204  0.24980672  0.86495933  1
  O  O245  1  0.00595684  0.75620656  0.37111279  1
  O  O246  1  -0.00107888  0.76229675  0.86439362  1
  O  O247  1  0.50794790  0.24724773  0.37131606  1
  O  O248  1  0.49461698  0.25719622  0.87679974  1
  O  O249  1  0.50919764  0.75087973  0.36631887  1
  O  O250  1  0.49763127  0.76521850  0.87431702  1
  O  O251  1  0.25808929  0.12807029  0.48689924  1
  O  O252  1  0.24893680  0.13482264  0.99394052  1
  O  O253  1  0.23911820  0.63494663  0.50161960  1
  O  O254  1  0.24439587  0.63205035  0.99692339  1
  O  O255  1  0.75678944  0.12786155  0.48962491  1
  O  O256  1  0.75162466  0.13570309  0.99709126  1
  O  O257  1  0.74213918  0.63198411  0.49453297  1
  O  O258  1  0.74656468  0.62898077  0.99498002  1
  O  O259  1  0.25330888  0.36921150  0.00306590  1
  O  O260  1  0.25674348  0.37686688  0.51254504  1
  O  O261  1  0.24216306  0.86683684  0.01120547  1
  O  O262  1  0.26088919  0.86488984  0.50098800  1
  O  O263  1  0.75224043  0.36596398  0.00765096  1
  O  O264  1  0.75385377  0.36378429  0.49804580  1
  O  O265  1  0.75521922  0.86804935  0.00321440  1
  O  O266  1  0.75092195  0.85865700  0.50759383  1
  O  O267  1  0.13489065  0.50372455  0.24522101  1
  O  O268  1  0.13713173  0.49255502  0.75577962  1
  O  O269  1  0.12442010  0.99382320  0.23926180  1
  O  O270  1  0.14111921  1.00338113  0.73840359  1
  O  O271  1  0.63394977  0.50473565  0.25439072  1
  O  O272  1  0.63266434  0.49732595  0.74175587  1
  O  O273  1  0.63705021  1.00208661  0.24419664  1
  O  O274  1  0.63820499  0.99568283  0.73367317  1
  O  O275  1  0.37382316  0.00973784  0.25897416  1
  O  O276  1  0.36658144  0.01145158  0.75644891  1
  O  O277  1  0.36794913  0.50927163  0.25700107  1
  O  O278  1  0.36826768  0.50443761  0.75836874  1
  O  O279  1  0.86423672  0.00086990  0.26056163  1
  O  O280  1  0.87749336  -0.00290666  0.74081796  1
  O  O281  1  0.86707175  0.50821126  0.25119688  1
  O  O282  1  0.86839894  0.50677838  0.74896900  1
  O  O283  1  0.11559325  0.36667017  0.37271256  1
  O  O284  1  0.12386536  0.37158071  0.86126735  1
  O  O285  1  0.11721361  0.86571930  0.36927157  1
  O  O286  1  0.11315983  0.87603393  0.87895837  1
  O  O287  1  0.62288955  0.35809166  0.38304184  1
  O  O288  1  0.61543728  0.37986631  0.86286666  1
  O  O289  1  0.62603737  0.86096677  0.38237056  1
  O  O290  1  0.61280714  0.87789123  0.87405854  1
  O  O291  1  0.38159347  0.12509142  0.13656089  1
  O  O292  1  0.38095782  0.13230254  0.63307221  1
  O  O293  1  0.38163748  0.63590629  0.13364303  1
  O  O294  1  0.38269600  0.62823397  0.62662471  1
  O  O295  1  0.88785171  0.11761856  0.12698309  1
  O  O296  1  0.89057080  0.13297811  0.62081958  1
  O  O297  1  0.87478010  0.62654135  0.13485266  1
  O  O298  1  0.87061758  0.63465116  0.63819232  1
  O  O299  1  0.24851939  0.25525807  0.11778959  1
  O  O300  1  0.25867067  0.25869537  0.62675786  1
  O  O301  1  0.25637964  0.75742320  0.11868225  1
  O  O302  1  0.25713772  0.75189948  0.61315368  1
  O  O303  1  0.74661694  0.26147466  0.11911268  1
  O  O304  1  0.76280830  0.24434854  0.61394105  1
  O  O305  1  0.74878307  0.75768509  0.11599352  1
  O  O306  1  0.75796941  0.75316901  0.61770227  1
  O  O307  1  0.24088762  0.24396437  0.37604456  1
  O  O308  1  0.25101658  0.24278430  0.88331295  1
  O  O309  1  0.24052641  0.75700005  0.38346462  1
  O  O310  1  0.26206228  0.74566487  0.88853614  1
  O  O311  1  0.74730932  0.24431319  0.38610901  1
  O  O312  1  0.75163193  0.24091675  0.88724138  1
  O  O313  1  0.74548942  0.74442768  0.37993738  1
  O  O314  1  0.75231462  0.74037766  0.88302731  1
  O  O315  1  -0.00032335  0.11730253  0.00618509  1
  O  O316  1  -0.00143068  0.11431004  0.50408603  1
  O  O317  1  0.00691513  0.61901027  -0.00264861  1
  O  O318  1  0.01445704  0.61515383  0.49632799  1
  O  O319  1  0.49813340  0.13461278  0.01650724  1
  O  O320  1  0.49150023  0.12345004  0.51581474  1
  O  O321  1  0.50823944  0.62558205  0.00712026  1
  O  O322  1  0.51203679  0.62985328  0.50761108  1
  O  O323  1  0.48813664  0.37295104  0.50171409  1
  O  O324  1  0.49497684  0.37509044  0.99125183  1
  O  O325  1  0.48821100  0.87409539  0.49422345  1
  O  O326  1  0.50361107  0.87369409  0.98896774  1
  O  O327  1  1.00895212  0.39243868  0.49272648  1
  O  O328  1  0.99300657  0.38109677  1.00097034  1
  O  O329  1  1.00565879  0.88327461  0.48667071  1
  O  O330  1  0.99404913  0.87818072  0.99025476  1
  O  O331  1  0.48592284  0.49867402  0.36749730  1
  O  O332  1  0.48950706  0.49746067  0.87632733  1
  O  O333  1  0.49093903  1.00193052  0.37510251  1
  O  O334  1  0.49366185  0.99170303  0.87211189  1
  O  O335  1  0.99789496  0.49116324  0.38131361  1
  O  O336  1  0.99958442  0.49656242  0.88734209  1
  O  O337  1  0.99660388  0.99430729  0.37701667  1
  O  O338  1  0.99751582  0.98686247  0.88395118  1
  O  O339  1  0.00533501  0.00377282  0.11858759  1
  O  O340  1  0.00716965  0.00396479  0.61409997  1
  O  O341  1  0.00589870  0.50126402  0.11366166  1
  O  O342  1  0.00067864  0.49623127  0.61130155  1
  O  O343  1  0.51092218  0.00993851  0.13441944  1
  O  O344  1  0.50907366  0.00738631  0.62390215  1
  O  O345  1  0.49108327  0.51557213  0.12442459  1
  O  O346  1  0.50923412  0.51292395  0.62939264  1
  O  O347  1  0.25091235  0.38575692  0.24460308  1
  O  O348  1  0.24483905  0.38053541  0.74468413  1
  O  O349  1  0.24270812  0.87631999  0.23729974  1
  O  O350  1  0.26015778  0.88854643  0.74780304  1
  O  O351  1  0.75125532  0.37850828  0.23744963  1
  O  O352  1  0.73762955  0.38727348  0.76007907  1
  O  O353  1  0.75585630  0.88241091  0.23908522  1
  O  O354  1  0.75030268  0.87172942  0.73613174  1
  O  O355  1  0.25933950  0.12533799  0.25801407  1
  O  O356  1  0.25868567  0.11972300  0.75710031  1
  O  O357  1  0.26074683  0.61829714  0.24269192  1
  O  O358  1  0.25559938  0.61737006  0.75406351  1
  O  O359  1  0.75105764  0.11628398  0.26068477  1
  O  O360  1  0.75360317  0.12557924  0.76179426  1
  O  O361  1  0.75472375  0.61597237  0.25130296  1
  O  O362  1  0.75693565  0.61821944  0.75662544  1
  O  O363  1  0.36867991  0.11907251  0.36970697  1
  O  O364  1  0.36772439  0.11930468  0.86804755  1
  O  O365  1  0.38013528  0.61979050  0.36417032  1
  O  O366  1  0.37173133  0.61818229  0.87072331  1
  O  O367  1  0.86670205  0.11450747  0.37153300  1
  O  O368  1  0.86248593  0.12507864  0.87929448  1
  O  O369  1  0.86761913  0.62362628  0.36349625  1
  O  O370  1  0.86535574  0.62360050  0.86525109  1
  O  O371  1  0.13269509  0.38396653  0.12795028  1
  O  O372  1  0.13655569  0.36985063  0.63616008  1
  O  O373  1  0.13009553  0.88273420  0.12851370  1
  O  O374  1  0.12790691  0.89212706  0.61850984  1
  O  O375  1  0.63438709  0.37487089  0.12069204  1
  O  O376  1  0.61578129  0.38762654  0.63766387  1
  O  O377  1  0.63782523  0.88380145  0.11748812  1
  O  O378  1  0.63642972  0.88022994  0.62317074  1
  O  O379  1  0.11300785  0.25226667  0.26183573  1
  O  O380  1  0.11389269  0.25705706  0.74949065  1
  O  O381  1  0.12010831  0.75239254  0.25591567  1
  O  O382  1  0.11353983  0.74180886  0.74602551  1
  O  O383  1  0.61552374  0.24496753  0.26243204  1
  O  O384  1  0.63322043  0.26852755  0.74175552  1
  O  O385  1  0.61727131  0.74241926  0.26000480  1
  O  O386  1  0.62274136  0.75312139  0.75462321  1
  O  O387  1  0.38178232  0.24086799  0.25325221  1
  O  O388  1  0.36971987  0.24064065  0.74126405  1
  O  O389  1  0.38024372  0.74499552  0.24337630  1
  O  O390  1  0.37329812  0.74175429  0.74093051  1
  O  O391  1  0.88873921  0.24794977  0.25576660  1
  O  O392  1  0.88165535  0.25839072  0.73481728  1
  O  O393  1  0.87889491  0.73828249  0.24855143  1
  O  O394  1  0.88315850  0.74177043  0.74250357  1
  O  O395  1  0.36798941  0.49352300  0.49009378  1
  O  O396  1  0.37409631  0.49526946  0.99015480  1
  O  O397  1  0.37574908  0.99200333  0.49139655  1
  O  O398  1  0.37019878  1.00718527  0.98703491  1
  O  O399  1  0.89118770  0.51288512  0.49754573  1
  O  O400  1  0.88360078  0.49403710  0.99918322  1
  O  O401  1  0.88720516  0.99994600  0.48529689  1
  O  O402  1  0.88567820  0.98926050  1.00589327  1
  O  O403  1  0.11332230  0.00017160  0.00923191  1
  O  O404  1  0.11764486  0.00004820  0.50296523  1
  O  O405  1  0.11912535  0.50678374  0.00397920  1
  O  O406  1  0.12183700  0.51398216  0.49501810  1
  O  O407  1  0.63322922  0.00991867  0.01503018  1
  O  O408  1  0.62455417  -0.00332197  0.51352812  1
  O  O409  1  0.62606019  0.51255966  -0.00502688  1
  O  O410  1  0.63381018  0.51052812  0.50862325  1
  O  O411  1  0.36865351  0.37474222  0.11764922  1
  O  O412  1  0.37061356  0.37023689  0.62321269  1
  O  O413  1  0.36501688  0.86708996  0.13097689  1
  O  O414  1  0.37622194  0.87020383  0.61451580  1
  O  O415  1  0.86582751  0.37849225  0.11358867  1
  O  O416  1  0.87888974  0.36247595  0.61890838  1
  O  O417  1  0.86336254  0.87361171  0.11368634  1
  O  O418  1  0.86826707  0.85908738  0.62450891  1
  O  O419  1  0.13495762  0.13246238  0.36820361  1
  O  O420  1  0.14063991  0.12600239  0.87767847  1
  O  O421  1  0.12201694  0.63819905  0.37945873  1
  O  O422  1  0.13489499  0.61914338  0.88735164  1
  O  O423  1  0.63517518  0.13573821  0.37571917  1
  O  O424  1  0.64200643  0.11908196  0.87341713  1
  O  O425  1  0.62895939  0.63292117  0.38250891  1
  O  O426  1  0.63448613  0.62708979  0.88226678  1
