# generated using pymatgen
data_V85Zn86O256
_symmetry_space_group_name_H-M   'P 1'
_cell_length_a   16.97322346
_cell_length_b   16.98507223
_cell_length_c   16.97686976
_cell_angle_alpha   89.95998235
_cell_angle_beta   89.93830417
_cell_angle_gamma   90.12501727
_symmetry_Int_Tables_number   1
_chemical_formula_structural   V85Zn86O256
_chemical_formula_sum   'V85 Zn86 O256'
_cell_volume   4894.27031217
_cell_formula_units_Z   1
loop_
 _symmetry_equiv_pos_site_id
 _symmetry_equiv_pos_as_xyz
  1  'x, y, z'
loop_
 _atom_site_type_symbol
 _atom_site_label
 _atom_site_symmetry_multiplicity
 _atom_site_fract_x
 _atom_site_fract_y
 _atom_site_fract_z
 _atom_site_occupancy
  V  V0  1  0.12616345  0.12539123  0.50015876  1
  V  V1  1  0.87558004  0.87716421  0.49252234  1
  V  V2  1  0.00491920  0.50082335  0.00014223  1
  V  V3  1  0.62001188  0.36827844  0.75082155  1
  V  V4  1  0.00584741  0.62463331  0.12203219  1
  V  V5  1  0.12073004  0.00088243  0.12189940  1
  V  V6  1  0.11022352  0.86644625  0.74750255  1
  V  V7  1  0.62238377  0.12325638  0.00188111  1
  V  V8  1  -0.00021625  0.12419543  0.62531213  1
  V  V9  1  0.12615632  0.62736020  0.50017583  1
  V  V10  1  0.50317057  0.74964326  0.26783789  1
  V  V11  1  0.62156055  0.87184094  0.74878848  1
  V  V12  1  0.25065778  0.62798627  0.37675934  1
  V  V13  1  0.12884240  0.75180099  0.37800483  1
  V  V14  1  0.50241520  0.38412152  0.88220074  1
  V  V15  1  0.00342078  0.75052171  0.24949147  1
  V  V16  1  0.74902288  0.12273359  0.87701145  1
  V  V17  1  0.12157358  0.12524375  -0.00642831  1
  V  V18  1  -0.00177461  -0.00011740  0.49349943  1
  V  V19  1  0.87565909  0.25169448  0.62646645  1
  V  V20  1  0.61608011  0.11918904  0.50387956  1
  V  V21  1  0.62025581  0.74925319  0.87063407  1
  V  V22  1  0.49974997  0.49951467  0.50250487  1
  V  V23  1  0.24699034  0.49686087  0.25116893  1
  V  V24  1  0.00226536  0.49810641  0.50029892  1
  V  V25  1  0.11293947  0.74478399  0.87086161  1
  V  V26  1  0.75447886  0.12065450  0.37692825  1
  V  V27  1  0.49490181  0.12379793  0.12972230  1
  V  V28  1  0.25745753  0.62602068  0.87041542  1
  V  V29  1  0.38213753  0.75272779  0.12180975  1
  V  V30  1  0.38524487  0.00250377  0.38105830  1
  V  V31  1  0.13166460  -0.00213298  0.62642001  1
  V  V32  1  0.86925337  0.75549307  0.11965226  1
  V  V33  1  0.61093592  -0.00670832  0.61992939  1
  V  V34  1  0.13093464  0.49436734  0.62451699  1
  V  V35  1  0.74893358  0.37481351  0.12687668  1
  V  V36  1  0.87603372  0.37511429  0.50057603  1
  V  V37  1  0.25916764  0.50163792  0.74952799  1
  V  V38  1  0.26593459  0.84896077  0.62738872  1
  V  V39  1  0.88201062  -0.01408677  0.88834803  1
  V  V40  1  0.48250652  0.63442266  0.63853086  1
  V  V41  1  0.24419965  0.74407313  -0.00221940  1
  V  V42  1  0.87584757  0.37303824  0.00070003  1
  V  V43  1  0.49620835  0.87744957  0.87557252  1
  V  V44  1  0.75160487  0.24893685  0.00244127  1
  V  V45  1  0.61671797  0.62289072  -0.00110239  1
  V  V46  1  0.87755296  0.49855919  0.37461809  1
  V  V47  1  0.38471858  0.24875283  0.64032438  1
  V  V48  1  0.25450483  -0.00116028  0.76671845  1
  V  V49  1  0.61946156  0.87272203  0.25995096  1
  V  V50  1  0.00216822  0.25051902  0.75384509  1
  V  V51  1  0.88363683  0.62969119  0.74955855  1
  V  V52  1  0.49054783  -0.00120369  -0.00420898  1
  V  V53  1  0.87680083  0.49921472  0.87629505  1
  V  V54  1  0.12951589  0.87481194  0.25235888  1
  V  V55  1  0.37485759  0.49989587  0.37634780  1
  V  V56  1  0.49964379  0.37507066  0.37776883  1
  V  V57  1  0.75759230  -0.00049029  0.25234372  1
  V  V58  1  0.75227390  0.49868440  0.75046444  1
  V  V59  1  0.74438738  0.63005805  0.37869610  1
  V  V60  1  0.62529860  0.37507876  0.25137263  1
  V  V61  1  0.49833649  0.24693010  0.25233453  1
  V  V62  1  0.74935131  -0.00256753  0.74634225  1
  V  V63  1  0.62427533  0.50496855  0.62534214  1
  V  V64  1  0.38078477  0.38770198  0.00297509  1
  V  V65  1  0.25834027  0.00364207  0.25029562  1
  V  V66  1  0.87032425  0.12488050  0.75067682  1
  V  V67  1  0.24768806  0.37516746  0.12669570  1
  V  V68  1  0.88198044  0.24444646  0.13592950  1
  V  V69  1  0.62012056  0.25207213  0.87787976  1
  V  V70  1  0.38995082  0.86865340  0.49522416  1
  V  V71  1  0.25190996  0.87458613  0.12316995  1
  V  V72  1  0.87498023  0.62365013  0.25057343  1
  V  V73  1  0.88089743  0.75041428  0.62448994  1
  V  V74  1  0.61743524  0.49965792  0.12080835  1
  V  V75  1  0.12596290  0.49858981  0.12556099  1
  V  V76  1  0.25201554  0.25609908  0.50959572  1
  V  V77  1  0.37532771  0.24930536  0.12958784  1
  V  V78  1  0.13181998  0.37407287  0.74852935  1
  V  V79  1  0.62410743  0.24846089  0.37839236  1
  V  V80  1  0.25432866  0.12705429  0.37158401  1
  V  V81  1  0.75023642  0.37087812  0.62414165  1
  V  V82  1  0.12417523  0.25343922  0.36147231  1
  V  V83  1  0.00398051  0.36984695  0.36165548  1
  V  V84  1  0.75059562  0.62600464  0.87760019  1
  Zn  Zn85  1  -0.00126846  0.87986094  0.37230063  1
  Zn  Zn86  1  0.49661698  0.62249965  0.12164650  1
  Zn  Zn87  1  0.74659939  0.75571362  0.49646792  1
  Zn  Zn88  1  0.25204736  0.25282654  -0.00370594  1
  Zn  Zn89  1  0.62184377  -0.00714923  0.12477240  1
  Zn  Zn90  1  0.61769372  0.63475204  0.49552039  1
  Zn  Zn91  1  0.74960996  0.24614610  0.50080735  1
  Zn  Zn92  1  0.74824535  0.49994717  0.25047106  1
  Zn  Zn93  1  0.89268976  0.12190783  0.26587907  1
  Zn  Zn94  1  0.00407470  0.62744412  0.62981898  1
  Zn  Zn95  1  0.00182244  0.37390121  0.87635289  1
  Zn  Zn96  1  0.48481965  0.11555952  0.63281325  1
  Zn  Zn97  1  0.13073575  0.25238755  0.87668807  1
  Zn  Zn98  1  0.27055312  0.13429428  0.87341610  1
  Zn  Zn99  1  0.74925557  0.88240730  0.12011049  1
  Zn  Zn100  1  0.37703184  0.62691315  0.24937727  1
  Zn  Zn101  1  0.36122815  0.88104087  -0.01723315  1
  Zn  Zn102  1  0.00580596  0.12796277  0.13098903  1
  Zn  Zn103  1  0.36858268  0.37794334  0.50803110  1
  Zn  Zn104  1  0.75451424  0.76506823  -0.00849607  1
  Zn  Zn105  1  0.38474183  0.50963514  0.87391907  1
  Zn  Zn106  1  0.75068130  0.87243885  0.62152239  1
  Zn  Zn107  1  0.19019379  0.18519640  0.18497286  1
  Zn  Zn108  1  0.19144601  0.18142872  0.69123140  1
  Zn  Zn109  1  0.18998906  0.68605450  0.18919108  1
  Zn  Zn110  1  0.18761861  0.68114489  0.69063680  1
  Zn  Zn111  1  0.68768295  0.18661387  0.18928599  1
  Zn  Zn112  1  0.62692869  0.14572337  0.73094648  1
  Zn  Zn113  1  0.68456374  0.68580965  0.18981912  1
  Zn  Zn114  1  0.69384485  0.68980391  0.68588614  1
  Zn  Zn115  1  0.31294607  0.31331384  0.31497275  1
  Zn  Zn116  1  0.31552552  0.31641625  0.81577569  1
  Zn  Zn117  1  0.31767181  0.81543592  0.31415545  1
  Zn  Zn118  1  0.30594165  0.81133792  0.80441278  1
  Zn  Zn119  1  0.81073302  0.31126010  0.31549035  1
  Zn  Zn120  1  0.81065405  0.31153933  0.81408847  1
  Zn  Zn121  1  0.81273181  0.81314465  0.30935817  1
  Zn  Zn122  1  0.81407036  0.81199564  0.80951057  1
  Zn  Zn123  1  0.18479209  0.43552365  0.43567217  1
  Zn  Zn124  1  0.18949129  0.43802096  0.93624529  1
  Zn  Zn125  1  0.19588983  0.93577507  0.44344652  1
  Zn  Zn126  1  0.15101116  0.92468222  0.94516352  1
  Zn  Zn127  1  0.68856758  0.44193497  0.43766946  1
  Zn  Zn128  1  0.68996206  0.43905292  0.94075096  1
  Zn  Zn129  1  0.68721086  0.93618219  0.43708056  1
  Zn  Zn130  1  0.68702529  0.93941965  0.93608818  1
  Zn  Zn131  1  0.30809438  0.06568252  0.05517303  1
  Zn  Zn132  1  0.31346688  0.06256496  0.56248830  1
  Zn  Zn133  1  0.31132681  0.56764916  0.06147078  1
  Zn  Zn134  1  0.31119090  0.56546776  0.56304409  1
  Zn  Zn135  1  0.81179158  0.06123846  0.06552980  1
  Zn  Zn136  1  0.81044969  0.06096646  0.56231282  1
  Zn  Zn137  1  0.81091305  0.56164558  0.06306905  1
  Zn  Zn138  1  0.81462383  0.56189250  0.56295107  1
  Zn  Zn139  1  0.43633981  0.43685148  0.19250029  1
  Zn  Zn140  1  0.43808413  0.43019600  0.68584815  1
  Zn  Zn141  1  0.43931758  0.93596168  0.18907565  1
  Zn  Zn142  1  0.42318892  0.90606463  0.69572398  1
  Zn  Zn143  1  0.93552316  0.43600280  0.18493933  1
  Zn  Zn144  1  0.94192928  0.43984154  0.68799607  1
  Zn  Zn145  1  0.94055472  0.93656112  0.18847066  1
  Zn  Zn146  1  0.93422776  0.93975507  0.68316378  1
  Zn  Zn147  1  0.07060745  0.06500034  0.30990138  1
  Zn  Zn148  1  0.06084634  0.05866852  0.81140939  1
  Zn  Zn149  1  0.06264129  0.56044662  0.31177381  1
  Zn  Zn150  1  0.06813043  0.56173237  0.81453400  1
  Zn  Zn151  1  0.56873439  0.06156935  0.31182369  1
  Zn  Zn152  1  0.44422458  0.06733623  0.80787509  1
  Zn  Zn153  1  0.56152665  0.56216981  0.30810173  1
  Zn  Zn154  1  0.56439636  0.56209834  0.80829110  1
  Zn  Zn155  1  0.43536123  0.18525409  0.44186141  1
  Zn  Zn156  1  0.43641587  0.19585325  0.94237700  1
  Zn  Zn157  1  0.43288493  0.68505852  0.44926598  1
  Zn  Zn158  1  0.43499336  0.69393598  0.93737598  1
  Zn  Zn159  1  0.93983962  0.19100572  0.43939977  1
  Zn  Zn160  1  0.93806980  0.17939887  0.94087103  1
  Zn  Zn161  1  0.93919526  0.69042161  0.43854708  1
  Zn  Zn162  1  0.93594574  0.68489303  0.94035647  1
  Zn  Zn163  1  0.06427875  0.31200443  0.06378758  1
  Zn  Zn164  1  0.06402092  0.31221581  0.55972545  1
  Zn  Zn165  1  0.05693420  0.81296694  0.05901343  1
  Zn  Zn166  1  0.06256341  0.81404733  0.56207753  1
  Zn  Zn167  1  0.56098586  0.31287275  0.06356975  1
  Zn  Zn168  1  0.56149824  0.30891657  0.56372229  1
  Zn  Zn169  1  0.57184832  0.81460771  0.06029544  1
  Zn  Zn170  1  0.56216040  0.80720563  0.55783541  1
  O  O171  1  0.12876145  0.11726711  0.11794557  1
  O  O172  1  0.11921569  0.11760105  0.62100523  1
  O  O173  1  0.11407730  0.61710721  0.12964566  1
  O  O174  1  0.12374439  0.61630738  0.61563720  1
  O  O175  1  0.61536635  0.12871456  0.11414532  1
  O  O176  1  0.62632370  0.10452760  0.61843280  1
  O  O177  1  0.62510071  0.61809623  0.11591053  1
  O  O178  1  0.62639533  0.60983791  0.62903819  1
  O  O179  1  0.38231587  0.38256710  0.37912107  1
  O  O180  1  0.38696036  0.37703762  0.88601852  1
  O  O181  1  0.36479949  0.89145025  0.38634380  1
  O  O182  1  0.39194895  0.85836258  0.87190204  1
  O  O183  1  0.88209130  0.37765925  0.38071272  1
  O  O184  1  0.87712727  0.38135979  0.88146042  1
  O  O185  1  0.87982971  0.86832253  0.38639002  1
  O  O186  1  0.86977518  0.88658859  0.87338608  1
  O  O187  1  0.25246467  0.00957921  0.36870037  1
  O  O188  1  0.23755147  -0.01780187  0.86401190  1
  O  O189  1  0.25196612  0.50543308  0.36804855  1
  O  O190  1  0.25008903  0.51021758  0.86769437  1
  O  O191  1  0.74460352  0.00785409  0.36247497  1
  O  O192  1  0.75541467  0.00456614  0.86558948  1
  O  O193  1  0.76021431  0.50817965  0.37181758  1
  O  O194  1  0.75625889  0.50700341  0.87101095  1
  O  O195  1  0.24441950  0.49699740  0.13087656  1
  O  O196  1  0.23899044  0.50604231  0.63345353  1
  O  O197  1  0.24886017  0.99271213  0.13186929  1
  O  O198  1  0.23640096  1.00637625  0.63277264  1
  O  O199  1  0.74090359  0.49336379  0.12749753  1
  O  O200  1  0.74369550  0.49046534  0.62843464  1
  O  O201  1  0.74356235  1.00482947  0.14091025  1
  O  O202  1  0.74734223  0.99552664  0.63487580  1
  O  O203  1  -0.00425680  0.37860401  0.26262244  1
  O  O204  1  0.00835417  0.36598792  0.75090999  1
  O  O205  1  0.01066583  0.86962541  0.25343735  1
  O  O206  1  0.01170842  0.87604473  0.74057712  1
  O  O207  1  0.50586702  0.36841281  0.25843301  1
  O  O208  1  0.51467534  0.37806132  0.76041654  1
  O  O209  1  0.50934027  0.86382544  0.25074281  1
  O  O210  1  0.51399512  0.88024271  0.76065536  1
  O  O211  1  0.50905112  0.13030628  0.23669622  1
  O  O212  1  0.51826980  0.11592942  0.74121912  1
  O  O213  1  0.50065929  0.63986972  0.24510754  1
  O  O214  1  0.49813498  0.61744227  0.73744244  1
  O  O215  1  1.00109152  0.11968167  0.24409422  1
  O  O216  1  0.99415984  0.13317303  0.74416866  1
  O  O217  1  0.99394032  0.62844517  0.24198987  1
  O  O218  1  0.98717588  0.61722658  0.75127287  1
  O  O219  1  0.37567268  0.26557002  0.01582744  1
  O  O220  1  0.36006834  0.25180069  0.49996446  1
  O  O221  1  0.36400643  0.75730829  0.00736200  1
  O  O222  1  0.37172238  0.76912317  0.49190791  1
  O  O223  1  0.87020968  0.25354808  0.00775514  1
  O  O224  1  0.87265523  0.25696194  0.50947268  1
  O  O225  1  0.87342910  0.74352393  0.01580285  1
  O  O226  1  0.87321531  0.75826329  0.50522533  1
  O  O227  1  0.13666670  0.24441651  0.49659718  1
  O  O228  1  0.12870146  0.24038566  1.00117407  1
  O  O229  1  0.11851728  0.73889558  0.48898482  1
  O  O230  1  0.13589438  0.75360079  0.98215483  1
  O  O231  1  0.62761949  0.23912930  0.49722980  1
  O  O232  1  0.63069526  0.24480003  0.99692148  1
  O  O233  1  0.63483533  0.74428831  0.50322458  1
  O  O234  1  0.63218976  0.73887023  0.98970472  1
  O  O235  1  0.49384904  0.24404387  0.13084795  1
  O  O236  1  0.48855871  0.24525245  0.62437154  1
  O  O237  1  0.48870956  0.75232256  0.12198255  1
  O  O238  1  0.50433690  0.73116122  0.62374878  1
  O  O239  1  0.98374547  0.25545652  0.12518072  1
  O  O240  1  0.99554372  0.24551730  0.63327861  1
  O  O241  1  0.99499386  0.74245604  0.12701756  1
  O  O242  1  0.98721371  0.74450087  0.61744599  1
  O  O243  1  0.01183210  0.25820609  0.38170217  1
  O  O244  1  0.00099785  0.24808397  0.86207066  1
  O  O245  1  0.01374513  0.74955376  0.36742357  1
  O  O246  1  0.01457705  0.73958527  0.87939716  1
  O  O247  1  0.50379443  0.25330176  0.37266690  1
  O  O248  1  0.51465827  0.26418108  0.88520207  1
  O  O249  1  0.49671855  0.74288592  0.36531821  1
  O  O250  1  0.51500100  0.75702101  0.88012186  1
  O  O251  1  0.24486209  0.13395256  0.49011099  1
  O  O252  1  0.24044694  0.13297682  0.99485935  1
  O  O253  1  0.23778579  0.61717775  0.48748728  1
  O  O254  1  0.25055869  0.63609966  0.99029368  1
  O  O255  1  0.74022292  0.12270239  0.49269947  1
  O  O256  1  0.73983853  0.12825467  0.99765168  1
  O  O257  1  0.75435265  0.62158570  0.48401775  1
  O  O258  1  0.74515849  0.62414831  0.98658675  1
  O  O259  1  0.25911876  0.37695466  0.01179341  1
  O  O260  1  0.24751225  0.35986664  0.49716825  1
  O  O261  1  0.24573178  0.86696524  0.00982082  1
  O  O262  1  0.24955445  0.87648229  0.52400874  1
  O  O263  1  0.75598134  0.36916308  0.00668191  1
  O  O264  1  0.75604875  0.37646540  0.50868018  1
  O  O265  1  0.74042806  0.87471464  0.00828698  1
  O  O266  1  0.76306857  0.87739569  0.50004213  1
  O  O267  1  0.13538680  0.50395188  0.23921603  1
  O  O268  1  0.13126448  0.49340784  0.74270652  1
  O  O269  1  0.14003176  0.99398122  0.24309533  1
  O  O270  1  0.12494601  0.98808514  0.74364161  1
  O  O271  1  0.62677272  0.49321490  0.24055249  1
  O  O272  1  0.63238821  0.48912522  0.74318389  1
  O  O273  1  0.62963954  0.98617178  0.24859992  1
  O  O274  1  0.63530512  0.98817478  0.73455928  1
  O  O275  1  0.36377972  -0.00860118  0.26086194  1
  O  O276  1  0.35837676  -0.00726146  0.75294010  1
  O  O277  1  0.36663222  0.50504688  0.25705289  1
  O  O278  1  0.36204546  0.48659635  0.75321078  1
  O  O279  1  0.86090957  0.00075276  0.24568023  1
  O  O280  1  0.86468659  0.00602272  0.75183251  1
  O  O281  1  0.87580214  0.51047915  0.25325539  1
  O  O282  1  0.87100852  0.50633702  0.75558743  1
  O  O283  1  0.11563759  0.36597586  0.37858083  1
  O  O284  1  0.12055192  0.37502038  0.86429712  1
  O  O285  1  0.13206124  0.86498481  0.37187150  1
  O  O286  1  0.12855932  0.85731368  0.85406673  1
  O  O287  1  0.61991093  0.37027292  0.37248194  1
  O  O288  1  0.62314526  0.37131698  0.87160697  1
  O  O289  1  0.63106139  0.87327291  0.35919245  1
  O  O290  1  0.61913501  0.86778655  0.86767151  1
  O  O291  1  0.38433156  0.13693777  0.11727166  1
  O  O292  1  0.37327054  0.14119094  0.61796001  1
  O  O293  1  0.37576770  0.63796848  0.12691079  1
  O  O294  1  0.38295381  0.62546576  0.62475410  1
  O  O295  1  0.87631066  0.13910335  0.12433871  1
  O  O296  1  0.87854681  0.13111406  0.63108757  1
  O  O297  1  0.88363754  0.62973273  0.13334781  1
  O  O298  1  0.87652976  0.62936930  0.63340225  1
  O  O299  1  0.25888833  0.26118722  0.12894627  1
  O  O300  1  0.25443728  0.24351760  0.61266758  1
  O  O301  1  0.25475424  0.75486487  0.11899507  1
  O  O302  1  0.23623872  0.75442538  0.61820066  1
  O  O303  1  0.75742666  0.25430912  0.12102581  1
  O  O304  1  0.75596359  0.26627163  0.62558860  1
  O  O305  1  0.76549732  0.74537230  0.12917978  1
  O  O306  1  0.76568792  0.75151475  0.62114102  1
  O  O307  1  0.24537886  0.24423263  0.38115914  1
  O  O308  1  0.24721274  0.25004367  0.87743703  1
  O  O309  1  0.24100936  0.73844854  0.36472998  1
  O  O310  1  0.24850510  0.74411762  0.87842915  1
  O  O311  1  0.74091257  0.24026336  0.37700589  1
  O  O312  1  0.74288690  0.24549958  0.88362086  1
  O  O313  1  0.75729460  0.73242396  0.37190359  1
  O  O314  1  0.74330857  0.73976287  0.87340756  1
  O  O315  1  0.01637176  0.13007066  0.00985355  1
  O  O316  1  0.00512275  0.11914862  0.50571313  1
  O  O317  1  -0.00657236  0.61230206  0.01229892  1
  O  O318  1  0.01236355  0.61583519  0.49573646  1
  O  O319  1  0.50582889  0.11935907  0.00928323  1
  O  O320  1  0.51308520  0.12524161  0.50443753  1
  O  O321  1  0.51304356  0.62876601  -0.00155893  1
  O  O322  1  0.50008079  0.61275729  0.51125994  1
  O  O323  1  0.50167513  0.38650036  0.49616313  1
  O  O324  1  0.49363681  0.37599616  0.99517899  1
  O  O325  1  0.48961015  0.87349184  0.49875246  1
  O  O326  1  0.50486523  0.88435398  0.99178684  1
  O  O327  1  0.99440111  0.38063386  0.49477643  1
  O  O328  1  0.99532558  0.38566978  1.00067408  1
  O  O329  1  0.99500013  0.88355150  0.49725107  1
  O  O330  1  1.04776578  0.89487769  0.98919100  1
  O  O331  1  0.49624252  0.49778070  0.38328967  1
  O  O332  1  0.50272164  0.48890172  0.87335233  1
  O  O333  1  0.48310151  1.00790502  0.36615727  1
  O  O334  1  0.49776653  0.98819741  0.88508591  1
  O  O335  1  0.99786213  0.49103305  0.38009675  1
  O  O336  1  0.99673442  0.50255696  0.88645716  1
  O  O337  1  1.01189880  1.00066377  0.38999221  1
  O  O338  1  0.97917160  1.00558314  0.86881859  1
  O  O339  1  0.01870195  -0.00388971  0.12943955  1
  O  O340  1  0.01050001  0.00521097  0.61720181  1
  O  O341  1  0.00701526  0.50448000  0.12073112  1
  O  O342  1  0.01203427  0.50314329  0.61872906  1
  O  O343  1  0.50008081  0.00831495  0.11958127  1
  O  O344  1  0.51198137  -0.00935510  0.62739985  1
  O  O345  1  0.51265339  0.50167947  0.13156787  1
  O  O346  1  0.50670523  0.50282010  0.61973854  1
  O  O347  1  0.25771259  0.38799204  0.24041536  1
  O  O348  1  0.23784854  0.38474724  0.75534978  1
  O  O349  1  0.24814618  0.88051850  0.24239218  1
  O  O350  1  0.23178601  0.88795774  0.73491333  1
  O  O351  1  0.74256818  0.37566421  0.24547931  1
  O  O352  1  0.74295814  0.37950294  0.74373085  1
  O  O353  1  0.74386029  0.88552450  0.24876580  1
  O  O354  1  0.74034273  0.88221264  0.74957333  1
  O  O355  1  0.24809754  0.11552885  0.25960970  1
  O  O356  1  0.23748314  0.10439683  0.76250365  1
  O  O357  1  0.25216316  0.61507092  0.25919489  1
  O  O358  1  0.25015011  0.61370438  0.75734084  1
  O  O359  1  0.74438237  0.11230631  0.25945119  1
  O  O360  1  0.74489812  0.11440720  0.75806433  1
  O  O361  1  0.75997965  0.62367093  0.25847412  1
  O  O362  1  0.75749131  0.61829110  0.76025092  1
  O  O363  1  0.36401101  0.11611976  0.37836556  1
  O  O364  1  0.38150813  0.12049927  0.88381509  1
  O  O365  1  0.36435785  0.61930123  0.37764324  1
  O  O366  1  0.36445432  0.62588019  0.87766452  1
  O  O367  1  0.86006105  0.13274410  0.37785192  1
  O  O368  1  0.86492951  0.12153664  0.86885296  1
  O  O369  1  0.87352391  0.61968447  0.36576352  1
  O  O370  1  0.86804014  0.62096124  0.86960129  1
  O  O371  1  0.13729803  0.38437588  0.12232892  1
  O  O372  1  0.12052792  0.38490355  0.63373295  1
  O  O373  1  0.13832399  0.87907518  0.13287483  1
  O  O374  1  0.13037691  0.87872632  0.63215963  1
  O  O375  1  0.62869371  0.38077794  0.12966596  1
  O  O376  1  0.63021411  0.38083624  0.63201657  1
  O  O377  1  0.62873951  0.87433400  0.14029787  1
  O  O378  1  0.62629856  0.88040133  0.62989113  1
  O  O379  1  0.13329225  0.24827074  0.26272169  1
  O  O380  1  0.11811491  0.25681079  0.74715378  1
  O  O381  1  0.12263791  0.75394820  0.25668661  1
  O  O382  1  0.12425638  0.75649624  0.75445389  1
  O  O383  1  0.61849638  0.25493927  0.25734295  1
  O  O384  1  0.63320746  0.25952565  0.76577448  1
  O  O385  1  0.61240841  0.75769928  0.24700282  1
  O  O386  1  0.63425062  0.75966574  0.75893838  1
  O  O387  1  0.38212517  0.25771655  0.23812013  1
  O  O388  1  0.37011538  0.25108715  0.73883274  1
  O  O389  1  0.38916179  0.75278165  0.24399425  1
  O  O390  1  0.34831826  0.81203906  0.70044006  1
  O  O391  1  0.86763418  0.24550731  0.23809155  1
  O  O392  1  0.88187071  0.24594446  0.74625044  1
  O  O393  1  0.88292270  0.74057049  0.24161817  1
  O  O394  1  0.87062975  0.73864935  0.74130375  1
  O  O395  1  0.38276739  0.49784420  0.49650647  1
  O  O396  1  0.37168281  0.49131720  0.99930226  1
  O  O397  1  0.37341103  1.00136708  0.48397445  1
  O  O398  1  0.38587569  0.99322613  1.00847934  1
  O  O399  1  0.88290271  0.49465434  0.49499616  1
  O  O400  1  0.88331025  0.49404776  0.99763895  1
  O  O401  1  0.88796758  0.99109204  0.50860899  1
  O  O402  1  0.86943461  1.00438246  0.98711437  1
  O  O403  1  0.13944105  0.01885355  0.01149466  1
  O  O404  1  0.12065205  0.00494141  0.50865284  1
  O  O405  1  0.11615853  0.49632638  0.01157174  1
  O  O406  1  0.12287220  0.50529410  0.50656398  1
  O  O407  1  0.61428820  0.01163243  0.00063047  1
  O  O408  1  0.62939202  0.00140856  0.51283222  1
  O  O409  1  0.63075013  0.50946553  0.00944713  1
  O  O410  1  0.61667758  0.50322483  0.50902909  1
  O  O411  1  0.36924088  0.37265850  0.12086509  1
  O  O412  1  0.37814422  0.35658120  0.62153063  1
  O  O413  1  0.36396826  0.86717156  0.12730731  1
  O  O414  1  0.36712731  0.89992492  0.59599142  1
  O  O415  1  0.86877640  0.36543904  0.12109839  1
  O  O416  1  0.86867287  0.37389140  0.62223062  1
  O  O417  1  0.87595489  0.85760402  0.13252880  1
  O  O418  1  0.87585804  0.86643917  0.61520709  1
  O  O419  1  0.13522236  0.13405249  0.38095934  1
  O  O420  1  0.12050116  0.12374247  0.88867042  1
  O  O421  1  0.13162554  0.63026379  0.37955498  1
  O  O422  1  0.13823334  0.63920151  0.86497773  1
  O  O423  1  0.63145837  0.12733669  0.38480716  1
  O  O424  1  0.63026866  0.13749143  0.88821162  1
  O  O425  1  0.64175507  0.61630286  0.37318660  1
  O  O426  1  0.63169591  0.62934091  0.87768110  1
