# generated using pymatgen
data_V85Zn86O256
_symmetry_space_group_name_H-M   'P 1'
_cell_length_a   16.97070416
_cell_length_b   16.98803785
_cell_length_c   16.98992950
_cell_angle_alpha   89.95742279
_cell_angle_beta   90.01787224
_cell_angle_gamma   90.07267822
_symmetry_Int_Tables_number   1
_chemical_formula_structural   V85Zn86O256
_chemical_formula_sum   'V85 Zn86 O256'
_cell_volume   4898.17355347
_cell_formula_units_Z   1
loop_
 _symmetry_equiv_pos_site_id
 _symmetry_equiv_pos_as_xyz
  1  'x, y, z'
loop_
 _atom_site_type_symbol
 _atom_site_label
 _atom_site_symmetry_multiplicity
 _atom_site_fract_x
 _atom_site_fract_y
 _atom_site_fract_z
 _atom_site_occupancy
  V  V0  1  0.00279194  0.86801045  0.87883067  1
  V  V1  1  0.49100715  0.62833545  0.12638426  1
  V  V2  1  0.30801168  0.43350778  0.68453533  1
  V  V3  1  0.37367304  0.25081811  0.12717600  1
  V  V4  1  0.62038806  0.75656518  0.87536000  1
  V  V5  1  0.12267585  0.37380667  0.24887731  1
  V  V6  1  0.86583914  0.37216849  -0.00466723  1
  V  V7  1  0.12586148  0.62108464  -0.00183339  1
  V  V8  1  0.12443103  0.24081018  0.88106785  1
  V  V9  1  -0.00487670  0.24623501  0.24822180  1
  V  V10  1  0.62540859  0.00183142  0.62691523  1
  V  V11  1  0.75852110  0.00540272  0.74810570  1
  V  V12  1  0.12811724  0.37719035  0.74726594  1
  V  V13  1  0.62872884  0.36227081  0.74411947  1
  V  V14  1  0.62392984  0.49970932  0.12472458  1
  V  V15  1  0.37256666  -0.00021275  0.37494972  1
  V  V16  1  0.87927431  0.75225964  0.62409860  1
  V  V17  1  0.75232527  0.75087577  0.49731189  1
  V  V18  1  -0.00059354  0.37942937  0.87202250  1
  V  V19  1  0.24714807  0.74596343  0.50273381  1
  V  V20  1  0.13425977  0.74910600  0.87404096  1
  V  V21  1  0.37879687  0.86630328  0.00637229  1
  V  V22  1  0.37594003  0.75010795  0.63444003  1
  V  V23  1  0.24739517  0.49973151  0.25065823  1
  V  V24  1  0.49973559  -0.00012511  0.50079436  1
  V  V25  1  0.74970161  0.25378576  0.50139829  1
  V  V26  1  0.75321302  0.62596481  0.37030890  1
  V  V27  1  0.00935563  0.62579524  0.62233946  1
  V  V28  1  0.37393082  0.37654278  -0.00731061  1
  V  V29  1  0.49966384  0.37489265  0.37427616  1
  V  V30  1  0.49899858  0.24935809  0.25175526  1
  V  V31  1  0.62746629  0.62250284  0.50408319  1
  V  V32  1  0.61906307  -0.00334059  0.12418260  1
  V  V33  1  0.88290573  0.87668775  0.49413356  1
  V  V34  1  0.62573280  0.25208001  0.37409024  1
  V  V35  1  0.49095068  0.74872518  0.24807348  1
  V  V36  1  0.24361702  0.87499966  0.63396531  1
  V  V37  1  0.37225293  0.12261215  0.76155471  1
  V  V38  1  0.12042805  0.87794866  0.23537626  1
  V  V39  1  0.24085739  0.62558429  0.37763449  1
  V  V40  1  0.75124999  0.63278539  0.87372569  1
  V  V41  1  0.75173579  0.50231503  0.24789657  1
  V  V42  1  0.37356165  0.12468449  0.25231908  1
  V  V43  1  0.00853606  0.00577078  0.49467088  1
  V  V44  1  0.87066518  0.37837103  0.50483594  1
  V  V45  1  0.86892735  0.86732470  -0.00407904  1
  V  V46  1  0.49729154  -0.00519821  -0.02331943  1
  V  V47  1  0.50029439  0.87309100  0.37403493  1
  V  V48  1  0.24235744  0.12317259  0.38203020  1
  V  V49  1  0.87581580  0.50628173  0.36810704  1
  V  V50  1  -0.00199448  0.37513294  0.37287699  1
  V  V51  1  0.87909305  -0.00317988  0.37229255  1
  V  V52  1  -0.00153878  0.50316728  0.00213741  1
  V  V53  1  0.87647118  0.24487003  0.62427624  1
  V  V54  1  0.12179929  0.00304064  0.63914924  1
  V  V55  1  0.86817118  0.24953957  0.12007562  1
  V  V56  1  0.37428086  0.87494530  0.50181978  1
  V  V57  1  0.12054353  0.76563417  0.38064686  1
  V  V58  1  0.62893481  0.63296488  0.00057253  1
  V  V59  1  0.24487436  -0.00248281  0.23760435  1
  V  V60  1  0.00148950  0.11203059  0.11263773  1
  V  V61  1  0.24579196  0.25020954  0.50691678  1
  V  V62  1  0.12098843  0.49736824  0.12278116  1
  V  V63  1  0.37325445  0.50390633  0.37235265  1
  V  V64  1  0.74825035  0.86536872  0.11839108  1
  V  V65  1  0.24892327  0.74652506  0.02572798  1
  V  V66  1  0.26587610  0.61067539  0.86419182  1
  V  V67  1  0.49861480  0.62960618  0.62839995  1
  V  V68  1  0.36779615  0.37539923  0.49795103  1
  V  V69  1  0.49485790  0.50043629  -0.00944278  1
  V  V70  1  0.74916161  -0.00282012  0.24930834  1
  V  V71  1  0.87572686  0.62161289  0.74956559  1
  V  V72  1  0.88361431  0.00470896  0.87518599  1
  V  V73  1  0.12150175  0.24631799  0.37969498  1
  V  V74  1  0.00868997  0.75286392  0.75056931  1
  V  V75  1  0.75256208  0.87634645  0.62304957  1
  V  V76  1  0.12855451  0.49775471  0.62635090  1
  V  V77  1  0.63206310  0.12691901  -0.00732095  1
  V  V78  1  -0.00223766  0.24159159  0.74599542  1
  V  V79  1  0.61852184  0.87530675  0.75106205  1
  V  V80  1  0.24848277  0.37331116  0.12559358  1
  V  V81  1  0.50492979  0.50127747  0.50271068  1
  V  V82  1  0.88680274  0.74014245  0.12558714  1
  V  V83  1  0.00647065  0.50371487  0.49844264  1
  V  V84  1  0.49430878  0.13180967  0.62957525  1
  Zn  Zn85  1  0.25629036  -0.00533206  0.75611161  1
  Zn  Zn86  1  -0.00620112  0.74361324  0.25279159  1
  Zn  Zn87  1  0.37149442  0.25399362  0.63168041  1
  Zn  Zn88  1  0.62462639  0.37397110  0.24746812  1
  Zn  Zn89  1  0.25670126  0.11260270  0.88653291  1
  Zn  Zn90  1  0.62467578  0.12651372  0.49974157  1
  Zn  Zn91  1  0.50094648  0.12160301  0.12453887  1
  Zn  Zn92  1  0.00591672  0.12801871  0.61872618  1
  Zn  Zn93  1  0.62362603  0.74852529  0.37400452  1
  Zn  Zn94  1  0.74868788  0.12468128  0.37376633  1
  Zn  Zn95  1  0.74556344  0.37069471  0.11951352  1
  Zn  Zn96  1  0.62244780  0.87153991  0.24795659  1
  Zn  Zn97  1  0.75547651  0.12913638  0.86908242  1
  Zn  Zn98  1  0.49667492  0.74822410  0.75602238  1
  Zn  Zn99  1  0.50546490  0.35678547  0.87471099  1
  Zn  Zn100  1  0.24294475  0.24297121  0.00536208  1
  Zn  Zn101  1  0.87285392  0.12285028  0.24730634  1
  Zn  Zn102  1  0.86784503  0.50034670  0.87253324  1
  Zn  Zn103  1  0.16353492  0.06844351  0.05056476  1
  Zn  Zn104  1  0.36244493  0.63281606  0.24270289  1
  Zn  Zn105  1  0.73186454  0.50290636  0.73483783  1
  Zn  Zn106  1  0.68287840  0.28511204  -0.07426806  1
  Zn  Zn107  1  0.18488157  0.18557790  0.19411630  1
  Zn  Zn108  1  0.18567489  0.18354125  0.69230608  1
  Zn  Zn109  1  0.15571838  0.67740856  0.19887207  1
  Zn  Zn110  1  0.19340114  0.68298995  0.69173093  1
  Zn  Zn111  1  0.68462411  0.18188331  0.18486891  1
  Zn  Zn112  1  0.69309940  0.18701588  0.68148687  1
  Zn  Zn113  1  0.68124333  0.68869462  0.19005032  1
  Zn  Zn114  1  0.68855319  0.69129307  0.68661542  1
  Zn  Zn115  1  0.30969777  0.31165766  0.31550642  1
  Zn  Zn116  1  0.31433913  0.29811378  0.81611225  1
  Zn  Zn117  1  0.30688939  0.81458632  0.30957747  1
  Zn  Zn118  1  0.31658523  0.81429355  0.82100124  1
  Zn  Zn119  1  0.80961930  0.31855720  0.31266772  1
  Zn  Zn120  1  0.81020409  0.31273520  0.80437416  1
  Zn  Zn121  1  0.81367185  0.81246132  0.30690550  1
  Zn  Zn122  1  0.81162040  0.81245824  0.80828749  1
  Zn  Zn123  1  0.18499557  0.43509696  0.43546276  1
  Zn  Zn124  1  0.19017072  0.43321539  0.93602852  1
  Zn  Zn125  1  0.19070898  0.93835316  0.44220869  1
  Zn  Zn126  1  0.21518872  0.92241394  0.93549421  1
  Zn  Zn127  1  0.68932274  0.43634726  0.56657018  1
  Zn  Zn128  1  0.68231979  0.45277085  0.92698834  1
  Zn  Zn129  1  0.68850140  0.93744535  0.43786070  1
  Zn  Zn130  1  0.69058335  0.94228561  0.93388868  1
  Zn  Zn131  1  0.32693794  0.06132442  0.06180902  1
  Zn  Zn132  1  0.30910830  0.06060999  0.56468772  1
  Zn  Zn133  1  0.30826918  0.56009444  0.05778684  1
  Zn  Zn134  1  0.31804829  0.56801261  0.55961713  1
  Zn  Zn135  1  0.81584544  0.05551312  0.06146727  1
  Zn  Zn136  1  0.81425781  0.06598273  0.55797758  1
  Zn  Zn137  1  0.81198615  0.56233709  0.05891848  1
  Zn  Zn138  1  0.81972306  0.56760392  0.56021641  1
  Zn  Zn139  1  0.43602015  0.43907250  0.18655636  1
  Zn  Zn140  1  0.49340740  0.45999349  0.70898268  1
  Zn  Zn141  1  0.43034287  0.93358192  0.18720848  1
  Zn  Zn142  1  0.43675579  0.94087275  0.68965648  1
  Zn  Zn143  1  0.93399344  0.43540026  0.18341377  1
  Zn  Zn144  1  0.93963181  0.43628974  0.68604224  1
  Zn  Zn145  1  0.93589264  0.92758296  0.18895668  1
  Zn  Zn146  1  0.94201963  0.93846804  0.68838869  1
  Zn  Zn147  1  0.06092238  0.06073767  0.30811125  1
  Zn  Zn148  1  0.09856221  0.02547746  0.87163959  1
  Zn  Zn149  1  0.06033028  0.56775747  0.30998228  1
  Zn  Zn150  1  0.06796941  0.56389169  0.81167419  1
  Zn  Zn151  1  0.56270189  0.06327180  0.31161477  1
  Zn  Zn152  1  0.55870029  0.18566704  0.81031118  1
  Zn  Zn153  1  0.56339762  0.56379335  0.31303868  1
  Zn  Zn154  1  0.56901061  0.56461504  0.81374996  1
  Zn  Zn155  1  0.43442763  0.18635389  0.44058235  1
  Zn  Zn156  1  0.43771047  0.18304786  0.94730799  1
  Zn  Zn157  1  0.43255359  0.68803439  0.43783977  1
  Zn  Zn158  1  0.43696126  0.68759728  0.93993565  1
  Zn  Zn159  1  0.93294635  0.18303008  0.43588371  1
  Zn  Zn160  1  0.93844727  0.19153013  0.93554122  1
  Zn  Zn161  1  0.94045508  0.68754945  0.43798202  1
  Zn  Zn162  1  0.93720479  0.68959679  0.94107485  1
  Zn  Zn163  1  0.05437564  0.31270048  0.06213740  1
  Zn  Zn164  1  0.06214986  0.31669853  0.56139094  1
  Zn  Zn165  1  0.06040368  0.92437568  0.05574981  1
  Zn  Zn166  1  0.06439624  0.81792618  0.56210259  1
  Zn  Zn167  1  0.55697785  0.31218726  0.06137389  1
  Zn  Zn168  1  0.55927901  0.31139681  0.56039267  1
  Zn  Zn169  1  0.55855275  0.81255207  0.06202735  1
  Zn  Zn170  1  0.56507782  0.81131915  0.56114481  1
  O  O171  1  0.10710341  0.12959903  0.12864211  1
  O  O172  1  0.12539875  0.10795108  0.62736115  1
  O  O173  1  0.13218802  0.61078829  0.10303521  1
  O  O174  1  0.11791267  0.61285088  0.63232792  1
  O  O175  1  0.62299913  0.11097020  0.11585070  1
  O  O176  1  0.61337888  0.11770813  0.62464676  1
  O  O177  1  0.61806702  0.61879517  0.11743454  1
  O  O178  1  0.61755759  0.63550401  0.61006359  1
  O  O179  1  0.37913932  0.38133105  0.38162309  1
  O  O180  1  0.37341632  0.36299006  0.89127249  1
  O  O181  1  0.38201728  0.87958208  0.38061886  1
  O  O182  1  0.33785581  0.88537495  0.90722243  1
  O  O183  1  0.87939928  0.38652238  0.38264839  1
  O  O184  1  0.88469812  0.37854431  0.87765473  1
  O  O185  1  0.86888318  0.88363914  0.38409264  1
  O  O186  1  0.88083908  0.87286005  0.87969976  1
  O  O187  1  0.25399767  0.00766661  0.37311807  1
  O  O188  1  0.21533724  0.00886718  0.86101277  1
  O  O189  1  0.25075996  0.50731703  0.37216719  1
  O  O190  1  0.25006956  0.51168338  0.88101878  1
  O  O191  1  0.75610854  -0.00132220  0.36572243  1
  O  O192  1  0.76459090  0.00214889  0.86529795  1
  O  O193  1  0.76190136  0.51112955  0.36497515  1
  O  O194  1  0.74937676  0.52001546  0.86215973  1
  O  O195  1  0.24208454  0.49202262  0.13006910  1
  O  O196  1  0.24880462  0.49974095  0.62643521  1
  O  O197  1  0.24508746  1.01635503  0.13655153  1
  O  O198  1  0.23700442  0.99263819  0.62546724  1
  O  O199  1  0.74040466  0.50365533  0.13162609  1
  O  O200  1  0.75496792  0.50511322  0.62382852  1
  O  O201  1  0.74253653  0.98900901  0.13087925  1
  O  O202  1  0.74709936  0.99709144  0.62681313  1
  O  O203  1  0.00165236  0.36605832  0.25313773  1
  O  O204  1  0.00915489  0.37159594  0.75627104  1
  O  O205  1  0.01596673  0.86861448  0.24827306  1
  O  O206  1  -0.00662856  0.85851022  0.75954148  1
  O  O207  1  0.49966276  0.36882574  0.25648690  1
  O  O208  1  0.51876285  0.36308909  0.75837009  1
  O  O209  1  0.49674357  0.86791175  0.25868488  1
  O  O210  1  0.51541733  0.87526187  0.74334888  1
  O  O211  1  0.49119995  0.13105531  0.24954976  1
  O  O212  1  0.49085747  0.12478319  0.73619925  1
  O  O213  1  0.49698610  0.63131282  0.24363727  1
  O  O214  1  0.51012136  0.62598807  0.73192243  1
  O  O215  1  0.99595093  0.13355397  0.24086864  1
  O  O216  1  1.00022725  0.14347207  0.74635728  1
  O  O217  1  1.04731231  0.64581909  0.23434873  1
  O  O218  1  0.99625188  0.63259958  0.74239920  1
  O  O219  1  0.37254904  0.25561647  0.01517683  1
  O  O220  1  0.36715005  0.26167031  0.50194887  1
  O  O221  1  0.36427422  0.75686807  0.00281499  1
  O  O222  1  0.36562604  0.75630911  0.50918707  1
  O  O223  1  0.88377427  0.26228717  0.00877097  1
  O  O224  1  0.86997241  0.25982814  0.50128599  1
  O  O225  1  0.87239925  0.75933955  0.00703203  1
  O  O226  1  0.87385884  0.75793683  0.50306427  1
  O  O227  1  0.13329507  0.25986608  0.49148378  1
  O  O228  1  0.12037113  0.25871444  0.98424409  1
  O  O229  1  0.13533978  0.75664504  0.49187465  1
  O  O230  1  0.13995617  0.73467534  0.99115476  1
  O  O231  1  0.63341625  0.25190581  0.49238782  1
  O  O232  1  0.62605998  0.23159019  1.01299896  1
  O  O233  1  0.63378719  0.74286533  0.49502890  1
  O  O234  1  0.61906540  0.74020703  0.99279987  1
  O  O235  1  0.48864855  0.24945238  0.13288525  1
  O  O236  1  0.49557722  0.23399553  0.61630241  1
  O  O237  1  0.50478629  0.73942705  0.13436608  1
  O  O238  1  0.49146784  0.74600467  0.62318634  1
  O  O239  1  0.98919104  0.24486174  0.13266278  1
  O  O240  1  0.99640910  0.25057534  0.62822797  1
  O  O241  1  0.98412038  0.74946137  0.11940698  1
  O  O242  1  1.00201902  0.74422521  0.62996974  1
  O  O243  1  -0.00028954  0.25323525  0.36701769  1
  O  O244  1  0.00494982  0.26221316  0.86669150  1
  O  O245  1  0.01855572  0.74428844  0.37689577  1
  O  O246  1  0.00887750  0.75009664  0.86878914  1
  O  O247  1  0.50392048  0.25343831  0.37193094  1
  O  O248  1  0.50496882  0.24485918  0.88670177  1
  O  O249  1  0.49758271  0.75834340  0.37019723  1
  O  O250  1  0.51424515  0.74368556  0.87248154  1
  O  O251  1  0.25654329  0.13326727  0.48853161  1
  O  O252  1  0.25138189  0.12570589  1.00174024  1
  O  O253  1  0.25369897  0.63771290  0.49446249  1
  O  O254  1  0.24694432  0.63103925  0.98934626  1
  O  O255  1  0.74743170  0.13864443  0.49581828  1
  O  O256  1  0.73381412  0.10912994  0.99941617  1
  O  O257  1  0.74602441  0.63036181  0.49078994  1
  O  O258  1  0.73656819  0.61874121  0.98872926  1
  O  O259  1  0.25688009  0.36957250  0.00814126  1
  O  O260  1  0.25948690  0.36627651  0.49174130  1
  O  O261  1  0.24532186  0.84906430  0.01917345  1
  O  O262  1  0.25550519  0.86583642  0.51048005  1
  O  O263  1  0.76004026  0.38220912  -0.00612490  1
  O  O264  1  0.75996398  0.36657427  0.49925629  1
  O  O265  1  0.75643284  0.88004381  0.00759187  1
  O  O266  1  0.76005440  0.87072221  0.50386486  1
  O  O267  1  0.12776072  0.49109356  0.24410877  1
  O  O268  1  0.12181687  0.48891266  0.74009210  1
  O  O269  1  0.13042932  0.98631711  0.25584368  1
  O  O270  1  0.11620513  0.99480506  0.73670156  1
  O  O271  1  0.63055966  0.49984593  0.24010756  1
  O  O272  1  0.61334729  0.48350918  0.74764041  1
  O  O273  1  0.63181360  0.99699647  0.24239740  1
  O  O274  1  0.63814195  0.99006289  0.73476019  1
  O  O275  1  0.36461656  0.00408946  0.25490125  1
  O  O276  1  0.37391532  0.01606267  0.74491670  1
  O  O277  1  0.36546390  0.50159374  0.25602649  1
  O  O278  1  0.37715578  0.48086801  0.73625763  1
  O  O279  1  0.86729967  -0.00617404  0.25641679  1
  O  O280  1  0.86883172  -0.01056875  0.76157890  1
  O  O281  1  0.86899769  0.49591021  0.25823850  1
  O  O282  1  0.88348923  0.51554629  0.75020357  1
  O  O283  1  0.11626205  0.36849836  0.36796323  1
  O  O284  1  0.11932601  0.36893413  0.86462328  1
  O  O285  1  0.12457489  0.86678737  0.37941556  1
  O  O286  1  0.11615458  0.85693660  0.88101277  1
  O  O287  1  0.61503329  0.35869112  0.37112670  1
  O  O288  1  0.62683026  0.36950872  0.87270511  1
  O  O289  1  0.61014825  0.87558781  0.37552481  1
  O  O290  1  0.63578900  0.86616075  0.86482408  1
  O  O291  1  0.37835156  0.13585175  0.13384818  1
  O  O292  1  0.38659846  0.12243366  0.62713059  1
  O  O293  1  0.38733362  0.61722817  0.12494114  1
  O  O294  1  0.38525291  0.63982189  0.61818062  1
  O  O295  1  0.88459854  0.12956326  0.12455115  1
  O  O296  1  0.88150635  0.14070452  0.61666145  1
  O  O297  1  0.86676328  0.64148844  0.11627318  1
  O  O298  1  0.88973396  0.63257059  0.63026918  1
  O  O299  1  0.25726008  0.25404123  0.13033985  1
  O  O300  1  0.24831259  0.24078567  0.61019570  1
  O  O301  1  0.24122339  0.72830911  0.12175101  1
  O  O302  1  0.25454805  0.75385424  0.62128052  1
  O  O303  1  0.76384304  0.24928036  0.13199661  1
  O  O304  1  0.76113347  0.24808549  0.61169945  1
  O  O305  1  0.74940459  0.76304488  0.13221011  1
  O  O306  1  0.75947462  0.75551388  0.61742170  1
  O  O307  1  0.24313843  0.24169502  0.38222288  1
  O  O308  1  0.23203780  0.24116039  0.87650196  1
  O  O309  1  0.24378662  0.74693190  0.38521824  1
  O  O310  1  0.24203902  0.73928285  0.87317819  1
  O  O311  1  0.74330690  0.25092696  0.38087805  1
  O  O312  1  0.77267573  0.23911209  0.87984943  1
  O  O313  1  0.75208660  0.74072376  0.37710379  1
  O  O314  1  0.73978684  0.74011408  0.86862419  1
  O  O315  1  -0.00212608  0.12769037  0.01433917  1
  O  O316  1  -0.00416160  0.11128513  0.50000322  1
  O  O317  1  0.00959693  0.61077694  -0.01283391  1
  O  O318  1  -0.00289459  0.61497911  0.51090831  1
  O  O319  1  0.50913066  0.10673480  0.00369095  1
  O  O320  1  0.49999230  0.11710149  0.50911496  1
  O  O321  1  0.50634709  0.61989643  0.00849875  1
  O  O322  1  0.50755532  0.62058535  0.50226220  1
  O  O323  1  0.48935655  0.38251996  0.49649529  1
  O  O324  1  0.49164352  0.38427437  0.99899291  1
  O  O325  1  0.49477034  0.87920882  0.49312247  1
  O  O326  1  0.48753961  0.87827018  0.99565867  1
  O  O327  1  0.99291121  0.38571332  0.49191064  1
  O  O328  1  0.99095381  0.38303558  0.98932432  1
  O  O329  1  0.98799793  0.88409864  0.50348230  1
  O  O330  1  0.98676185  0.87036899  0.98577908  1
  O  O331  1  0.49469840  0.49704931  0.38386072  1
  O  O332  1  0.50263579  0.50495281  0.89019043  1
  O  O333  1  0.49354861  0.99287750  0.37895249  1
  O  O334  1  0.50217268  0.99749157  0.88219024  1
  O  O335  1  0.99623657  0.49959315  0.37883177  1
  O  O336  1  1.00242937  0.49009062  0.88007723  1
  O  O337  1  0.98871261  1.00349828  0.38025585  1
  O  O338  1  0.99012680  0.98234999  0.86493831  1
  O  O339  1  -0.00422089  0.00760293  0.12224792  1
  O  O340  1  0.00959587  -0.00079519  0.61688850  1
  O  O341  1  0.00487803  0.49007786  0.11027987  1
  O  O342  1  0.00864653  0.50643634  0.61776861  1
  O  O343  1  0.51246446  -0.00439605  0.12917590  1
  O  O344  1  0.50862026  0.00667529  0.62005337  1
  O  O345  1  0.50876941  0.50774010  0.12052073  1
  O  O346  1  0.48994185  0.51450250  0.60929896  1
  O  O347  1  0.24252821  0.37910208  0.24676383  1
  O  O348  1  0.24852285  0.37342514  0.74789335  1
  O  O349  1  0.24100249  0.88974241  0.25489348  1
  O  O350  1  0.25741107  0.87546894  0.73698925  1
  O  O351  1  0.74611377  0.39049255  0.24614504  1
  O  O352  1  0.73339059  0.38242135  0.75528258  1
  O  O353  1  0.74569355  0.88368692  0.24111067  1
  O  O354  1  0.74456752  0.88226344  0.74088912  1
  O  O355  1  0.25325536  0.11793541  0.26202945  1
  O  O356  1  0.26338911  0.12131297  0.75112591  1
  O  O357  1  0.24510740  0.61746122  0.25937990  1
  O  O358  1  0.25135835  0.62061155  0.76407422  1
  O  O359  1  0.75191180  0.10844053  0.24763065  1
  O  O360  1  0.74762277  0.10899789  0.74764567  1
  O  O361  1  0.74113609  0.61573758  0.25978403  1
  O  O362  1  0.76097658  0.62823289  0.75270010  1
  O  O363  1  0.36566718  0.11985085  0.37066810  1
  O  O364  1  0.37459274  0.12658078  0.86486645  1
  O  O365  1  0.36130651  0.62064538  0.37390068  1
  O  O366  1  0.36456825  0.62754586  0.87797138  1
  O  O367  1  0.86925960  0.11122706  0.36929950  1
  O  O368  1  0.88505180  0.10580595  0.87976125  1
  O  O369  1  0.86827285  0.61701528  0.37986380  1
  O  O370  1  0.86836222  0.62861064  0.86695057  1
  O  O371  1  0.12801570  0.37628404  0.12946136  1
  O  O372  1  0.12303724  0.38450243  0.63542540  1
  O  O373  1  0.12491139  0.87341183  0.13689631  1
  O  O374  1  0.13464465  0.88524222  0.62122917  1
  O  O375  1  0.62638802  0.38726225  0.12190971  1
  O  O376  1  0.62282414  0.36943689  0.63531166  1
  O  O377  1  0.63080335  0.88123715  0.12254670  1
  O  O378  1  0.63208286  0.88118726  0.62875782  1
  O  O379  1  0.11301842  0.25470119  0.25717517  1
  O  O380  1  0.11931865  0.25954893  0.75635870  1
  O  O381  1  0.14006339  0.77190152  0.26870310  1
  O  O382  1  0.11641410  0.74064956  0.75876307  1
  O  O383  1  0.61891666  0.24930593  0.25502394  1
  O  O384  1  0.63367087  0.25475086  0.75183523  1
  O  O385  1  0.60943088  0.75238913  0.25606680  1
  O  O386  1  0.62397786  0.75944660  0.75562782  1
  O  O387  1  0.37758863  0.24618027  0.24545398  1
  O  O388  1  0.37203862  0.23179052  0.74429428  1
  O  O389  1  0.38509317  0.74948686  0.25450873  1
  O  O390  1  0.37920893  0.76008146  0.73894946  1
  O  O391  1  0.88223633  0.25212929  0.24322126  1
  O  O392  1  0.88550825  0.26468937  0.73225036  1
  O  O393  1  0.87935529  0.75721593  0.23395504  1
  O  O394  1  0.88526751  0.74039744  0.74364614  1
  O  O395  1  0.37984150  0.49275219  0.49284274  1
  O  O396  1  0.38366617  0.48691112  1.00960289  1
  O  O397  1  0.37865812  0.99356204  0.49524388  1
  O  O398  1  0.39281005  0.99352646  1.00140341  1
  O  O399  1  0.88575796  0.49576425  0.49027196  1
  O  O400  1  0.88201656  0.49246767  0.99553109  1
  O  O401  1  0.88081854  0.99342759  0.49178853  1
  O  O402  1  0.87184957  0.98584885  0.98231178  1
  O  O403  1  0.12556645  -0.01410355  -0.01333128  1
  O  O404  1  0.11198156  -0.00602897  0.50351215  1
  O  O405  1  0.11673268  0.50005559  0.00135115  1
  O  O406  1  0.11589800  0.49061444  0.51105942  1
  O  O407  1  0.61342460  0.00079376  0.00370554  1
  O  O408  1  0.62209292  0.00018962  0.51193321  1
  O  O409  1  0.61599855  0.51111558  0.00724663  1
  O  O410  1  0.61335118  0.50692115  0.50262308  1
  O  O411  1  0.36890043  0.36645802  0.12121894  1
  O  O412  1  0.36402809  0.37529504  0.61768518  1
  O  O413  1  0.36970732  0.88174353  0.10665439  1
  O  O414  1  0.36794374  0.86926130  0.61995517  1
  O  O415  1  0.87008364  0.36795561  0.11306052  1
  O  O416  1  0.88517923  0.36883031  0.60922029  1
  O  O417  1  0.86696230  0.86894311  0.11382861  1
  O  O418  1  0.87260947  0.87127255  0.61601041  1
  O  O419  1  0.13413471  0.13063445  0.36853047  1
  O  O420  1  0.10860726  0.14261971  0.87453725  1
  O  O421  1  0.13816178  0.63548929  0.37715103  1
  O  O422  1  0.13371750  0.62854718  0.88177557  1
  O  O423  1  0.62502093  0.13782322  0.37711510  1
  O  O424  1  0.62805368  0.12586315  0.88985260  1
  O  O425  1  0.63492943  0.62364036  0.38657162  1
  O  O426  1  0.63149326  0.63519156  0.88083190  1
