# generated using pymatgen
data_V85Zn86O256
_symmetry_space_group_name_H-M   'P 1'
_cell_length_a   16.94324628
_cell_length_b   16.94259285
_cell_length_c   16.92998009
_cell_angle_alpha   89.96810240
_cell_angle_beta   89.85093637
_cell_angle_gamma   90.11253228
_symmetry_Int_Tables_number   1
_chemical_formula_structural   V85Zn86O256
_chemical_formula_sum   'V85 Zn86 O256'
_cell_volume   4859.93621391
_cell_formula_units_Z   1
loop_
 _symmetry_equiv_pos_site_id
 _symmetry_equiv_pos_as_xyz
  1  'x, y, z'
loop_
 _atom_site_type_symbol
 _atom_site_label
 _atom_site_symmetry_multiplicity
 _atom_site_fract_x
 _atom_site_fract_y
 _atom_site_fract_z
 _atom_site_occupancy
  V  V0  1  -0.00406760  -0.00291099  0.46999385  1
  V  V1  1  0.49598158  0.37534442  0.38349643  1
  V  V2  1  0.62488817  0.74998765  0.87552305  1
  V  V3  1  0.11987902  0.87631074  0.74996804  1
  V  V4  1  0.50084099  0.12242497  0.12555161  1
  V  V5  1  -0.00055168  0.62664124  0.13420551  1
  V  V6  1  0.75562747  0.50907537  0.75290644  1
  V  V7  1  0.88297866  0.24818303  0.62447184  1
  V  V8  1  0.12732925  0.12890004  0.49526582  1
  V  V9  1  0.12299929  0.87703313  0.25190115  1
  V  V10  1  0.00159735  0.24741884  0.75054861  1
  V  V11  1  0.24876609  0.00173079  0.25483393  1
  V  V12  1  0.37451173  0.87544072  -0.00018202  1
  V  V13  1  0.37407586  0.25104978  0.12603023  1
  V  V14  1  0.75413470  0.75511752  0.00235510  1
  V  V15  1  0.13255935  0.25262599  0.36555298  1
  V  V16  1  0.12464574  0.24457119  0.87763475  1
  V  V17  1  0.24984512  0.50034321  0.74803344  1
  V  V18  1  0.51158512  0.00246743  0.50950761  1
  V  V19  1  0.87888718  0.23394215  0.12922833  1
  V  V20  1  0.12973189  0.37297182  0.75001083  1
  V  V21  1  0.75387416  0.37890208  0.62549938  1
  V  V22  1  0.50059393  0.37554811  0.87588214  1
  V  V23  1  0.00081197  0.61842966  0.62179407  1
  V  V24  1  0.63315776  0.74506570  0.37852237  1
  V  V25  1  0.62464860  0.62636855  0.00015791  1
  V  V26  1  -0.02054559  0.76511373  0.27125588  1
  V  V27  1  0.37814098  0.12270953  0.74500820  1
  V  V28  1  0.12248175  0.74986776  0.87638747  1
  V  V29  1  0.87280163  0.75078563  0.61002362  1
  V  V30  1  0.63861611  0.87558164  0.74032169  1
  V  V31  1  0.37370245  -0.00165533  0.38506497  1
  V  V32  1  0.85393146  0.61480765  0.24860809  1
  V  V33  1  0.62766501  0.37961930  0.25310508  1
  V  V34  1  0.24985682  0.62582045  0.87242730  1
  V  V35  1  0.24571127  0.37655692  0.13120049  1
  V  V36  1  0.49272254  0.74423156  0.25273167  1
  V  V37  1  0.37142974  0.75053677  0.62426146  1
  V  V38  1  0.12204739  0.12166859  0.01940594  1
  V  V39  1  0.49356235  0.87364345  0.38302764  1
  V  V40  1  0.12089740  0.49843966  0.13100090  1
  V  V41  1  0.24796736  0.24917526  0.00280514  1
  V  V42  1  0.37195653  0.74577664  0.12849984  1
  V  V43  1  0.37439960  0.49896660  0.38168437  1
  V  V44  1  0.49492698  0.74771768  0.74880579  1
  V  V45  1  0.75298788  0.37987428  0.12937224  1
  V  V46  1  0.37350935  -0.00153661  0.87409368  1
  V  V47  1  0.75403958  0.87634423  0.12384105  1
  V  V48  1  0.87508739  0.12594284  0.74953214  1
  V  V49  1  0.49907929  0.87471434  0.87349178  1
  V  V50  1  0.63915842  0.62729695  0.49792638  1
  V  V51  1  0.88256093  0.50478143  0.88035095  1
  V  V52  1  0.88924751  0.38040193  0.49821596  1
  V  V53  1  0.75177125  0.25115370  0.00094447  1
  V  V54  1  0.62662965  0.50318018  0.62456875  1
  V  V55  1  0.49500797  0.62405058  0.12729988  1
  V  V56  1  -0.00821272  0.24399010  0.25423275  1
  V  V57  1  0.37268633  0.12502112  0.26005421  1
  V  V58  1  0.25700694  0.62725527  0.36971148  1
  V  V59  1  0.50026994  0.25135090  0.25238007  1
  V  V60  1  0.37200295  0.25646936  0.62282088  1
  V  V61  1  0.25446175  0.50580868  0.24914708  1
  V  V62  1  0.00163403  0.00238915  0.01086590  1
  V  V63  1  0.24623031  0.87985766  0.12563886  1
  V  V64  1  0.75126192  0.25132854  0.49883503  1
  V  V65  1  0.12341650  0.75098899  0.37617700  1
  V  V66  1  0.10523675  0.00416538  0.62446710  1
  V  V67  1  0.62644739  0.37669611  0.75182625  1
  V  V68  1  0.87402676  -0.00137101  0.87738586  1
  V  V69  1  0.86720850  0.50161666  0.37582617  1
  V  V70  1  0.49627327  0.62644867  0.62361789  1
  V  V71  1  0.62005950  0.88078946  0.25056082  1
  V  V72  1  0.24946841  0.75184954  0.50015435  1
  V  V73  1  0.24765715  0.00031045  0.74862828  1
  V  V74  1  0.49946522  0.49966655  0.00025013  1
  V  V75  1  0.37448934  0.50359912  0.87191795  1
  V  V76  1  0.50216293  0.24561507  0.74691862  1
  V  V77  1  0.76021324  0.12707338  0.37207199  1
  V  V78  1  0.11688383  0.62057014  0.00198044  1
  V  V79  1  -0.00460756  0.87499441  0.88039458  1
  V  V80  1  0.62544945  0.49989157  0.12734011  1
  V  V81  1  0.76118502  0.00859409  0.25349604  1
  V  V82  1  0.24895322  0.87778456  0.62001284  1
  V  V83  1  -0.01037735  0.74636443  0.75040116  1
  V  V84  1  0.75021254  0.12323378  0.87473373  1
  Zn  Zn85  1  0.12186984  0.60977984  0.49390624  1
  Zn  Zn86  1  0.25501223  0.38161647  0.60828868  1
  Zn  Zn87  1  0.88832550  0.86150954  0.45190455  1
  Zn  Zn88  1  0.24984188  0.12226992  0.87817303  1
  Zn  Zn89  1  0.69428652  0.02650401  0.66893852  1
  Zn  Zn90  1  0.75519914  0.87040774  0.58652440  1
  Zn  Zn91  1  0.01196493  0.39120114  0.36193729  1
  Zn  Zn92  1  0.37383167  0.37474376  0.00121905  1
  Zn  Zn93  1  0.62317712  0.12289642  -0.00176167  1
  Zn  Zn94  1  0.49695653  0.49764941  0.50384235  1
  Zn  Zn95  1  0.11816034  0.49399486  0.61783400  1
  Zn  Zn96  1  0.75538701  0.62918393  0.87296853  1
  Zn  Zn97  1  0.88858656  0.38143954  0.00748293  1
  Zn  Zn98  1  0.63191020  0.11986150  0.51255099  1
  Zn  Zn99  1  0.26514385  0.24626787  0.48525278  1
  Zn  Zn100  1  0.62373779  0.00127528  0.12302764  1
  Zn  Zn101  1  0.87650848  0.75149867  0.12119560  1
  Zn  Zn102  1  0.50070731  0.00056914  -0.00078134  1
  Zn  Zn103  1  0.24687469  0.75078288  0.00135154  1
  Zn  Zn104  1  0.00281502  0.37982425  0.88544987  1
  Zn  Zn105  1  0.62488860  0.24918562  0.87687486  1
  Zn  Zn106  1  0.62477004  0.24851304  0.37899521  1
  Zn  Zn107  1  0.18944857  0.18803081  0.19293448  1
  Zn  Zn108  1  0.18880187  0.18153129  0.68402338  1
  Zn  Zn109  1  0.18407663  0.69063570  0.19112333  1
  Zn  Zn110  1  0.17929920  0.68736595  0.68862612  1
  Zn  Zn111  1  0.68597051  0.19188150  0.18832321  1
  Zn  Zn112  1  0.69140651  0.19536302  0.68715463  1
  Zn  Zn113  1  0.67963328  0.69166033  0.18614695  1
  Zn  Zn114  1  0.68888814  0.69097347  0.68350411  1
  Zn  Zn115  1  0.31287687  0.31781979  0.31097382  1
  Zn  Zn116  1  0.31354885  0.31249938  0.81386469  1
  Zn  Zn117  1  0.31146198  0.81609992  0.31334917  1
  Zn  Zn118  1  0.30966990  0.81244844  0.80935240  1
  Zn  Zn119  1  0.81565934  0.31609060  0.31419292  1
  Zn  Zn120  1  0.81503661  0.31866066  0.81625150  1
  Zn  Zn121  1  0.80662074  0.81177124  0.30413145  1
  Zn  Zn122  1  0.81548152  0.81052794  0.81502001  1
  Zn  Zn123  1  0.19182452  0.43034601  0.44057173  1
  Zn  Zn124  1  0.18457019  0.43618637  0.94167057  1
  Zn  Zn125  1  0.18336455  0.93873631  0.43706271  1
  Zn  Zn126  1  0.18458215  0.93862577  0.93977027  1
  Zn  Zn127  1  0.68844176  0.43903569  0.43911048  1
  Zn  Zn128  1  0.69092266  0.43800066  0.93900179  1
  Zn  Zn129  1  0.69256422  0.93471828  0.43280803  1
  Zn  Zn130  1  0.68350532  0.93807489  0.93693303  1
  Zn  Zn131  1  0.31328658  0.06336087  0.06448039  1
  Zn  Zn132  1  0.31038406  0.06596497  0.56221272  1
  Zn  Zn133  1  0.30913450  0.56348009  0.05719987  1
  Zn  Zn134  1  0.30893259  0.56689169  0.56024136  1
  Zn  Zn135  1  0.81109774  0.05764069  0.05993324  1
  Zn  Zn136  1  0.82169136  0.06285930  0.55213414  1
  Zn  Zn137  1  0.81107316  0.56373369  0.06037715  1
  Zn  Zn138  1  0.81967449  0.56430169  0.56493390  1
  Zn  Zn139  1  0.43549072  0.43781940  0.19224338  1
  Zn  Zn140  1  0.43826524  0.43770607  0.69032258  1
  Zn  Zn141  1  0.43357397  0.93709944  0.19044352  1
  Zn  Zn142  1  0.43666551  0.93279579  0.68836662  1
  Zn  Zn143  1  0.93931479  0.43334135  0.19274768  1
  Zn  Zn144  1  0.93766231  0.43442262  0.69597435  1
  Zn  Zn145  1  0.93634153  0.93998906  0.19428846  1
  Zn  Zn146  1  0.89886490  0.95250066  0.67052872  1
  Zn  Zn147  1  0.06693864  0.07051738  0.30442514  1
  Zn  Zn148  1  0.05935083  0.06185657  0.81517886  1
  Zn  Zn149  1  0.06022722  0.56646912  0.31245645  1
  Zn  Zn150  1  0.06294901  0.56418924  0.80704991  1
  Zn  Zn151  1  0.56606913  0.06619174  0.32225805  1
  Zn  Zn152  1  0.56357384  0.05969795  0.80936158  1
  Zn  Zn153  1  0.56170877  0.56155115  0.31419335  1
  Zn  Zn154  1  0.56509260  0.56422940  0.81163518  1
  Zn  Zn155  1  0.44677788  0.18258679  0.44188297  1
  Zn  Zn156  1  0.43513190  0.18691418  0.93616655  1
  Zn  Zn157  1  0.43686900  0.68724362  0.44216929  1
  Zn  Zn158  1  0.43500665  0.68822113  0.93962013  1
  Zn  Zn159  1  0.94398771  0.18348901  0.43782166  1
  Zn  Zn160  1  0.93906851  0.18728862  0.94196217  1
  Zn  Zn161  1  0.93508682  0.67127570  0.43715421  1
  Zn  Zn162  1  0.93649320  0.68318644  0.93979182  1
  Zn  Zn163  1  0.06048762  0.31213582  0.06664743  1
  Zn  Zn164  1  0.06833580  0.31266794  0.56263804  1
  Zn  Zn165  1  0.05946588  0.81035719  0.06693257  1
  Zn  Zn166  1  0.05545518  0.81642981  0.55952042  1
  Zn  Zn167  1  0.56415553  0.31125225  0.06295768  1
  Zn  Zn168  1  0.56360253  0.31227389  0.56734888  1
  Zn  Zn169  1  0.56187861  0.81350631  0.06328614  1
  Zn  Zn170  1  0.56481305  0.81386310  0.56188201  1
  O  O171  1  0.12560943  0.12764356  0.11863095  1
  O  O172  1  0.12576127  0.11547308  0.61222285  1
  O  O173  1  0.11899670  0.62109829  0.12170063  1
  O  O174  1  0.11294635  0.62221166  0.62291395  1
  O  O175  1  0.61079696  0.12600155  0.12811967  1
  O  O176  1  0.64322297  0.11525624  0.62722122  1
  O  O177  1  0.61515155  0.62030547  0.12042681  1
  O  O178  1  0.61772732  0.62434315  0.61608256  1
  O  O179  1  0.38582028  0.38453549  0.36947985  1
  O  O180  1  0.38103456  0.38485469  0.87808998  1
  O  O181  1  0.38400651  0.88454337  0.37123721  1
  O  O182  1  0.37832159  0.87764773  0.87826462  1
  O  O183  1  0.88081978  0.38484498  0.38119713  1
  O  O184  1  0.87798664  0.38768840  0.88075979  1
  O  O185  1  0.91068435  0.83331650  0.33851608  1
  O  O186  1  0.88345284  0.88593078  0.87126037  1
  O  O187  1  0.26071347  -0.00867710  0.36624794  1
  O  O188  1  0.25502253  -0.00257765  0.86650884  1
  O  O189  1  0.25523199  0.50726121  0.36780024  1
  O  O190  1  0.25461266  0.50547854  0.87054007  1
  O  O191  1  0.74466324  0.00986510  0.35915796  1
  O  O192  1  0.76145943  0.01080004  0.88485940  1
  O  O193  1  0.76617385  0.49156525  0.37232491  1
  O  O194  1  0.75669903  0.50321668  0.86857700  1
  O  O195  1  0.24572491  0.49718108  0.13089587  1
  O  O196  1  0.25542431  0.50054886  0.63963936  1
  O  O197  1  0.26123071  0.98806089  0.13902945  1
  O  O198  1  0.24331970  0.99184322  0.62797453  1
  O  O199  1  0.74087145  0.48794383  0.11686756  1
  O  O200  1  0.74835438  0.49780108  0.63273809  1
  O  O201  1  0.74576005  0.99527840  0.13556464  1
  O  O202  1  0.78619215  0.98044191  0.62522057  1
  O  O203  1  -0.00097626  0.35549194  0.24948868  1
  O  O204  1  0.01172345  0.36373656  0.75548651  1
  O  O205  1  0.01441562  0.86883032  0.23679575  1
  O  O206  1  0.00489847  0.86590526  0.76516516  1
  O  O207  1  0.50677554  0.37058938  0.25881262  1
  O  O208  1  0.50644184  0.36838194  0.75661156  1
  O  O209  1  0.50385546  0.86714602  0.25798532  1
  O  O210  1  0.50786217  0.86329662  0.75185480  1
  O  O211  1  0.49247400  0.13022353  0.24682723  1
  O  O212  1  0.49195501  0.13462414  0.75679198  1
  O  O213  1  0.50407107  0.63726822  0.24478658  1
  O  O214  1  0.50977560  0.63795627  0.73687556  1
  O  O215  1  1.00247423  0.14279029  0.24754997  1
  O  O216  1  0.99024300  0.13834197  0.75731639  1
  O  O217  1  0.99458744  0.64009499  0.24458294  1
  O  O218  1  1.00760840  0.63891127  0.73968297  1
  O  O219  1  0.36595528  0.24971483  0.00767854  1
  O  O220  1  0.38081798  0.23523413  0.52011826  1
  O  O221  1  0.37134366  0.75714753  0.01014885  1
  O  O222  1  0.36118676  0.74958448  0.50996089  1
  O  O223  1  0.86863407  0.25090596  0.01354388  1
  O  O224  1  0.87240323  0.25660863  0.50700548  1
  O  O225  1  0.85945643  0.74458134  0.00296833  1
  O  O226  1  0.88639918  0.74940331  0.50654278  1
  O  O227  1  0.11753414  0.23616352  0.49212857  1
  O  O228  1  0.12749207  0.24045675  0.99627629  1
  O  O229  1  0.13324705  0.75275148  0.49065110  1
  O  O230  1  0.12500703  0.74015972  0.99563062  1
  O  O231  1  0.64279392  0.25168020  0.50617404  1
  O  O232  1  0.63736734  0.24525147  0.99959606  1
  O  O233  1  0.62213398  0.74539815  0.48585997  1
  O  O234  1  0.62999187  0.74639589  0.99532149  1
  O  O235  1  0.49390021  0.24422999  0.13204366  1
  O  O236  1  0.49106014  0.25514399  0.63908401  1
  O  O237  1  0.49173674  0.74632963  0.13326878  1
  O  O238  1  0.49145111  0.74751696  0.62824538  1
  O  O239  1  0.98469041  0.25088825  0.13275070  1
  O  O240  1  0.99152754  0.25577370  0.63561473  1
  O  O241  1  0.99385989  0.74501230  0.13834265  1
  O  O242  1  0.99522311  0.74320494  0.63185368  1
  O  O243  1  0.00473348  0.25050563  0.36361888  1
  O  O244  1  0.00961708  0.25048659  0.86869500  1
  O  O245  1  0.01444755  0.73189486  0.37169401  1
  O  O246  1  0.00104678  0.75509381  0.87239970  1
  O  O247  1  0.50103242  0.25854699  0.37161761  1
  O  O248  1  0.50013964  0.25628728  0.86585780  1
  O  O249  1  0.49894542  0.75604651  0.36938364  1
  O  O250  1  0.50221502  0.75277824  0.86644972  1
  O  O251  1  0.23475132  0.12956604  0.50114907  1
  O  O252  1  0.24034940  0.12900814  1.00122491  1
  O  O253  1  0.24551948  0.63761348  0.49138017  1
  O  O254  1  0.23791041  0.62785568  0.98950151  1
  O  O255  1  0.75505158  0.13579860  0.49219128  1
  O  O256  1  0.75073045  0.13402560  0.99271465  1
  O  O257  1  0.73831439  0.62258802  0.50400713  1
  O  O258  1  0.74004335  0.63677138  1.00277460  1
  O  O259  1  0.25017934  0.36893842  0.01223148  1
  O  O260  1  0.25322688  0.35764674  0.49899890  1
  O  O261  1  0.25336515  0.87453619  0.00972695  1
  O  O262  1  0.24207115  0.86691778  0.51094066  1
  O  O263  1  0.74907184  0.36405125  0.01101346  1
  O  O264  1  0.76161700  0.36871807  0.50523589  1
  O  O265  1  0.74098474  0.86707949  0.01147123  1
  O  O266  1  0.77577239  0.87450663  0.47455541  1
  O  O267  1  0.13929757  0.50821864  0.24089225  1
  O  O268  1  0.13330618  0.48867720  0.75033657  1
  O  O269  1  0.13781170  0.99116413  0.25719610  1
  O  O270  1  0.12652173  0.99794753  0.74250447  1
  O  O271  1  0.61769840  0.48849272  0.24363165  1
  O  O272  1  0.63250324  0.49547797  0.74451762  1
  O  O273  1  0.62382035  0.98909670  0.25125518  1
  O  O274  1  0.62181417  0.98062637  0.74752266  1
  O  O275  1  0.37006724  0.00657978  0.26172002  1
  O  O276  1  0.37033792  0.00438875  0.75291024  1
  O  O277  1  0.36333641  0.50109732  0.26037594  1
  O  O278  1  0.36604233  0.49643103  0.76323977  1
  O  O279  1  0.85979149  0.00177624  0.25017571  1
  O  O280  1  0.88405288  0.01557175  0.76457596  1
  O  O281  1  0.87240928  0.50856345  0.25593854  1
  O  O282  1  0.86288060  0.49327543  0.76209853  1
  O  O283  1  0.12087490  0.35531336  0.38264637  1
  O  O284  1  0.12684489  0.36349287  0.86787305  1
  O  O285  1  0.13211129  0.86311400  0.36378599  1
  O  O286  1  0.11725646  0.86992485  0.87100333  1
  O  O287  1  0.61743705  0.37592125  0.36782901  1
  O  O288  1  0.61926136  0.37454657  0.86988580  1
  O  O289  1  0.61472894  0.86296720  0.36796154  1
  O  O290  1  0.61883085  0.86866342  0.86506408  1
  O  O291  1  0.38239521  0.13032377  0.13650649  1
  O  O292  1  0.37192051  0.13154743  0.63990520  1
  O  O293  1  0.37780435  0.63756646  0.11773862  1
  O  O294  1  0.38407925  0.63701320  0.62088865  1
  O  O295  1  0.86947175  0.13584360  0.12427570  1
  O  O296  1  0.87006931  0.13875685  0.63578815  1
  O  O297  1  0.88222103  0.61720644  0.13627347  1
  O  O298  1  0.88947817  0.63683502  0.62225497  1
  O  O299  1  0.25254029  0.25884119  0.12463229  1
  O  O300  1  0.26649843  0.25068438  0.63105182  1
  O  O301  1  0.25768563  0.75827280  0.12817033  1
  O  O302  1  0.25140303  0.75466695  0.62067912  1
  O  O303  1  0.75972883  0.25578248  0.12103933  1
  O  O304  1  0.76437116  0.25962815  0.61907511  1
  O  O305  1  0.74666328  0.75936486  0.11949664  1
  O  O306  1  0.76854824  0.74866187  0.62381669  1
  O  O307  1  0.23739964  0.24996109  0.36693486  1
  O  O308  1  0.24077727  0.24915357  0.88293037  1
  O  O309  1  0.24676959  0.74603829  0.38031733  1
  O  O310  1  0.24264291  0.74167864  0.87352930  1
  O  O311  1  0.75035207  0.24889095  0.38452545  1
  O  O312  1  0.75368478  0.24308325  0.88497426  1
  O  O313  1  0.73039570  0.74873008  0.36359488  1
  O  O314  1  0.74449553  0.75000771  0.88486303  1
  O  O315  1  0.00815948  0.11199778  -0.00294679  1
  O  O316  1  0.01348244  0.10984045  0.49368443  1
  O  O317  1  0.00786734  0.63213813  0.01732518  1
  O  O318  1  0.00508355  0.62635593  0.51636071  1
  O  O319  1  0.49851918  0.12583829  0.01211746  1
  O  O320  1  0.51141532  0.10737188  0.49798521  1
  O  O321  1  0.50448001  0.62027290  0.00636740  1
  O  O322  1  0.50766887  0.62539423  0.51203268  1
  O  O323  1  0.50791054  0.37631764  0.48804219  1
  O  O324  1  0.49948328  0.38142705  0.99466937  1
  O  O325  1  0.50362869  0.88105881  0.48878047  1
  O  O326  1  0.49269441  0.87420808  0.99227564  1
  O  O327  1  0.99014321  0.37066629  0.50026969  1
  O  O328  1  1.00187677  0.37665452  0.99905164  1
  O  O329  1  1.00011351  0.89115295  0.49151485  1
  O  O330  1  1.00785755  0.88551505  0.99008745  1
  O  O331  1  0.49060444  0.49404246  0.37644660  1
  O  O332  1  0.49244325  0.49830860  0.87781068  1
  O  O333  1  0.49382514  0.99150308  0.38319530  1
  O  O334  1  0.49128955  0.99225086  0.87307939  1
  O  O335  1  0.98405164  0.50211100  0.36679283  1
  O  O336  1  0.98649235  0.50089560  0.86579769  1
  O  O337  1  1.00583133  0.99889569  0.37059549  1
  O  O338  1  0.99383629  0.99204531  0.88207214  1
  O  O339  1  -0.00783182  -0.00689804  0.10900397  1
  O  O340  1  0.00548475  -0.00606004  0.62834382  1
  O  O341  1  0.01176117  0.51181823  0.14092282  1
  O  O342  1  -0.00281790  0.51524860  0.63845684  1
  O  O343  1  0.49696907  0.01051171  0.12622211  1
  O  O344  1  0.49470633  -0.01327733  0.60714496  1
  O  O345  1  0.50255192  0.50427572  0.12094002  1
  O  O346  1  0.50447998  0.51003366  0.62724468  1
  O  O347  1  0.25214212  0.38704845  0.23883451  1
  O  O348  1  0.24311977  0.38359133  0.75282740  1
  O  O349  1  0.24411182  0.88148920  0.24438505  1
  O  O350  1  0.24027402  0.87930709  0.74054641  1
  O  O351  1  0.73949020  0.36777352  0.24087462  1
  O  O352  1  0.74535849  0.38246730  0.74485405  1
  O  O353  1  0.73891499  0.88753579  0.24633302  1
  O  O354  1  0.73749523  0.87097876  0.75562662  1
  O  O355  1  0.26197165  0.11403038  0.24423434  1
  O  O356  1  0.25833917  0.11702581  0.75300218  1
  O  O357  1  0.24913270  0.62110130  0.25933539  1
  O  O358  1  0.23757341  0.61511415  0.76370746  1
  O  O359  1  0.74281206  0.11430258  0.25306810  1
  O  O360  1  0.76300261  0.13211570  0.76150525  1
  O  O361  1  0.75539083  0.62197543  0.24005787  1
  O  O362  1  0.74229787  0.61346625  0.75137216  1
  O  O363  1  0.38153139  0.11791733  0.36598414  1
  O  O364  1  0.37162584  0.11803454  0.86493496  1
  O  O365  1  0.36438996  0.61920146  0.37930994  1
  O  O366  1  0.36234260  0.61668785  0.88154619  1
  O  O367  1  0.86024845  0.13540064  0.37385022  1
  O  O368  1  0.86945275  0.12153863  0.87011267  1
  O  O369  1  0.87074988  0.61377840  0.36135100  1
  O  O370  1  0.87299117  0.61172803  0.87629758  1
  O  O371  1  0.13526299  0.38620511  0.12162622  1
  O  O372  1  0.13106662  0.37227371  0.63926116  1
  O  O373  1  0.13851489  0.86689719  0.13511035  1
  O  O374  1  0.12928787  0.88360626  0.62949385  1
  O  O375  1  0.63073362  0.37903332  0.13355431  1
  O  O376  1  0.63246490  0.38354093  0.63061416  1
  O  O377  1  0.63024027  0.87424169  0.13721119  1
  O  O378  1  0.63938874  0.86416376  0.63441098  1
  O  O379  1  0.11668391  0.24601526  0.26086844  1
  O  O380  1  0.12133893  0.25167051  0.75665581  1
  O  O381  1  0.11737448  0.75868814  0.25996227  1
  O  O382  1  0.11571892  0.75748532  0.75742228  1
  O  O383  1  0.61769108  0.26267928  0.25186970  1
  O  O384  1  0.61793830  0.25772594  0.75131818  1
  O  O385  1  0.61255967  0.75759937  0.25908547  1
  O  O386  1  0.61772502  0.75848036  0.75360592  1
  O  O387  1  0.37890650  0.24271626  0.24727907  1
  O  O388  1  0.38207993  0.24294101  0.74508308  1
  O  O389  1  0.38297060  0.75683777  0.24149464  1
  O  O390  1  0.38463119  0.75312651  0.74046361  1
  O  O391  1  0.87967854  0.24935269  0.24036874  1
  O  O392  1  0.88281589  0.24799611  0.74523881  1
  O  O393  1  0.87245340  0.72828474  0.24312388  1
  O  O394  1  0.88527560  0.75146499  0.74467457  1
  O  O395  1  0.37434036  0.50336230  0.48721553  1
  O  O396  1  0.38002079  0.49879938  0.98969018  1
  O  O397  1  0.38372372  1.00959709  0.48963439  1
  O  O398  1  0.37520615  0.99350905  0.99268378  1
  O  O399  1  0.87275183  0.49417823  0.48791331  1
  O  O400  1  0.86914524  0.49925819  0.98534704  1
  O  O401  1  0.89572972  1.00630619  0.48609400  1
  O  O402  1  0.88934800  1.00742195  0.98886403  1
  O  O403  1  0.11248241  0.00845396  -0.00283214  1
  O  O404  1  0.11573968  0.00716789  0.50310885  1
  O  O405  1  0.12986328  0.51226356  0.01341001  1
  O  O406  1  0.13334676  0.49797823  0.50625034  1
  O  O407  1  0.61901365  0.00484095  0.00454944  1
  O  O408  1  0.61570926  -0.00735653  0.49826471  1
  O  O409  1  0.61856588  0.50558730  0.00619589  1
  O  O410  1  0.62274145  0.50914974  0.50621081  1
  O  O411  1  0.36557400  0.36992869  0.12496602  1
  O  O412  1  0.37526299  0.36092748  0.63106232  1
  O  O413  1  0.36776855  0.86601997  0.12161416  1
  O  O414  1  0.35916167  0.86399812  0.63040581  1
  O  O415  1  0.86367266  0.37151263  0.12633334  1
  O  O416  1  0.87387926  0.36998338  0.61905983  1
  O  O417  1  0.85742105  0.87211986  0.13682629  1
  O  O418  1  0.88403798  0.85316768  0.62178971  1
  O  O419  1  0.12547979  0.13624343  0.38447746  1
  O  O420  1  0.12676607  0.13516860  0.87981580  1
  O  O421  1  0.13831503  0.63445100  0.37426299  1
  O  O422  1  0.12733486  0.62783837  0.88403510  1
  O  O423  1  0.63867314  0.13127162  0.38339275  1
  O  O424  1  0.63838831  0.12566934  0.87185199  1
  O  O425  1  0.61642313  0.63748623  0.38205105  1
  O  O426  1  0.62529146  0.63290045  0.88284329  1
