# generated using pymatgen
data_V85Zn86O256
_symmetry_space_group_name_H-M   'P 1'
_cell_length_a   16.96308939
_cell_length_b   16.97592526
_cell_length_c   16.97430807
_cell_angle_alpha   90.12177424
_cell_angle_beta   89.86785662
_cell_angle_gamma   89.95409446
_symmetry_Int_Tables_number   1
_chemical_formula_structural   V85Zn86O256
_chemical_formula_sum   'V85 Zn86 O256'
_cell_volume   4887.96635796
_cell_formula_units_Z   1
loop_
 _symmetry_equiv_pos_site_id
 _symmetry_equiv_pos_as_xyz
  1  'x, y, z'
loop_
 _atom_site_type_symbol
 _atom_site_label
 _atom_site_symmetry_multiplicity
 _atom_site_fract_x
 _atom_site_fract_y
 _atom_site_fract_z
 _atom_site_occupancy
  V  V0  1  -0.00460808  0.49186281  0.00758645  1
  V  V1  1  0.12829413  0.24199313  0.87659722  1
  V  V2  1  0.50219352  0.25241137  0.25804470  1
  V  V3  1  0.74519348  0.49682862  0.24856334  1
  V  V4  1  0.37724591  0.62492593  0.25000546  1
  V  V5  1  0.63020791  0.49398738  0.62817086  1
  V  V6  1  0.24616521  0.22975567  -0.00008870  1
  V  V7  1  0.50209730  0.50332298  0.00568297  1
  V  V8  1  0.12481979  0.00391690  0.12000778  1
  V  V9  1  0.63241158  0.37053125  0.75085746  1
  V  V10  1  -0.00154299  0.12659438  0.11834927  1
  V  V11  1  0.49873147  0.62429350  0.63105381  1
  V  V12  1  0.75041707  0.14665329  0.87654118  1
  V  V13  1  0.62869857  0.13838068  -0.00562429  1
  V  V14  1  0.74799182  0.62535683  0.37642286  1
  V  V15  1  0.24843921  0.75061941  0.49882304  1
  V  V16  1  0.24519129  0.62628859  0.87576542  1
  V  V17  1  0.11548259  0.12140087  0.49716220  1
  V  V18  1  0.36887745  0.37467384  -0.00056195  1
  V  V19  1  0.87895102  0.87704150  0.49110205  1
  V  V20  1  0.88746891  0.14086662  0.73820917  1
  V  V21  1  -0.00072504  0.37312917  0.37406049  1
  V  V22  1  0.25067993  0.87500753  0.12208086  1
  V  V23  1  0.74778170  0.37534486  0.11421989  1
  V  V24  1  0.24820158  0.01877863  0.74852838  1
  V  V25  1  0.50187124  0.12470527  0.12295740  1
  V  V26  1  0.25144499  0.62650942  0.37470259  1
  V  V27  1  0.25297735  0.49893938  0.25067471  1
  V  V28  1  0.62012908  0.12261379  0.49234681  1
  V  V29  1  0.11138593  0.75336523  0.36994919  1
  V  V30  1  0.25097521  -0.00138722  0.24784403  1
  V  V31  1  0.00251815  0.63248562  0.13538045  1
  V  V32  1  0.37171604  0.24281604  0.63066869  1
  V  V33  1  0.12596211  0.87346642  0.75300161  1
  V  V34  1  0.61899747  0.00601334  0.62500004  1
  V  V35  1  0.37772774  -0.00134961  0.37914461  1
  V  V36  1  0.37348761  0.49937361  0.87478100  1
  V  V37  1  0.25053011  0.12306764  0.37200906  1
  V  V38  1  0.87450258  0.49702665  0.37552536  1
  V  V39  1  0.62355990  0.37487583  0.25773656  1
  V  V40  1  0.37942814  0.37372659  0.49680638  1
  V  V41  1  0.87064278  0.75341409  0.12944759  1
  V  V42  1  -0.00047696  0.00026402  -0.00285870  1
  V  V43  1  0.50300799  0.75183503  0.24946784  1
  V  V44  1  0.63589846  0.75288680  0.87709645  1
  V  V45  1  0.24806321  0.49927595  0.75057194  1
  V  V46  1  0.24913013  0.37631544  0.62900209  1
  V  V47  1  0.11468302  -0.00007912  0.62077131  1
  V  V48  1  0.37418062  0.62496232  0.75119539  1
  V  V49  1  0.24941732  0.24935847  0.49892705  1
  V  V50  1  0.12380907  0.62647620  -0.00008864  1
  V  V51  1  0.12708173  0.37475738  0.25145397  1
  V  V52  1  0.37854224  0.49815698  0.37582387  1
  V  V53  1  0.87030492  0.00140993  0.87154854  1
  V  V54  1  0.86588766  0.13246615  0.25469817  1
  V  V55  1  0.74833401  0.87899502  0.62782429  1
  V  V56  1  0.50124935  -0.00625825  -0.01185825  1
  V  V57  1  0.11231660  0.87235064  0.25163236  1
  V  V58  1  0.62818530  -0.00178478  0.12177895  1
  V  V59  1  0.50186003  0.49403788  0.49671371  1
  V  V60  1  0.37629827  0.24772653  0.12423470  1
  V  V61  1  0.00189277  0.86927196  0.87442486  1
  V  V62  1  0.86759616  0.36979684  0.51314397  1
  V  V63  1  0.00275526  0.37542731  0.87652384  1
  V  V64  1  0.37448096  0.87571071  0.50034658  1
  V  V65  1  0.75352172  0.24071105  0.50757865  1
  V  V66  1  -0.00292134  0.75010391  0.74777464  1
  V  V67  1  0.49830766  0.24480111  0.74974061  1
  V  V68  1  0.62474500  0.62909151  0.50241259  1
  V  V69  1  0.50178361  0.87637940  0.38294470  1
  V  V70  1  0.12632950  0.50249928  0.63122185  1
  V  V71  1  0.24972014  0.87488121  0.62602709  1
  V  V72  1  0.74848853  0.00377622  0.25341813  1
  V  V73  1  0.12136292  0.62496924  0.50050229  1
  V  V74  1  0.36841675  0.00774231  0.86691462  1
  V  V75  1  0.12612540  0.24790693  0.37086554  1
  V  V76  1  0.37719056  0.75158074  0.12322560  1
  V  V77  1  0.12763773  0.49984454  0.12942013  1
  V  V78  1  0.50339512  0.36885057  0.87473487  1
  V  V79  1  0.64352415  0.62403328  -0.00207245  1
  V  V80  1  0.87044739  0.25524654  0.10690630  1
  V  V81  1  0.87203572  0.74535218  0.62883059  1
  V  V82  1  0.37262143  0.74782065  0.62591684  1
  V  V83  1  0.75357499  0.51455120  0.75605702  1
  V  V84  1  0.24515810  0.75147021  -0.00463309  1
  Zn  Zn85  1  0.75021688  0.00822313  0.74906829  1
  Zn  Zn86  1  0.38714493  0.86599940  -0.02034440  1
  Zn  Zn87  1  -0.00049145  0.49661073  0.50527834  1
  Zn  Zn88  1  0.08104542  0.33028233  0.71629607  1
  Zn  Zn89  1  0.24907875  0.37266179  0.12527434  1
  Zn  Zn90  1  0.74597131  0.86716088  0.12014648  1
  Zn  Zn91  1  0.62815530  0.87597722  0.25186056  1
  Zn  Zn92  1  0.87663035  -0.00037088  0.36993780  1
  Zn  Zn93  1  0.63309695  0.24693816  0.37385034  1
  Zn  Zn94  1  -0.00739535  0.62127842  0.62966738  1
  Zn  Zn95  1  0.86605368  0.50254379  0.88451848  1
  Zn  Zn96  1  0.62616557  0.75243499  0.37516832  1
  Zn  Zn97  1  0.49057606  0.12052856  0.62641582  1
  Zn  Zn98  1  0.37801211  0.12393199  0.25075960  1
  Zn  Zn99  1  0.00203504  -0.00634183  0.48482821  1
  Zn  Zn100  1  -0.00212758  0.25013313  0.24561972  1
  Zn  Zn101  1  0.49054033  0.77066025  0.77405976  1
  Zn  Zn102  1  0.86626380  0.86168331  -0.00806756  1
  Zn  Zn103  1  0.74846186  0.75241822  0.50118166  1
  Zn  Zn104  1  0.61774714  0.88175302  0.76292422  1
  Zn  Zn105  1  0.88210365  0.63338577  0.25833934  1
  Zn  Zn106  1  0.51030009  0.61902355  0.12699988  1
  Zn  Zn107  1  0.18812962  0.18579381  0.18649412  1
  Zn  Zn108  1  0.16003705  0.19322521  0.67782088  1
  Zn  Zn109  1  0.18887415  0.68961563  0.18853233  1
  Zn  Zn110  1  0.18419727  0.68739533  0.68970842  1
  Zn  Zn111  1  0.68695537  0.19187360  0.18148882  1
  Zn  Zn112  1  0.69247672  0.19122583  0.68880083  1
  Zn  Zn113  1  0.68793263  0.68180193  0.18537312  1
  Zn  Zn114  1  0.68457563  0.69215045  0.69352597  1
  Zn  Zn115  1  0.31518473  0.31116967  0.31187443  1
  Zn  Zn116  1  0.30873938  0.30687807  0.81440111  1
  Zn  Zn117  1  0.30859717  0.81364680  0.31078742  1
  Zn  Zn118  1  0.31238401  0.81774157  0.81311307  1
  Zn  Zn119  1  0.80735700  0.30985700  0.31680551  1
  Zn  Zn120  1  0.82352580  0.32054811  0.81154228  1
  Zn  Zn121  1  0.81122654  0.81306117  0.30430912  1
  Zn  Zn122  1  0.81010478  0.81368073  0.81066499  1
  Zn  Zn123  1  0.18960748  0.43797892  0.43948143  1
  Zn  Zn124  1  0.18130269  0.43781942  0.93625729  1
  Zn  Zn125  1  0.18718588  0.93509781  0.43348413  1
  Zn  Zn126  1  0.18955029  0.94017313  0.93553727  1
  Zn  Zn127  1  0.68824043  0.43360586  0.43898682  1
  Zn  Zn128  1  0.68319804  0.44055766  0.93354262  1
  Zn  Zn129  1  0.69013054  0.93904368  0.43982577  1
  Zn  Zn130  1  0.68928701  0.93703642  0.94005390  1
  Zn  Zn131  1  0.31978463  0.05560748  0.05936219  1
  Zn  Zn132  1  0.30350689  0.06110709  0.56073535  1
  Zn  Zn133  1  0.31397498  0.56398119  0.06362050  1
  Zn  Zn134  1  0.31147070  0.56305558  0.56061315  1
  Zn  Zn135  1  0.81133255  0.06360571  0.05793925  1
  Zn  Zn136  1  0.81270061  0.06137668  0.56332719  1
  Zn  Zn137  1  0.81725239  0.56394490  0.07106379  1
  Zn  Zn138  1  0.81009429  0.55805471  0.56424083  1
  Zn  Zn139  1  0.43825533  0.43397809  0.18658469  1
  Zn  Zn140  1  0.43840247  0.43482677  0.68763188  1
  Zn  Zn141  1  0.43980840  0.93575729  0.18814667  1
  Zn  Zn142  1  0.43522568  0.93993829  0.69288797  1
  Zn  Zn143  1  0.93507281  0.43732887  0.18788646  1
  Zn  Zn144  1  0.93786049  0.44088341  0.69092468  1
  Zn  Zn145  1  0.93377244  0.94067798  0.18682724  1
  Zn  Zn146  1  0.93342087  0.93857451  0.68723246  1
  Zn  Zn147  1  0.05703691  0.06000005  0.30717970  1
  Zn  Zn148  1  0.06232002  0.06188481  0.81027115  1
  Zn  Zn149  1  0.06443080  0.56089255  0.31675674  1
  Zn  Zn150  1  0.02626803  0.58344291  0.83683079  1
  Zn  Zn151  1  0.56129048  0.06153841  0.31078825  1
  Zn  Zn152  1  0.56599760  0.06725157  0.81327356  1
  Zn  Zn153  1  0.56360970  0.56168387  0.31235395  1
  Zn  Zn154  1  0.56530673  0.56331346  0.81918626  1
  Zn  Zn155  1  0.43778403  0.18467673  0.44082044  1
  Zn  Zn156  1  0.43636270  0.18478225  0.93656745  1
  Zn  Zn157  1  0.43979778  0.68751037  0.43970244  1
  Zn  Zn158  1  0.44089792  0.68559296  0.93604620  1
  Zn  Zn159  1  0.93514052  0.18998380  0.43590810  1
  Zn  Zn160  1  0.94104630  0.18726430  0.92970577  1
  Zn  Zn161  1  0.93420913  0.68918938  0.44340069  1
  Zn  Zn162  1  0.91768048  0.67745329  0.94421899  1
  Zn  Zn163  1  0.06526434  0.31070716  0.06261999  1
  Zn  Zn164  1  0.05403285  0.30402755  0.55423527  1
  Zn  Zn165  1  0.05911792  0.81460623  0.06388023  1
  Zn  Zn166  1  0.06112804  0.81271359  0.56286736  1
  Zn  Zn167  1  0.56225987  0.31859480  0.06789991  1
  Zn  Zn168  1  0.56485709  0.30700774  0.56698419  1
  Zn  Zn169  1  0.56771765  0.80864703  0.05601827  1
  Zn  Zn170  1  0.54496889  0.82943680  0.59189829  1
  O  O171  1  0.11300227  0.11318354  0.13304851  1
  O  O172  1  0.13600033  0.10738242  0.60583406  1
  O  O173  1  0.12183068  0.61976614  0.12233058  1
  O  O174  1  0.12832434  0.61993036  0.61307192  1
  O  O175  1  0.61868892  0.11947898  0.11592992  1
  O  O176  1  0.62916849  0.11443205  0.61908565  1
  O  O177  1  0.62460596  0.63013765  0.10532918  1
  O  O178  1  0.61711762  0.61617943  0.62071471  1
  O  O179  1  0.36999840  0.38007144  0.38968305  1
  O  O180  1  0.38001765  0.37915986  0.88285349  1
  O  O181  1  0.38047062  0.87992339  0.37962526  1
  O  O182  1  0.37736922  0.89210588  0.86842889  1
  O  O183  1  0.88194855  0.38060835  0.38077517  1
  O  O184  1  0.89591418  0.38227860  0.87758165  1
  O  O185  1  0.86528605  0.87043159  0.38988969  1
  O  O186  1  0.88331179  0.88498265  0.87254454  1
  O  O187  1  0.25832654  0.00260453  0.36761294  1
  O  O188  1  0.25897677  0.00031662  0.86509122  1
  O  O189  1  0.25785536  0.50604874  0.37090002  1
  O  O190  1  0.25284314  0.50520355  0.87041177  1
  O  O191  1  0.75311217  -0.00371782  0.35773509  1
  O  O192  1  0.76186753  0.00325794  0.87191117  1
  O  O193  1  0.75618733  0.50483674  0.37053365  1
  O  O194  1  0.75153793  0.49558179  0.86115566  1
  O  O195  1  0.24657308  0.49924504  0.13379972  1
  O  O196  1  0.24668335  0.49449253  0.62848838  1
  O  O197  1  0.24319436  0.99633798  0.12572817  1
  O  O198  1  0.24380758  0.99206242  0.63227740  1
  O  O199  1  0.76384192  0.48526431  0.13946776  1
  O  O200  1  0.73630879  0.50331641  0.63497844  1
  O  O201  1  0.73789292  1.00911360  0.13172328  1
  O  O202  1  0.74239026  0.99455628  0.62830422  1
  O  O203  1  0.00539478  0.37522800  0.26060639  1
  O  O204  1  0.00431137  0.39004410  0.77023523  1
  O  O205  1  0.01378033  0.88069211  0.24331850  1
  O  O206  1  0.00682106  0.87225417  0.75500110  1
  O  O207  1  0.51184815  0.36316417  0.23881077  1
  O  O208  1  0.50471097  0.36980211  0.75823937  1
  O  O209  1  0.50139879  0.86598366  0.26090018  1
  O  O210  1  0.51467770  0.86227109  0.71054991  1
  O  O211  1  0.50176433  0.13238914  0.23819583  1
  O  O212  1  0.50534714  0.14038946  0.74770541  1
  O  O213  1  0.49688188  0.63324438  0.24800076  1
  O  O214  1  0.49269202  0.61675491  0.74058180  1
  O  O215  1  0.98472957  0.12545897  0.23380096  1
  O  O216  1  0.98594278  0.12421368  0.75553740  1
  O  O217  1  0.99989018  0.61432018  0.24031041  1
  O  O218  1  1.01846980  0.64719485  0.74304585  1
  O  O219  1  0.36508692  0.25442522  0.00315028  1
  O  O220  1  0.37055106  0.25737227  0.50626096  1
  O  O221  1  0.36722384  0.75062968  0.00810593  1
  O  O222  1  0.36754730  0.75355174  0.50559356  1
  O  O223  1  0.87810702  0.24982736  0.00923153  1
  O  O224  1  0.86663948  0.25933959  0.49829306  1
  O  O225  1  0.88212178  0.74816632  0.01880216  1
  O  O226  1  0.87056912  0.76098932  0.50903636  1
  O  O227  1  0.13140938  0.24099177  0.48872289  1
  O  O228  1  0.14133629  0.24927556  0.99914330  1
  O  O229  1  0.12883658  0.74411031  0.49294126  1
  O  O230  1  0.13585101  0.74020089  1.01086002  1
  O  O231  1  0.63314441  0.24006763  0.50035390  1
  O  O232  1  0.61654840  0.23687357  1.00479640  1
  O  O233  1  0.62501894  0.73357866  0.50212725  1
  O  O234  1  0.62810551  0.73651530  0.99079037  1
  O  O235  1  0.49667803  0.24048241  0.13025848  1
  O  O236  1  0.48781936  0.24966101  0.63288295  1
  O  O237  1  0.49235484  0.75240449  0.13307781  1
  O  O238  1  0.49062665  0.73090398  0.61766461  1
  O  O239  1  0.98887610  0.24517110  0.12405861  1
  O  O240  1  1.05802117  0.24545747  0.64590345  1
  O  O241  1  0.99721980  0.73798067  0.12492696  1
  O  O242  1  0.98939651  0.75244742  0.63173778  1
  O  O243  1  0.00544844  0.25913929  0.37068599  1
  O  O244  1  0.01424086  0.26422772  0.88675872  1
  O  O245  1  0.01256765  0.74239457  0.37690357  1
  O  O246  1  -0.00806664  0.76566882  0.86585185  1
  O  O247  1  0.50043205  0.24258665  0.36037162  1
  O  O248  1  0.48839555  0.26053134  0.86565585  1
  O  O249  1  0.49998625  0.75712508  0.36649364  1
  O  O250  1  0.51165841  0.75135675  0.88164175  1
  O  O251  1  0.24104177  0.12992559  0.48956154  1
  O  O252  1  0.25239556  0.13143262  1.00353419  1
  O  O253  1  0.24189378  0.62997804  0.49443651  1
  O  O254  1  0.24326038  0.63121158  0.99704694  1
  O  O255  1  0.74409215  0.13523693  0.50210149  1
  O  O256  1  0.74395357  0.12398827  0.98551104  1
  O  O257  1  0.74098553  0.62082620  0.49193685  1
  O  O258  1  0.74239018  0.61135227  0.99883938  1
  O  O259  1  0.26213760  0.37422348  0.00144518  1
  O  O260  1  0.25883157  0.37126617  0.50867640  1
  O  O261  1  0.24843532  0.86554049  0.00417095  1
  O  O262  1  0.25434073  0.86945254  0.50556425  1
  O  O263  1  0.74324718  0.38676674  0.01621193  1
  O  O264  1  0.76352186  0.37238229  0.50293410  1
  O  O265  1  0.75951190  0.88993219  0.01158780  1
  O  O266  1  0.75878193  0.87354279  0.50912488  1
  O  O267  1  0.13346285  0.49402153  0.24936341  1
  O  O268  1  0.13292203  0.50893933  0.73428552  1
  O  O269  1  0.13112830  0.99292713  0.23962133  1
  O  O270  1  0.12934018  0.99338939  0.74083227  1
  O  O271  1  0.63549868  0.49196534  0.25407174  1
  O  O272  1  0.63231939  0.49338293  0.74684172  1
  O  O273  1  0.63112192  1.00273758  0.23941445  1
  O  O274  1  0.62776944  1.00159659  0.73689807  1
  O  O275  1  0.36999221  -0.00041621  0.25938989  1
  O  O276  1  0.36536286  0.00289523  0.75659974  1
  O  O277  1  0.37429633  0.50345387  0.25578405  1
  O  O278  1  0.36797714  0.50451604  0.75452793  1
  O  O279  1  0.86456986  0.01536971  0.24134460  1
  O  O280  1  0.87490917  0.00876202  0.76008374  1
  O  O281  1  0.86597247  0.49812999  0.26400049  1
  O  O282  1  0.85335941  0.49402367  0.74275835  1
  O  O283  1  0.11833448  0.37039824  0.37301751  1
  O  O284  1  0.11600171  0.36232294  0.88369945  1
  O  O285  1  0.13005565  0.86493958  0.36451907  1
  O  O286  1  0.11476526  0.88555840  0.86317507  1
  O  O287  1  0.62647028  0.37281817  0.36247671  1
  O  O288  1  0.61036857  0.37769689  0.86764337  1
  O  O289  1  0.61556251  0.87369974  0.37606838  1
  O  O290  1  0.62783968  0.86201530  0.87789903  1
  O  O291  1  0.38739048  0.12742259  0.12397820  1
  O  O292  1  0.37151971  0.13871913  0.61462145  1
  O  O293  1  0.37628305  0.63753914  0.13143130  1
  O  O294  1  0.37932891  0.62697763  0.63017728  1
  O  O295  1  0.87755740  0.13911323  0.12696904  1
  O  O296  1  0.87082308  0.12106863  0.64041544  1
  O  O297  1  0.88497768  0.63384841  0.13197546  1
  O  O298  1  0.87437564  0.63988958  0.61471535  1
  O  O299  1  0.25539383  0.24933875  0.11376432  1
  O  O300  1  0.25342320  0.25927333  0.61917019  1
  O  O301  1  0.25888371  0.75377297  0.11700233  1
  O  O302  1  0.25382354  0.75434764  0.61979471  1
  O  O303  1  0.76116274  0.26110695  0.12252825  1
  O  O304  1  0.74447098  0.25406914  0.60766738  1
  O  O305  1  0.76586881  0.74705525  0.13029359  1
  O  O306  1  0.75430052  0.75841232  0.62580522  1
  O  O307  1  0.24665484  0.24404600  0.37853813  1
  O  O308  1  0.24541273  0.25122370  0.89371693  1
  O  O309  1  0.24484795  0.74398611  0.38068784  1
  O  O310  1  0.25581961  0.74406770  0.88781395  1
  O  O311  1  0.74690167  0.25653205  0.39579025  1
  O  O312  1  0.75806046  0.24432315  0.87749886  1
  O  O313  1  0.74804465  0.73592835  0.37470882  1
  O  O314  1  0.73744768  0.74873819  0.86941477  1
  O  O315  1  -0.00471644  0.11673750  0.01011850  1
  O  O316  1  0.01314470  0.12676905  0.49330035  1
  O  O317  1  0.01129436  0.61455226  0.01494053  1
  O  O318  1  0.01180521  0.62289502  0.50305940  1
  O  O319  1  0.50648678  0.11737415  0.00555344  1
  O  O320  1  0.51662533  0.13299227  0.50794095  1
  O  O321  1  0.49702027  0.61241309  0.00420272  1
  O  O322  1  0.50599028  0.61364507  0.50796769  1
  O  O323  1  0.49194191  0.38389840  0.50905884  1
  O  O324  1  0.49176217  0.37876381  0.99422203  1
  O  O325  1  0.49164064  0.86625584  0.49064164  1
  O  O326  1  0.50162931  0.89042671  1.00688109  1
  O  O327  1  0.98998927  0.37199442  0.48910185  1
  O  O328  1  1.00436094  0.38535881  1.00031555  1
  O  O329  1  0.98244808  0.87343085  0.50377779  1
  O  O330  1  0.99819604  0.88337193  0.99061348  1
  O  O331  1  0.49551706  0.50496923  0.38889035  1
  O  O332  1  0.49203539  0.49004539  0.88266049  1
  O  O333  1  0.48966174  0.98843004  0.36829390  1
  O  O334  1  0.49344576  1.00568201  0.88036263  1
  O  O335  1  0.99201472  0.49061715  0.37910397  1
  O  O336  1  1.01803466  0.48466962  0.89640424  1
  O  O337  1  0.99006341  1.00074546  0.37219400  1
  O  O338  1  0.99375524  0.99419085  0.88112850  1
  O  O339  1  0.00429122  0.00619846  0.11580983  1
  O  O340  1  0.01283328  -0.00776453  0.62010382  1
  O  O341  1  0.00634401  0.50402532  0.12249393  1
  O  O342  1  0.01045175  0.50307840  0.62403822  1
  O  O343  1  0.50678022  0.00939874  0.11993526  1
  O  O344  1  0.51411726  0.00372874  0.62611151  1
  O  O345  1  0.49602100  0.49801119  0.11132113  1
  O  O346  1  0.50531505  0.50738834  0.61763443  1
  O  O347  1  0.24598552  0.38080578  0.24972152  1
  O  O348  1  0.25801684  0.38162405  0.73608210  1
  O  O349  1  0.24355207  0.88102034  0.24058449  1
  O  O350  1  0.24004991  0.88047546  0.74469632  1
  O  O351  1  0.74308356  0.38045482  0.24754263  1
  O  O352  1  0.73491762  0.37486846  0.75751278  1
  O  O353  1  0.74748217  0.88688882  0.23932186  1
  O  O354  1  0.74259206  0.87833273  0.73686116  1
  O  O355  1  0.25389796  0.11757049  0.25427134  1
  O  O356  1  0.23510424  0.11570725  0.73982417  1
  O  O357  1  0.25758768  0.61953284  0.25561042  1
  O  O358  1  0.25371543  0.62130269  0.75642651  1
  O  O359  1  0.75974419  0.12258833  0.24263405  1
  O  O360  1  0.75771407  0.12911443  0.76419461  1
  O  O361  1  0.74911655  0.61336986  0.26058597  1
  O  O362  1  0.74574895  0.61330917  0.75031962  1
  O  O363  1  0.37107756  0.11474697  0.37541708  1
  O  O364  1  0.37566224  0.10787723  0.87861713  1
  O  O365  1  0.37177864  0.61930360  0.37058251  1
  O  O366  1  0.36668897  0.61866129  0.87021029  1
  O  O367  1  0.87669568  0.12845139  0.35597786  1
  O  O368  1  0.86515337  0.12152144  0.87056814  1
  O  O369  1  0.86700208  0.61501854  0.37932519  1
  O  O370  1  0.91455781  0.60372769  0.86594803  1
  O  O371  1  0.12705817  0.38092808  0.13391143  1
  O  O372  1  0.13707436  0.38805405  0.61961757  1
  O  O373  1  0.12976638  0.88392816  0.13029389  1
  O  O374  1  0.13048915  0.88244639  0.62959512  1
  O  O375  1  0.64216663  0.36798902  0.13691499  1
  O  O376  1  0.61497441  0.38704585  0.63605264  1
  O  O377  1  0.62240599  0.88903172  0.12536011  1
  O  O378  1  0.63627543  0.89445518  0.60989584  1
  O  O379  1  0.12301981  0.25579387  0.25412701  1
  O  O380  1  0.15071641  0.25791303  0.77611106  1
  O  O381  1  0.13137334  0.75949581  0.25811268  1
  O  O382  1  0.11713901  0.76758059  0.74111164  1
  O  O383  1  0.61973950  0.25479390  0.25226910  1
  O  O384  1  0.61195327  0.26130971  0.73933538  1
  O  O385  1  0.61418551  0.75028448  0.24961055  1
  O  O386  1  0.61675457  0.74787706  0.76638215  1
  O  O387  1  0.38411714  0.24838500  0.24280421  1
  O  O388  1  0.38165659  0.25720985  0.73904781  1
  O  O389  1  0.38273982  0.74591984  0.24379162  1
  O  O390  1  0.37513263  0.74299979  0.74368356  1
  O  O391  1  0.87315375  0.24075777  0.24308888  1
  O  O392  1  0.87716342  0.24101424  0.75055829  1
  O  O393  1  0.87862256  0.74834082  0.23844043  1
  O  O394  1  0.88473499  0.75937830  0.73921150  1
  O  O395  1  0.38260359  0.49321787  0.49749193  1
  O  O396  1  0.37950936  0.49202164  0.99531706  1
  O  O397  1  0.36676831  0.99287146  0.48719564  1
  O  O398  1  0.38238285  0.99347147  0.98635232  1
  O  O399  1  0.87450124  0.48774617  0.49265544  1
  O  O400  1  0.89225841  0.50443391  1.00472250  1
  O  O401  1  0.87372952  0.98703596  0.49780585  1
  O  O402  1  0.88734068  1.00327714  0.99010574  1
  O  O403  1  0.11495985  -0.00516443  0.01006076  1
  O  O404  1  0.12366042  0.00351948  0.50241746  1
  O  O405  1  0.12279219  0.50837969  0.01235403  1
  O  O406  1  0.12629579  0.50952294  0.50717406  1
  O  O407  1  0.61790918  0.01132136  0.00487470  1
  O  O408  1  0.63360226  0.01592516  0.50896454  1
  O  O409  1  0.61302966  0.51367784  -0.00917936  1
  O  O410  1  0.61978011  0.50324039  0.50796553  1
  O  O411  1  0.37435825  0.36622547  0.11453766  1
  O  O412  1  0.36792948  0.36895047  0.61506648  1
  O  O413  1  0.36965031  0.86375219  0.12609011  1
  O  O414  1  0.36885807  0.86905637  0.61967957  1
  O  O415  1  0.86621120  0.36200679  0.12996850  1
  O  O416  1  0.88580490  0.37634582  0.61012949  1
  O  O417  1  0.88114986  0.85969804  0.12506120  1
  O  O418  1  0.86493069  0.86992507  0.61813947  1
  O  O419  1  0.13052177  0.12774212  0.37638685  1
  O  O420  1  0.11331251  0.14265329  0.87635692  1
  O  O421  1  0.13129952  0.63115849  0.38221564  1
  O  O422  1  0.12711969  0.62060915  0.89311811  1
  O  O423  1  0.62125931  0.12247465  0.38917006  1
  O  O424  1  0.64208421  0.12537579  0.87904776  1
  O  O425  1  0.63233312  0.62261687  0.38509443  1
  O  O426  1  0.62322253  0.63358490  0.88873853  1
