# generated using pymatgen
data_V85Zn86O256
_symmetry_space_group_name_H-M   'P 1'
_cell_length_a   16.97048372
_cell_length_b   16.94998613
_cell_length_c   16.96112584
_cell_angle_alpha   89.86737410
_cell_angle_beta   89.81399819
_cell_angle_gamma   90.07869104
_symmetry_Int_Tables_number   1
_chemical_formula_structural   V85Zn86O256
_chemical_formula_sum   'V85 Zn86 O256'
_cell_volume   4878.81531934
_cell_formula_units_Z   1
loop_
 _symmetry_equiv_pos_site_id
 _symmetry_equiv_pos_as_xyz
  1  'x, y, z'
loop_
 _atom_site_type_symbol
 _atom_site_label
 _atom_site_symmetry_multiplicity
 _atom_site_fract_x
 _atom_site_fract_y
 _atom_site_fract_z
 _atom_site_occupancy
  V  V0  1  0.25908014  0.25090252  0.00491135  1
  V  V1  1  0.11410453  0.50238243  0.62751047  1
  V  V2  1  0.62633855  0.62641421  0.48026103  1
  V  V3  1  0.00096456  0.87455904  0.37088461  1
  V  V4  1  0.37899054  0.49620741  0.37394199  1
  V  V5  1  0.50152291  0.37680075  0.88447875  1
  V  V6  1  0.12572270  0.74837474  0.37287076  1
  V  V7  1  0.74848712  0.87427308  0.62262266  1
  V  V8  1  0.24909959  0.37786585  0.62652983  1
  V  V9  1  0.87284126  0.49404726  0.87808642  1
  V  V10  1  0.37539487  0.87359339  0.49740474  1
  V  V11  1  -0.01821196  0.87730196  0.87370683  1
  V  V12  1  0.24983810  0.74956157  0.49879936  1
  V  V13  1  0.12508822  0.12561909  0.49783829  1
  V  V14  1  -0.00003197  0.49783095  0.01328332  1
  V  V15  1  0.74370533  0.37696454  0.62946549  1
  V  V16  1  0.50801034  0.25024956  0.75496968  1
  V  V17  1  0.62544482  -0.00450436  0.12724035  1
  V  V18  1  0.00188696  0.73898630  0.24430581  1
  V  V19  1  0.49817290  0.63271504  0.12803542  1
  V  V20  1  0.85803250  0.62119575  0.25047272  1
  V  V21  1  0.75476846  -0.00050663  0.75348846  1
  V  V22  1  0.00118587  0.24972477  0.75317337  1
  V  V23  1  0.01026773  0.37215963  0.37445248  1
  V  V24  1  0.25086287  0.00026341  0.24887737  1
  V  V25  1  0.62544140  0.12725133  -0.00645139  1
  V  V26  1  0.75468227  0.87553745  0.12129999  1
  V  V27  1  0.49274955  0.87076899  0.87948176  1
  V  V28  1  0.24548082  0.62407655  0.87441076  1
  V  V29  1  0.37424033  0.63166395  0.25115088  1
  V  V30  1  0.88069734  0.74694897  0.12066025  1
  V  V31  1  0.49976865  0.25708955  0.25395743  1
  V  V32  1  0.87494180  0.24746772  0.62700270  1
  V  V33  1  0.12612333  0.24861742  0.87771009  1
  V  V34  1  0.49842259  -0.00119582  0.49947825  1
  V  V35  1  0.63260795  0.50148251  0.12948380  1
  V  V36  1  0.86266112  0.49986056  0.37161837  1
  V  V37  1  0.11754368  0.62531662  0.01199682  1
  V  V38  1  0.50026564  0.12633148  0.12606235  1
  V  V39  1  0.62097928  0.25508302  0.37481535  1
  V  V40  1  -0.01369602  -0.00253945  0.00093090  1
  V  V41  1  0.11694800  0.62397296  0.50361483  1
  V  V42  1  0.51673787  0.75523679  0.25435243  1
  V  V43  1  0.37485056  0.12826583  0.24931770  1
  V  V44  1  0.37284373  0.24815568  0.63172497  1
  V  V45  1  0.87604827  0.00072194  0.37203980  1
  V  V46  1  0.26109936  0.75368939  0.00551633  1
  V  V47  1  0.87346250  0.87397366  0.49674670  1
  V  V48  1  0.62364141  -0.00014708  0.62526559  1
  V  V49  1  0.51182941  0.62064167  0.62667829  1
  V  V50  1  0.75559638  0.12150579  0.87596168  1
  V  V51  1  0.87997016  0.74104896  0.62345389  1
  V  V52  1  0.88338321  0.12531967  0.24151245  1
  V  V53  1  0.49370000  -0.00496911  0.00082335  1
  V  V54  1  0.12538568  0.76304102  0.87090544  1
  V  V55  1  0.50165996  0.49534196  0.50060059  1
  V  V56  1  0.00001410  -0.00076022  0.49925226  1
  V  V57  1  0.24729090  0.87338387  0.63195706  1
  V  V58  1  0.63251037  0.37786583  0.25014553  1
  V  V59  1  0.24641855  0.12874176  0.37370809  1
  V  V60  1  0.88393108  0.25582275  0.12218879  1
  V  V61  1  0.24940840  0.61765640  0.37142025  1
  V  V62  1  0.75557046  0.75483539  -0.00290760  1
  V  V63  1  0.37638464  0.00613490  0.87066892  1
  V  V64  1  0.74703355  -0.00356842  0.24836788  1
  V  V65  1  0.62755488  0.62495534  0.00093130  1
  V  V66  1  0.62306470  0.74973513  0.87586071  1
  V  V67  1  0.24562685  0.25119271  0.49712254  1
  V  V68  1  0.37197851  0.61870895  0.74929644  1
  V  V69  1  0.26398351  0.87298272  0.12258056  1
  V  V70  1  0.37453762  0.74795181  0.62423414  1
  V  V71  1  0.51231770  0.87268405  0.37334060  1
  V  V72  1  0.75035968  0.12625419  0.37217945  1
  V  V73  1  0.25644813  0.39368217  0.12164551  1
  V  V74  1  0.00009702  0.12263248  0.62544174  1
  V  V75  1  0.49258214  0.12329776  0.62982976  1
  V  V76  1  0.12415015  0.00574923  0.12063145  1
  V  V77  1  0.12427011  -0.00603973  0.63272374  1
  V  V78  1  0.25485314  0.00795122  0.74938835  1
  V  V79  1  0.74969681  0.25828025  -0.00140713  1
  V  V80  1  0.13039097  0.38384355  0.23847157  1
  V  V81  1  0.12690780  0.87330649  0.24627465  1
  V  V82  1  0.75112474  0.24814498  0.49917672  1
  V  V83  1  0.74487701  0.74745433  0.48623466  1
  V  V84  1  0.49966313  0.74745360  0.75180464  1
  Zn  Zn85  1  0.01079665  0.75132170  0.73975578  1
  Zn  Zn86  1  0.75330358  0.62631042  0.86631901  1
  Zn  Zn87  1  0.62287325  0.87346980  0.75076991  1
  Zn  Zn88  1  0.36703460  0.48649360  0.88646209  1
  Zn  Zn89  1  -0.00426857  0.50256387  0.50045534  1
  Zn  Zn90  1  0.24533685  0.49746142  0.75366274  1
  Zn  Zn91  1  0.01057839  0.24440878  0.25218748  1
  Zn  Zn92  1  -0.00369652  0.37296697  0.88291017  1
  Zn  Zn93  1  0.12087845  0.12576585  0.00343626  1
  Zn  Zn94  1  0.75654982  0.38251908  0.12323989  1
  Zn  Zn95  1  0.12327615  0.37812446  0.75321930  1
  Zn  Zn96  1  0.25397614  0.12830056  0.87409055  1
  Zn  Zn97  1  0.38036432  0.37272165  0.49452857  1
  Zn  Zn98  1  0.62139838  0.12639535  0.49858489  1
  Zn  Zn99  1  0.62502280  0.38128271  0.75348478  1
  Zn  Zn100  1  0.87637877  0.37711782  0.49761082  1
  Zn  Zn101  1  0.74737115  0.51070846  0.73926764  1
  Zn  Zn102  1  0.37591634  -0.00106997  0.37380634  1
  Zn  Zn103  1  0.87975242  0.11723653  0.75796379  1
  Zn  Zn104  1  0.49465378  0.49163404  0.00803424  1
  Zn  Zn105  1  0.38148026  0.26096074  0.12221297  1
  Zn  Zn106  1  -0.11533655  0.62092036  0.74812676  1
  Zn  Zn107  1  0.18536208  0.19443561  0.18911836  1
  Zn  Zn108  1  0.18471934  0.18612062  0.68601226  1
  Zn  Zn109  1  0.19138194  0.68588875  0.18780043  1
  Zn  Zn110  1  0.18490037  0.68491625  0.68786625  1
  Zn  Zn111  1  0.69025378  0.18744674  0.18418290  1
  Zn  Zn112  1  0.68544796  0.18396979  0.68917163  1
  Zn  Zn113  1  0.68826567  0.69016752  0.18653374  1
  Zn  Zn114  1  0.69310655  0.68833864  0.68655581  1
  Zn  Zn115  1  0.30859540  0.31544693  0.30868175  1
  Zn  Zn116  1  0.31535384  0.31245924  0.81347325  1
  Zn  Zn117  1  0.31704461  0.81153079  0.31160362  1
  Zn  Zn118  1  0.31421901  0.81153093  0.81431703  1
  Zn  Zn119  1  0.81614337  0.31304435  0.30928294  1
  Zn  Zn120  1  0.81381944  0.30986867  0.81544512  1
  Zn  Zn121  1  0.81355355  0.81357189  0.30632456  1
  Zn  Zn122  1  0.80924914  0.81244837  0.80761532  1
  Zn  Zn123  1  0.18683099  0.43890739  0.44032627  1
  Zn  Zn124  1  0.18129403  0.43684779  0.94255619  1
  Zn  Zn125  1  0.18787176  0.93825210  0.43753711  1
  Zn  Zn126  1  0.19206167  0.93941054  0.94066900  1
  Zn  Zn127  1  0.68381958  0.43608048  0.44249742  1
  Zn  Zn128  1  0.67974604  0.43897071  0.93157486  1
  Zn  Zn129  1  0.68835125  0.93872191  0.43856300  1
  Zn  Zn130  1  0.68378314  0.93638637  0.93731659  1
  Zn  Zn131  1  0.31230015  0.06629238  0.06417848  1
  Zn  Zn132  1  0.31262853  0.06148265  0.56091735  1
  Zn  Zn133  1  0.31759442  0.57087548  0.05862990  1
  Zn  Zn134  1  0.31145663  0.56156672  0.56026876  1
  Zn  Zn135  1  0.81336445  0.06797831  0.06292528  1
  Zn  Zn136  1  0.81225870  0.06238896  0.56262015  1
  Zn  Zn137  1  0.81710532  0.56633730  0.05922882  1
  Zn  Zn138  1  0.80857038  0.56314359  0.55468112  1
  Zn  Zn139  1  0.43993561  0.44357703  0.19004034  1
  Zn  Zn140  1  0.43717566  0.43611115  0.68663141  1
  Zn  Zn141  1  0.43928766  0.93825084  0.19183177  1
  Zn  Zn142  1  0.43551772  0.93327280  0.68971859  1
  Zn  Zn143  1  0.93922493  0.43725689  0.19281977  1
  Zn  Zn144  1  0.93264979  0.43430830  0.69209523  1
  Zn  Zn145  1  0.93846274  0.93405707  0.18381770  1
  Zn  Zn146  1  0.93731828  0.92825128  0.68852991  1
  Zn  Zn147  1  0.06586740  0.06138851  0.31032487  1
  Zn  Zn148  1  0.06301006  0.06031788  0.81732980  1
  Zn  Zn149  1  0.06004907  0.55703723  0.31384156  1
  Zn  Zn150  1  0.05544308  0.56632186  0.81327109  1
  Zn  Zn151  1  0.56184500  0.06503544  0.31379085  1
  Zn  Zn152  1  0.56399626  0.06311184  0.81208439  1
  Zn  Zn153  1  0.55930466  0.55940068  0.31093326  1
  Zn  Zn154  1  0.56671641  0.55829146  0.81104755  1
  Zn  Zn155  1  0.43355419  0.18668098  0.43979536  1
  Zn  Zn156  1  0.43845885  0.18631709  0.93642247  1
  Zn  Zn157  1  0.43987599  0.68676536  0.43577656  1
  Zn  Zn158  1  0.43371135  0.66798833  0.94135718  1
  Zn  Zn159  1  0.93741059  0.18728270  0.43538788  1
  Zn  Zn160  1  0.93680033  0.18277009  0.94259824  1
  Zn  Zn161  1  0.93362594  0.68745952  0.43240207  1
  Zn  Zn162  1  0.94086402  0.68258719  0.93046267  1
  Zn  Zn163  1  0.06882681  0.31554443  0.06298568  1
  Zn  Zn164  1  0.06204767  0.31509216  0.56246167  1
  Zn  Zn165  1  0.06605142  0.81774627  0.05748241  1
  Zn  Zn166  1  0.06311109  0.81373102  0.55765328  1
  Zn  Zn167  1  0.56739860  0.31255298  0.06521491  1
  Zn  Zn168  1  0.56207318  0.31069996  0.56390719  1
  Zn  Zn169  1  0.56335013  0.81168974  0.06388322  1
  Zn  Zn170  1  0.56258278  0.80878927  0.56073989  1
  O  O171  1  0.12963066  0.10961854  0.12905357  1
  O  O172  1  0.11943025  0.11363925  0.61873005  1
  O  O173  1  0.12836812  0.63020487  0.11053933  1
  O  O174  1  0.12994622  0.61540555  0.61504855  1
  O  O175  1  0.62160665  0.11463183  0.11638460  1
  O  O176  1  0.61388990  0.11565580  0.62308410  1
  O  O177  1  0.62043126  0.62036194  0.12257776  1
  O  O178  1  0.61307216  0.62770038  0.62534493  1
  O  O179  1  0.36524675  0.39104879  0.37510760  1
  O  O180  1  0.39185447  0.37448914  0.86956234  1
  O  O181  1  0.38401848  0.87653009  0.38135259  1
  O  O182  1  0.38641409  0.88353189  0.87367071  1
  O  O183  1  0.88243986  0.38773875  0.36900379  1
  O  O184  1  0.87497777  0.38739997  0.87651969  1
  O  O185  1  0.88076410  0.88140953  0.37605867  1
  O  O186  1  0.88330513  0.86612606  0.87854046  1
  O  O187  1  0.25137892  0.00888301  0.36812251  1
  O  O188  1  0.25932307  -0.00138547  0.86667694  1
  O  O189  1  0.25856680  0.51218652  0.38308114  1
  O  O190  1  0.24893906  0.51014796  0.87704338  1
  O  O191  1  0.75467252  0.00391736  0.36620922  1
  O  O192  1  0.74125119  0.00534028  0.86379321  1
  O  O193  1  0.76385301  0.49204245  0.37732265  1
  O  O194  1  0.76502452  0.50267644  0.88698982  1
  O  O195  1  0.25402852  0.49234409  0.11335299  1
  O  O196  1  0.24176268  0.49073370  0.62425664  1
  O  O197  1  0.24484725  0.99285270  0.12837478  1
  O  O198  1  0.24464109  0.99356378  0.63011932  1
  O  O199  1  0.73739591  0.50140715  0.11630820  1
  O  O200  1  0.76315095  0.47880045  0.62094515  1
  O  O201  1  0.74558832  0.99482277  0.12833695  1
  O  O202  1  0.74035751  0.99726541  0.62918147  1
  O  O203  1  0.01082498  0.37397349  0.25820986  1
  O  O204  1  0.00015635  0.35784682  0.75257629  1
  O  O205  1  0.00586839  0.86608067  0.25336144  1
  O  O206  1  -0.00322124  0.86853587  0.76680566  1
  O  O207  1  0.50966203  0.36285942  0.24489736  1
  O  O208  1  0.50156292  0.36144753  0.74906759  1
  O  O209  1  0.49665027  0.86248137  0.25647486  1
  O  O210  1  0.50034337  0.86613179  0.75972205  1
  O  O211  1  0.49595438  0.13428790  0.24552126  1
  O  O212  1  0.50381873  0.13606266  0.74116666  1
  O  O213  1  0.49863199  0.63832639  0.24671655  1
  O  O214  1  0.49159655  0.62699311  0.74524615  1
  O  O215  1  0.98851682  0.12662677  0.25655610  1
  O  O216  1  0.99931326  0.13123342  0.74553329  1
  O  O217  1  0.99966007  0.63699005  0.25155723  1
  O  O218  1  0.99637906  0.63967793  0.75315206  1
  O  O219  1  0.36284588  0.24907545  -0.00055458  1
  O  O220  1  0.36549787  0.25253482  0.51001183  1
  O  O221  1  0.35878592  0.74085416  -0.00408493  1
  O  O222  1  0.36966694  0.75264395  0.50488139  1
  O  O223  1  0.86407823  0.24358473  0.01288007  1
  O  O224  1  0.86602839  0.24886109  0.50755403  1
  O  O225  1  0.86550994  0.73693968  0.00935110  1
  O  O226  1  0.86742310  0.75361854  0.50376133  1
  O  O227  1  0.13750650  0.24141332  0.51033697  1
  O  O228  1  0.13290363  0.24691943  0.99411823  1
  O  O229  1  0.12962537  0.74334271  0.49341074  1
  O  O230  1  0.13091946  0.74121279  0.99088170  1
  O  O231  1  0.63262382  0.24935232  0.49190748  1
  O  O232  1  0.63902250  0.23733359  1.00958915  1
  O  O233  1  0.63037189  0.73656250  0.50155395  1
  O  O234  1  0.63613772  0.74604979  0.99702926  1
  O  O235  1  0.50102011  0.24474640  0.13438196  1
  O  O236  1  0.49273433  0.24278142  0.63055757  1
  O  O237  1  0.50709286  0.74452083  0.14019207  1
  O  O238  1  0.49409616  0.74088042  0.63057102  1
  O  O239  1  0.98653902  0.25474639  0.12069315  1
  O  O240  1  0.99449682  0.24378788  0.63162553  1
  O  O241  1  0.99042202  0.76033039  0.13142921  1
  O  O242  1  0.98402259  0.76032690  0.62046360  1
  O  O243  1  -0.01058596  0.26790069  0.37190197  1
  O  O244  1  0.00570880  0.24796598  0.87102592  1
  O  O245  1  0.00506017  0.75493467  0.36435484  1
  O  O246  1  0.01379467  0.76375266  0.88316918  1
  O  O247  1  0.50961516  0.24308638  0.36777623  1
  O  O248  1  0.49363694  0.25453626  0.86001920  1
  O  O249  1  0.49896668  0.75670968  0.36368149  1
  O  O250  1  0.50131224  0.75385749  0.87368128  1
  O  O251  1  0.24623225  0.13100944  0.49341900  1
  O  O252  1  0.24741215  0.13960175  0.99949610  1
  O  O253  1  0.24097412  0.63097964  0.49194966  1
  O  O254  1  0.23943025  0.63603557  0.99418159  1
  O  O255  1  0.74847915  0.13399747  0.49362437  1
  O  O256  1  0.74264170  0.12671113  0.99352879  1
  O  O257  1  0.73278298  0.63066131  0.50100923  1
  O  O258  1  0.73916803  0.63712055  1.00301926  1
  O  O259  1  0.24372768  0.36600476  0.01307111  1
  O  O260  1  0.24874093  0.36614206  0.50858276  1
  O  O261  1  0.24915907  0.86090809  0.00619261  1
  O  O262  1  0.25481824  0.87000129  0.50780238  1
  O  O263  1  0.74122384  0.35982211  -0.00117562  1
  O  O264  1  0.75259084  0.36276646  0.50876223  1
  O  O265  1  0.74694015  0.86582103  0.00773377  1
  O  O266  1  0.75351014  0.86858641  0.50294722  1
  O  O267  1  0.12279069  0.48402840  0.25259659  1
  O  O268  1  0.12471709  0.49935838  0.74177355  1
  O  O269  1  0.13057712  0.99270934  0.24188113  1
  O  O270  1  0.13334123  1.00197569  0.73812492  1
  O  O271  1  0.61863389  0.48983036  0.24267929  1
  O  O272  1  0.63746681  0.49388374  0.75552552  1
  O  O273  1  0.63549806  1.00972408  0.23881184  1
  O  O274  1  0.63129448  0.99930233  0.73889471  1
  O  O275  1  0.36855887  0.01010657  0.25061442  1
  O  O276  1  0.36730093  -0.00364770  0.75779624  1
  O  O277  1  0.38910789  0.51742274  0.26359618  1
  O  O278  1  0.37207677  0.51118491  0.75275758  1
  O  O279  1  0.86877261  0.00561092  0.25053708  1
  O  O280  1  0.85920405  0.00034357  0.73932600  1
  O  O281  1  0.87599317  0.51326284  0.25577916  1
  O  O282  1  0.86967264  0.49850914  0.76340865  1
  O  O283  1  0.11490721  0.37837728  0.36996273  1
  O  O284  1  0.12341549  0.36091768  0.87340026  1
  O  O285  1  0.12150354  0.86884373  0.36833535  1
  O  O286  1  0.13076854  0.86359987  0.87722947  1
  O  O287  1  0.62997092  0.36273723  0.36793876  1
  O  O288  1  0.60810866  0.36933752  0.87286402  1
  O  O289  1  0.61176954  0.88004258  0.37843419  1
  O  O290  1  0.61141700  0.86847122  0.87416543  1
  O  O291  1  0.38306353  0.12971803  0.13204108  1
  O  O292  1  0.38368346  0.13231015  0.62063510  1
  O  O293  1  0.38978034  0.62010533  0.13669740  1
  O  O294  1  0.37774197  0.62987728  0.63243518  1
  O  O295  1  0.87173540  0.13663015  0.13399593  1
  O  O296  1  0.88081096  0.13355185  0.62538396  1
  O  O297  1  0.87041768  0.63455468  0.13940830  1
  O  O298  1  0.87303705  0.63907571  0.61594062  1
  O  O299  1  0.25348403  0.25590179  0.11303024  1
  O  O300  1  0.25531659  0.25473162  0.61943717  1
  O  O301  1  0.24749709  0.75639535  0.11277818  1
  O  O302  1  0.25207406  0.75661280  0.62019198  1
  O  O303  1  0.75783508  0.25065906  0.11297888  1
  O  O304  1  0.75602535  0.25095869  0.61816531  1
  O  O305  1  0.75669175  0.75787488  0.11846097  1
  O  O306  1  0.75796860  0.75588489  0.61144184  1
  O  O307  1  0.25607128  0.24216928  0.38633243  1
  O  O308  1  0.24562208  0.25190982  0.88595385  1
  O  O309  1  0.24472200  0.74202875  0.37927686  1
  O  O310  1  0.24221766  0.74731551  0.88489887  1
  O  O311  1  0.74536915  0.24687460  0.38164985  1
  O  O312  1  0.75611963  0.24029269  0.89135139  1
  O  O313  1  0.75613353  0.75618986  0.38697494  1
  O  O314  1  0.74374417  0.75165465  0.88319398  1
  O  O315  1  0.00410619  0.10279735  -0.00935078  1
  O  O316  1  0.00423029  0.11911772  0.50403853  1
  O  O317  1  0.01264695  0.62094688  -0.00127343  1
  O  O318  1  0.01389566  0.62594132  0.49126749  1
  O  O319  1  0.50776607  0.11891720  0.00416538  1
  O  O320  1  0.50002307  0.11893909  0.51058235  1
  O  O321  1  0.51808002  0.64115594  0.01433738  1
  O  O322  1  0.51147812  0.62267299  0.50638273  1
  O  O323  1  0.50050055  0.38948844  0.50828455  1
  O  O324  1  0.50183626  0.37078213  0.98982403  1
  O  O325  1  0.49505133  0.87741311  0.49346308  1
  O  O326  1  0.50591731  0.88451719  0.99325813  1
  O  O327  1  0.99759229  0.37542429  0.48691098  1
  O  O328  1  1.01177190  0.39378265  0.99952848  1
  O  O329  1  0.99463689  0.88038987  0.49023237  1
  O  O330  1  1.00459265  0.88516975  0.98591733  1
  O  O331  1  0.49023296  0.50777249  0.38811921  1
  O  O332  1  0.49990022  0.48311874  0.87370587  1
  O  O333  1  0.49842184  0.99336505  0.37996938  1
  O  O334  1  0.49561687  0.99302665  0.88037618  1
  O  O335  1  0.99091299  0.48698517  0.37601071  1
  O  O336  1  0.98848837  0.49713581  0.88067729  1
  O  O337  1  0.99597717  0.99483822  0.37887688  1
  O  O338  1  1.00130068  0.98552828  0.88194120  1
  O  O339  1  0.01066115  -0.01364237  0.10962667  1
  O  O340  1  0.00625814  0.00010918  0.62103520  1
  O  O341  1  -0.00739470  0.50035055  0.11242257  1
  O  O342  1  0.01023010  0.48826534  0.62214531  1
  O  O343  1  0.50717378  0.00290988  0.11979355  1
  O  O344  1  0.50403860  0.00426652  0.62308197  1
  O  O345  1  0.51171387  0.51288440  0.12543294  1
  O  O346  1  0.49062056  0.51232367  0.61465747  1
  O  O347  1  0.24079216  0.37415407  0.23547850  1
  O  O348  1  0.24826801  0.37510403  0.73873995  1
  O  O349  1  0.24675573  0.87801305  0.24315846  1
  O  O350  1  0.25609415  0.88182924  0.73640843  1
  O  O351  1  0.73591716  0.36750595  0.24487090  1
  O  O352  1  0.75036386  0.36473293  0.73495421  1
  O  O353  1  0.75366825  0.88808558  0.23956683  1
  O  O354  1  0.74424785  0.88319416  0.74251654  1
  O  O355  1  0.25370274  0.12360452  0.25673913  1
  O  O356  1  0.24939319  0.11204652  0.74908049  1
  O  O357  1  0.25883018  0.63029830  0.26104081  1
  O  O358  1  0.25510276  0.62317723  0.75694598  1
  O  O359  1  0.75919774  0.11551635  0.25182206  1
  O  O360  1  0.74893281  0.11816683  0.75941708  1
  O  O361  1  0.75968394  0.62948792  0.25359100  1
  O  O362  1  0.76321425  0.62559563  0.74878008  1
  O  O363  1  0.36357231  0.12329535  0.36963279  1
  O  O364  1  0.37521001  0.11072104  0.87554573  1
  O  O365  1  0.36695835  0.61992614  0.37171827  1
  O  O366  1  0.35972164  0.63427053  0.85974129  1
  O  O367  1  0.86921013  0.11975202  0.36578710  1
  O  O368  1  0.86055638  0.12284960  0.87624856  1
  O  O369  1  0.87859700  0.61329623  0.36161213  1
  O  O370  1  0.87223839  0.61345518  0.87267766  1
  O  O371  1  0.13635360  0.38064215  0.13170526  1
  O  O372  1  0.13332713  0.38243031  0.62680953  1
  O  O373  1  0.13693869  0.88228055  0.12881330  1
  O  O374  1  0.13472757  0.88330994  0.61787808  1
  O  O375  1  0.62704884  0.38549364  0.13159554  1
  O  O376  1  0.64174490  0.36865920  0.62374923  1
  O  O377  1  0.63621518  0.88785728  0.12022640  1
  O  O378  1  0.62788903  0.88430651  0.62421498  1
  O  O379  1  0.12220040  0.26874765  0.24494794  1
  O  O380  1  0.11659053  0.24861696  0.75703786  1
  O  O381  1  0.11955144  0.75304789  0.25232954  1
  O  O382  1  0.12964233  0.74865287  0.76694604  1
  O  O383  1  0.61935696  0.25470330  0.25542672  1
  O  O384  1  0.61058358  0.25274459  0.74431625  1
  O  O385  1  0.61596413  0.75029742  0.25239183  1
  O  O386  1  0.61803147  0.74848557  0.75761217  1
  O  O387  1  0.38454805  0.24700376  0.25072714  1
  O  O388  1  0.38336333  0.25134625  0.73665450  1
  O  O389  1  0.38470591  0.73666938  0.25427884  1
  O  O390  1  0.37900830  0.74166576  0.74369586  1
  O  O391  1  0.87542003  0.24142969  0.23811132  1
  O  O392  1  0.88314182  0.24361850  0.74348668  1
  O  O393  1  0.88135840  0.73879205  0.24452880  1
  O  O394  1  0.86940882  0.75419271  0.72725432  1
  O  O395  1  0.38375107  0.50133880  0.49188099  1
  O  O396  1  0.39509224  0.54085390  0.98290486  1
  O  O397  1  0.38143174  0.99198989  0.49974533  1
  O  O398  1  0.38828454  1.00549333  0.99343759  1
  O  O399  1  0.87726506  0.50121678  0.48440736  1
  O  O400  1  0.89027717  0.50898695  0.99179163  1
  O  O401  1  0.87949366  0.99545435  0.49268681  1
  O  O402  1  0.88709580  0.99820418  1.00911239  1
  O  O403  1  0.12524006  0.00214562  0.00825901  1
  O  O404  1  0.11975481  0.00455318  0.50879257  1
  O  O405  1  0.11404702  0.51622253  -0.00476991  1
  O  O406  1  0.12242183  0.50860760  0.50865536  1
  O  O407  1  0.61599169  0.00742924  0.00742569  1
  O  O408  1  0.61911052  0.00242216  0.51045014  1
  O  O409  1  0.61875978  0.51091730  0.00766104  1
  O  O410  1  0.61681232  0.51500852  0.49389863  1
  O  O411  1  0.36171319  0.37835177  0.13246996  1
  O  O412  1  0.36455444  0.36746413  0.62123985  1
  O  O413  1  0.36321269  0.88022263  0.12819328  1
  O  O414  1  0.36745725  0.86823644  0.61824488  1
  O  O415  1  0.87083837  0.36081367  0.13515029  1
  O  O416  1  0.86909043  0.35906494  0.62257972  1
  O  O417  1  0.86382637  0.86203607  0.12921341  1
  O  O418  1  0.86729269  0.86926862  0.61382579  1
  O  O419  1  0.13765444  0.12048736  0.38043067  1
  O  O420  1  0.13059457  0.13710306  0.87532625  1
  O  O421  1  0.13243205  0.62762963  0.38003194  1
  O  O422  1  0.13475209  0.63551501  0.88165117  1
  O  O423  1  0.63247594  0.13662493  0.37458907  1
  O  O424  1  0.63260085  0.12113993  0.88680134  1
  O  O425  1  0.62130025  0.62821037  0.38205702  1
  O  O426  1  0.62579086  0.63102781  0.88642159  1
