# generated using pymatgen
data_V85Zn86O256
_symmetry_space_group_name_H-M   'P 1'
_cell_length_a   16.95214666
_cell_length_b   16.95647645
_cell_length_c   16.96181871
_cell_angle_alpha   89.96602224
_cell_angle_beta   90.00389869
_cell_angle_gamma   89.93263396
_symmetry_Int_Tables_number   1
_chemical_formula_structural   V85Zn86O256
_chemical_formula_sum   'V85 Zn86 O256'
_cell_volume   4875.64808279
_cell_formula_units_Z   1
loop_
 _symmetry_equiv_pos_site_id
 _symmetry_equiv_pos_as_xyz
  1  'x, y, z'
loop_
 _atom_site_type_symbol
 _atom_site_label
 _atom_site_symmetry_multiplicity
 _atom_site_fract_x
 _atom_site_fract_y
 _atom_site_fract_z
 _atom_site_occupancy
  V  V0  1  0.23669988  0.37492426  0.12286008  1
  V  V1  1  0.00048971  0.12543118  0.62619366  1
  V  V2  1  0.49960285  0.00277822  0.49863930  1
  V  V3  1  0.62400935  0.74905699  0.37657851  1
  V  V4  1  0.74745960  0.49085026  0.25014138  1
  V  V5  1  0.24952356  0.51028227  0.75626302  1
  V  V6  1  0.24512888  0.00363606  0.24872696  1
  V  V7  1  0.00863270  0.62100300  0.12943546  1
  V  V8  1  0.62378047  0.25323526  0.37096955  1
  V  V9  1  0.25347467  0.00417362  0.75999914  1
  V  V10  1  0.13061373  0.23440867  0.87777304  1
  V  V11  1  0.62436047  0.87599984  0.25085487  1
  V  V12  1  0.62807962  0.49464797  0.13059207  1
  V  V13  1  0.49982455  -0.00043347  -0.00573195  1
  V  V14  1  0.38106244  0.74571889  0.62243908  1
  V  V15  1  0.49788021  0.75051277  0.25020266  1
  V  V16  1  0.75420994  0.62314166  0.87613248  1
  V  V17  1  0.24017054  0.49735766  0.24638550  1
  V  V18  1  0.24386830  0.25228840  0.49623887  1
  V  V19  1  0.24549978  0.13317194  0.37361686  1
  V  V20  1  0.75263507  0.50041818  0.75055675  1
  V  V21  1  0.61781924  0.00413130  0.12769716  1
  V  V22  1  -0.00944589  0.49409996  0.49760443  1
  V  V23  1  0.24986982  0.87486199  0.62095209  1
  V  V24  1  0.87484330  0.62293771  0.24427252  1
  V  V25  1  0.75991971  0.12107180  0.37288256  1
  V  V26  1  0.00274634  0.35990198  0.37458698  1
  V  V27  1  -0.00432004  0.23475279  0.23619188  1
  V  V28  1  0.11781179  0.75808050  0.37676366  1
  V  V29  1  0.61304500  0.50373783  0.62249549  1
  V  V30  1  0.49709985  0.25036121  0.75154486  1
  V  V31  1  0.87654891  -0.00103471  0.88054935  1
  V  V32  1  -0.00640819  0.75941071  0.24709737  1
  V  V33  1  0.61157851  0.62297209  0.50450821  1
  V  V34  1  0.37589890  0.12843981  0.23396346  1
  V  V35  1  0.37136754  0.12327586  0.76885837  1
  V  V36  1  -0.00067861  0.87403169  0.87856321  1
  V  V37  1  0.37256159  0.62325839  0.25020688  1
  V  V38  1  0.37325897  0.87665849  0.49854787  1
  V  V39  1  0.86976353  0.36341317  0.00566439  1
  V  V40  1  0.62747650  0.62588296  0.00117867  1
  V  V41  1  0.37220821  0.74916454  0.12470371  1
  V  V42  1  0.50162886  0.37616048  0.37375340  1
  V  V43  1  0.12603015  0.00266616  0.10016789  1
  V  V44  1  0.87667472  0.86886759  0.00312683  1
  V  V45  1  0.62384315  0.37611479  0.75102022  1
  V  V46  1  -0.00863872  0.11660457  0.10486888  1
  V  V47  1  0.75189093  0.75020844  0.49925518  1
  V  V48  1  0.24972299  0.37738083  0.62890766  1
  V  V49  1  0.75152095  0.62328920  0.37625657  1
  V  V50  1  0.87349378  0.12492145  0.74963955  1
  V  V51  1  0.76310901  0.00043497  0.25495590  1
  V  V52  1  0.74642284  -0.00388536  0.75115601  1
  V  V53  1  0.87661156  0.87994487  0.48435817  1
  V  V54  1  0.49934197  0.62547375  0.12585752  1
  V  V55  1  0.38348157  0.62979301  0.75499617  1
  V  V56  1  0.37544606  0.24658926  0.62518109  1
  V  V57  1  0.12468083  0.00310992  0.62198720  1
  V  V58  1  0.62604080  0.75689016  0.86886259  1
  V  V59  1  0.63099641  0.24996599  0.87913459  1
  V  V60  1  0.49496757  0.24812276  0.24091890  1
  V  V61  1  0.12358575  0.87099770  0.75050820  1
  V  V62  1  0.62529371  0.12839213  0.49992507  1
  V  V63  1  0.75260347  0.37548709  0.61817049  1
  V  V64  1  0.38019306  0.38146872  0.50139448  1
  V  V65  1  -0.00521996  -0.00134655  0.48766977  1
  V  V66  1  0.38101051  0.87452296  -0.00768784  1
  V  V67  1  0.49995118  0.49900318  0.00170146  1
  V  V68  1  -0.00118260  0.74902012  0.75017789  1
  V  V69  1  0.87375858  0.25439247  0.62108560  1
  V  V70  1  0.75196941  0.87523374  0.62523970  1
  V  V71  1  0.12458205  0.50392310  0.62324880  1
  V  V72  1  0.12780865  0.63223302  -0.01003544  1
  V  V73  1  0.37571251  0.50055099  0.37661171  1
  V  V74  1  0.25066398  0.87128549  0.12414575  1
  V  V75  1  0.62654076  0.12385863  0.00056749  1
  V  V76  1  0.25260767  0.23662275  0.00140779  1
  V  V77  1  0.00428572  0.37568047  0.87671112  1
  V  V78  1  0.00646982  0.49804121  0.00836452  1
  V  V79  1  0.37405286  0.00318725  0.37326300  1
  V  V80  1  0.37468998  0.37351169  0.01039902  1
  V  V81  1  0.75322376  0.86903325  0.12583953  1
  V  V82  1  0.62390289  -0.00244606  0.62763023  1
  V  V83  1  0.49515178  0.37830902  0.87834162  1
  V  V84  1  0.49868648  0.87690681  0.37353498  1
  Zn  Zn85  1  0.51188255  0.75610151  0.73858475  1
  Zn  Zn86  1  0.00466138  0.25177120  0.75120035  1
  Zn  Zn87  1  -0.00339632  0.62618515  0.62182244  1
  Zn  Zn88  1  0.24571989  0.62519992  0.37511113  1
  Zn  Zn89  1  0.26139791  0.72742210  -0.03453837  1
  Zn  Zn90  1  0.75302648  0.13054120  0.88010609  1
  Zn  Zn91  1  0.12103686  0.13074053  0.49333821  1
  Zn  Zn92  1  0.11670454  0.88108800  0.25025098  1
  Zn  Zn93  1  0.50256193  0.88098277  0.86256464  1
  Zn  Zn94  1  0.12655753  0.37658839  0.75541846  1
  Zn  Zn95  1  0.12415422  0.62443359  0.49662074  1
  Zn  Zn96  1  0.36703257  0.51018451  0.88141103  1
  Zn  Zn97  1  0.87098604  0.49088829  0.37752983  1
  Zn  Zn98  1  0.87659197  0.74808773  0.62179602  1
  Zn  Zn99  1  0.49980809  0.12414085  0.62707920  1
  Zn  Zn100  1  0.75695636  0.74399211  0.00758241  1
  Zn  Zn101  1  0.77031198  0.35125794  0.13923963  1
  Zn  Zn102  1  0.87805727  0.62622896  0.74895889  1
  Zn  Zn103  1  0.75441134  0.25455551  0.49381331  1
  Zn  Zn104  1  0.87854766  0.49914383  0.87797622  1
  Zn  Zn105  1  0.12869274  0.36250554  0.25955494  1
  Zn  Zn106  1  0.24757129  0.74722259  0.49572174  1
  Zn  Zn107  1  0.17976539  0.18651767  0.18081289  1
  Zn  Zn108  1  0.18947408  0.18850928  0.69173094  1
  Zn  Zn109  1  0.18369425  0.68757578  0.19141436  1
  Zn  Zn110  1  0.18918518  0.68805177  0.68858768  1
  Zn  Zn111  1  0.69325727  0.18105850  0.19264880  1
  Zn  Zn112  1  0.68760875  0.18851731  0.68942804  1
  Zn  Zn113  1  0.68726122  0.68456276  0.19103517  1
  Zn  Zn114  1  0.69023357  0.68502937  0.68507836  1
  Zn  Zn115  1  0.31525565  0.31395490  0.30917575  1
  Zn  Zn116  1  0.31166053  0.31245128  0.81664996  1
  Zn  Zn117  1  0.30798590  0.81362703  0.31163859  1
  Zn  Zn118  1  0.31223550  0.81224240  0.80828193  1
  Zn  Zn119  1  0.82192240  0.30715874  0.31725432  1
  Zn  Zn120  1  0.81649105  0.31592433  0.81255368  1
  Zn  Zn121  1  0.81145169  0.81081452  0.31014982  1
  Zn  Zn122  1  0.81236077  0.81090192  0.81334725  1
  Zn  Zn123  1  0.18558571  0.43661850  0.43681236  1
  Zn  Zn124  1  0.18557761  0.43776077  0.94141676  1
  Zn  Zn125  1  0.18365365  0.94033171  0.43470810  1
  Zn  Zn126  1  0.19991066  0.90217670  0.92549719  1
  Zn  Zn127  1  0.68404846  0.44123407  0.43873854  1
  Zn  Zn128  1  0.68690363  0.43622343  0.94038392  1
  Zn  Zn129  1  0.68837118  0.93901943  0.43777667  1
  Zn  Zn130  1  0.69166396  0.93946602  0.94171221  1
  Zn  Zn131  1  0.31311335  0.05422554  0.05609011  1
  Zn  Zn132  1  0.31048842  0.06425976  0.56188301  1
  Zn  Zn133  1  0.30888860  0.55898114  0.06538281  1
  Zn  Zn134  1  0.31090267  0.56759782  0.56276250  1
  Zn  Zn135  1  0.80538793  0.05716807  0.06441142  1
  Zn  Zn136  1  0.81239346  0.06295601  0.55927140  1
  Zn  Zn137  1  0.81751602  0.55343701  0.06468451  1
  Zn  Zn138  1  0.81025422  0.56509151  0.56557385  1
  Zn  Zn139  1  0.43770035  0.43637551  0.18939638  1
  Zn  Zn140  1  0.43337912  0.43959736  0.69208642  1
  Zn  Zn141  1  0.43502170  0.93944953  0.18560043  1
  Zn  Zn142  1  0.43651243  0.93810870  0.69042080  1
  Zn  Zn143  1  0.93994817  0.43507852  0.19200408  1
  Zn  Zn144  1  0.93833069  0.43733467  0.68944726  1
  Zn  Zn145  1  0.93884544  0.94416238  0.18013912  1
  Zn  Zn146  1  0.93522528  0.93696605  0.68427693  1
  Zn  Zn147  1  0.06325882  0.06876625  0.30784835  1
  Zn  Zn148  1  0.06319196  0.05487164  0.81322003  1
  Zn  Zn149  1  0.06127880  0.56500796  0.31824039  1
  Zn  Zn150  1  0.06500291  0.56222954  0.81462663  1
  Zn  Zn151  1  0.56391888  0.06716252  0.31096887  1
  Zn  Zn152  1  0.56019468  0.06652980  0.81269049  1
  Zn  Zn153  1  0.56260713  0.56277965  0.31460963  1
  Zn  Zn154  1  0.56407853  0.56454532  0.81208132  1
  Zn  Zn155  1  0.43403781  0.18901309  0.43430080  1
  Zn  Zn156  1  0.44385898  0.19100325  0.94771735  1
  Zn  Zn157  1  0.43340952  0.68900955  0.43667861  1
  Zn  Zn158  1  0.44208444  0.69076164  0.93698760  1
  Zn  Zn159  1  0.93971825  0.18780656  0.43992275  1
  Zn  Zn160  1  0.93893332  0.18809428  0.93489694  1
  Zn  Zn161  1  0.93739986  0.68466220  0.43583329  1
  Zn  Zn162  1  0.94311719  0.68906071  0.93824455  1
  Zn  Zn163  1  0.06228010  0.30378911  0.05858879  1
  Zn  Zn164  1  0.06135962  0.31669310  0.56478388  1
  Zn  Zn165  1  0.06159393  0.81161085  0.06548961  1
  Zn  Zn166  1  0.05696144  0.81596103  0.56207072  1
  Zn  Zn167  1  0.60611453  0.28823683  0.08722886  1
  Zn  Zn168  1  0.56372745  0.31604110  0.56249246  1
  Zn  Zn169  1  0.56483766  0.81358942  0.06254498  1
  Zn  Zn170  1  0.56378948  0.81526044  0.55976249  1
  O  O171  1  0.12238321  0.10698943  0.11730712  1
  O  O172  1  0.11693421  0.11898270  0.62682714  1
  O  O173  1  0.11262330  0.62437741  0.12317108  1
  O  O174  1  0.12246778  0.61359759  0.62536790  1
  O  O175  1  0.62839971  0.11084239  0.11773436  1
  O  O176  1  0.62494609  0.11873293  0.61614964  1
  O  O177  1  0.62062527  0.61998350  0.11799585  1
  O  O178  1  0.63039999  0.61634072  0.61659900  1
  O  O179  1  0.38062148  0.38111055  0.38338275  1
  O  O180  1  0.38422313  0.37864753  0.88051525  1
  O  O181  1  0.37837268  0.88239888  0.37811641  1
  O  O182  1  0.38173635  0.86681849  0.89012499  1
  O  O183  1  0.89473572  0.37563910  0.37629599  1
  O  O184  1  0.88739133  0.37485096  0.88446602  1
  O  O185  1  0.86861967  0.87556714  0.38531768  1
  O  O186  1  0.87920310  0.88080155  0.88123579  1
  O  O187  1  0.25422102  0.00850948  0.36667129  1
  O  O188  1  0.24520501  -0.01075574  0.85740193  1
  O  O189  1  0.26168432  0.49566845  0.36668907  1
  O  O190  1  0.25036399  0.49082440  0.86032881  1
  O  O191  1  0.74191899  0.00908150  0.36672491  1
  O  O192  1  0.75709937  -0.00063340  0.86440442  1
  O  O193  1  0.74960621  0.50430715  0.36781150  1
  O  O194  1  0.74742985  0.50719547  0.86697779  1
  O  O195  1  0.25494855  0.48756157  0.13678837  1
  O  O196  1  0.24438803  0.49432284  0.63207517  1
  O  O197  1  0.24030965  0.99536983  0.12990265  1
  O  O198  1  0.24111810  0.99400209  0.62557760  1
  O  O199  1  0.74309830  0.49970546  0.13577120  1
  O  O200  1  0.74462383  0.49294051  0.63447482  1
  O  O201  1  0.73944619  0.98997637  0.13567260  1
  O  O202  1  0.74369328  0.99540575  0.63055484  1
  O  O203  1  0.00592785  0.36994871  0.26162723  1
  O  O204  1  0.00173155  0.37337835  0.76287155  1
  O  O205  1  -0.00534267  0.86251418  0.24292396  1
  O  O206  1  0.00454506  0.86983397  0.75219510  1
  O  O207  1  0.49014609  0.36089465  0.26298202  1
  O  O208  1  0.50236958  0.37191256  0.75989656  1
  O  O209  1  0.50331485  0.87059973  0.25487636  1
  O  O210  1  0.49650876  0.86829424  0.75152513  1
  O  O211  1  0.48924880  0.13760354  0.25639162  1
  O  O212  1  0.48894202  0.13153260  0.74666938  1
  O  O213  1  0.49370566  0.63079810  0.24589046  1
  O  O214  1  0.48746530  0.63042778  0.75157670  1
  O  O215  1  0.99838944  0.13080407  0.23991165  1
  O  O216  1  0.99033720  0.12255357  0.74085593  1
  O  O217  1  0.99292861  0.62695941  0.24546744  1
  O  O218  1  1.00142401  0.63712810  0.75243757  1
  O  O219  1  0.36164143  0.26107223  -0.00906122  1
  O  O220  1  0.36698916  0.25997618  0.50776734  1
  O  O221  1  0.37263152  0.75419925  0.00685788  1
  O  O222  1  0.37092769  0.75811660  0.50545136  1
  O  O223  1  0.87777325  0.26395553  -0.00505707  1
  O  O224  1  0.87241705  0.24491806  0.51715969  1
  O  O225  1  0.87348030  0.76307359  -0.00423926  1
  O  O226  1  0.87016251  0.75960501  0.49927978  1
  O  O227  1  0.14008948  0.25028464  0.50949264  1
  O  O228  1  0.13804654  0.24910465  0.98760136  1
  O  O229  1  0.11936510  0.75332730  0.48615331  1
  O  O230  1  0.12291602  0.73385142  1.00739397  1
  O  O231  1  0.62532017  0.24263094  0.49297366  1
  O  O232  1  0.61161885  0.23681219  0.98660417  1
  O  O233  1  0.63098277  0.74379340  0.49566300  1
  O  O234  1  0.62881636  0.73733449  0.99439520  1
  O  O235  1  0.50902016  0.25646543  0.14342154  1
  O  O236  1  0.48986327  0.25399626  0.63163421  1
  O  O237  1  0.49492907  0.74489259  0.13054433  1
  O  O238  1  0.48585977  0.75743775  0.62168363  1
  O  O239  1  1.00324198  0.22949242  0.12588426  1
  O  O240  1  0.99404624  0.24298152  0.62811551  1
  O  O241  1  1.00246469  0.74037840  0.14151519  1
  O  O242  1  0.99925006  0.74967028  0.63608811  1
  O  O243  1  0.00079874  0.25502306  0.36968268  1
  O  O244  1  0.01466278  0.25595920  0.87623212  1
  O  O245  1  0.00912213  0.74633870  0.36219318  1
  O  O246  1  -0.00376486  0.76366766  0.86374159  1
  O  O247  1  0.50434748  0.25837150  0.37222275  1
  O  O248  1  0.50609726  0.26071745  0.87043971  1
  O  O249  1  0.50329151  0.75705018  0.36955349  1
  O  O250  1  0.51977582  0.74961348  0.87570572  1
  O  O251  1  0.25031179  0.13508798  0.49132215  1
  O  O252  1  0.26007880  0.13818073  1.00014137  1
  O  O253  1  0.24332522  0.62961345  0.49528721  1
  O  O254  1  0.23516980  0.62271384  1.00510487  1
  O  O255  1  0.73877629  0.12616826  0.49360849  1
  O  O256  1  0.73311411  0.11515416  0.99616207  1
  O  O257  1  0.74525601  0.63177301  0.49385497  1
  O  O258  1  0.74486451  0.62185190  0.99533682  1
  O  O259  1  0.25769998  0.37462606  0.00748253  1
  O  O260  1  0.25817146  0.37081425  0.50950945  1
  O  O261  1  0.26572468  0.88294925  0.01800905  1
  O  O262  1  0.25319425  0.87749397  0.50760264  1
  O  O263  1  0.76836880  0.38331972  -0.00009588  1
  O  O264  1  0.74605864  0.37511804  0.51412444  1
  O  O265  1  0.75700186  0.87169596  0.01015968  1
  O  O266  1  0.75641580  0.87183527  0.50532356  1
  O  O267  1  0.13890240  0.49809712  0.26031842  1
  O  O268  1  0.13264808  0.49879110  0.74177416  1
  O  O269  1  0.13718510  1.00002854  0.24861774  1
  O  O270  1  0.13105484  0.99481824  0.73738026  1
  O  O271  1  0.63606878  0.50885916  0.24329860  1
  O  O272  1  0.63343605  0.49702495  0.74389622  1
  O  O273  1  0.62585684  0.99400358  0.24377696  1
  O  O274  1  0.63444209  1.01059117  0.73842102  1
  O  O275  1  0.36548233  0.00837703  0.25248086  1
  O  O276  1  0.36554380  0.01308106  0.74088655  1
  O  O277  1  0.36718721  0.50312688  0.25803473  1
  O  O278  1  0.36944031  0.51611591  0.75051312  1
  O  O279  1  0.86173993  -0.00614470  0.24855267  1
  O  O280  1  0.86647976  0.00724968  0.75438607  1
  O  O281  1  0.86651100  0.50760788  0.25250950  1
  O  O282  1  0.86348277  0.50073223  0.75483344  1
  O  O283  1  0.10993665  0.37545871  0.37731824  1
  O  O284  1  0.11559891  0.36881441  0.87767410  1
  O  O285  1  0.12624161  0.86428989  0.36923851  1
  O  O286  1  0.10684777  0.89233765  0.85799590  1
  O  O287  1  0.61357963  0.36621769  0.38442427  1
  O  O288  1  0.61606031  0.37045955  0.87312420  1
  O  O289  1  0.61873419  0.86936987  0.37168003  1
  O  O290  1  0.63290512  0.85789979  0.88221388  1
  O  O291  1  0.37028307  0.11894191  0.13548990  1
  O  O292  1  0.37615708  0.13927440  0.62388104  1
  O  O293  1  0.37961334  0.62936711  0.12972837  1
  O  O294  1  0.36929039  0.63706297  0.63509249  1
  O  O295  1  0.89238935  0.10556179  0.11800261  1
  O  O296  1  0.88085783  0.13049936  0.63218115  1
  O  O297  1  0.88323890  0.62187392  0.13758468  1
  O  O298  1  0.87772015  0.62930475  0.63094004  1
  O  O299  1  0.24354392  0.25631628  0.10759289  1
  O  O300  1  0.25795344  0.25899587  0.62017110  1
  O  O301  1  0.25412998  0.76151376  0.13313410  1
  O  O302  1  0.25517112  0.76277957  0.62272941  1
  O  O303  1  0.71261627  0.26048910  0.12105055  1
  O  O304  1  0.75601789  0.25906732  0.62676836  1
  O  O305  1  0.74551416  0.76404664  0.12892803  1
  O  O306  1  0.74795644  0.76156065  0.61924725  1
  O  O307  1  0.25845743  0.24578506  0.38501401  1
  O  O308  1  0.23872092  0.25462612  0.88481624  1
  O  O309  1  0.23470483  0.74980663  0.37238874  1
  O  O310  1  0.23290506  0.79456933  0.88398693  1
  O  O311  1  0.74067282  0.24440579  0.37366225  1
  O  O312  1  0.73531294  0.25243839  0.86807778  1
  O  O313  1  0.74259015  0.74386868  0.37874207  1
  O  O314  1  0.74230838  0.73912643  0.87726963  1
  O  O315  1  0.00122418  0.12317426  0.00584265  1
  O  O316  1  0.00136992  0.11938777  0.51174325  1
  O  O317  1  0.00660429  0.61940292  0.00866054  1
  O  O318  1  0.00364587  0.60926747  0.50077319  1
  O  O319  1  0.51156735  0.11246493  -0.00263065  1
  O  O320  1  0.50838376  0.12188335  0.49991625  1
  O  O321  1  0.50830839  0.61954937  0.00500903  1
  O  O322  1  0.51241099  0.62993500  0.49565202  1
  O  O323  1  0.48771425  0.37015804  0.49141776  1
  O  O324  1  0.49055125  0.38060148  0.99170599  1
  O  O325  1  0.49410754  0.88288713  0.49239351  1
  O  O326  1  0.49587371  0.87977740  0.99844860  1
  O  O327  1  1.00361672  0.38388663  0.49142970  1
  O  O328  1  0.99580723  0.37947076  0.99637752  1
  O  O329  1  0.98831694  0.88733564  0.50540273  1
  O  O330  1  0.99268348  0.86922564  0.98974964  1
  O  O331  1  0.48759653  0.48936845  0.36618657  1
  O  O332  1  0.50118364  0.49246067  0.88095461  1
  O  O333  1  0.49459187  0.99676296  0.37815624  1
  O  O334  1  0.51286652  0.99478265  0.88842572  1
  O  O335  1  0.99944423  0.49420924  0.38882420  1
  O  O336  1  1.00142499  0.49087196  0.88418718  1
  O  O337  1  1.00826779  1.01095981  0.38963931  1
  O  O338  1  0.98427057  0.98966699  0.86556964  1
  O  O339  1  0.01712743  0.00520419  0.12332714  1
  O  O340  1  0.00693885  0.00847987  0.62111899  1
  O  O341  1  -0.00306957  0.50780634  0.11875865  1
  O  O342  1  0.00824724  0.49447230  0.61582051  1
  O  O343  1  0.51167147  -0.00821019  0.11633859  1
  O  O344  1  0.50914769  0.00106630  0.61816904  1
  O  O345  1  0.50552846  0.50773198  0.12313671  1
  O  O346  1  0.51411520  0.49285391  0.63098033  1
  O  O347  1  0.24770934  0.37717428  0.24082271  1
  O  O348  1  0.25563674  0.38395184  0.73884029  1
  O  O349  1  0.25323350  0.88892885  0.23942324  1
  O  O350  1  0.24384963  0.88423547  0.73589048  1
  O  O351  1  0.76047830  0.38713007  0.25290515  1
  O  O352  1  0.74398478  0.38381726  0.74546555  1
  O  O353  1  0.74390984  0.88065095  0.24571385  1
  O  O354  1  0.75602236  0.88671909  0.74009245  1
  O  O355  1  0.25506135  0.12203880  0.25329250  1
  O  O356  1  0.25961283  0.11671521  0.74534338  1
  O  O357  1  0.25584137  0.61480863  0.24912988  1
  O  O358  1  0.25830197  0.61736609  0.74730484  1
  O  O359  1  0.74475851  0.11234414  0.26137763  1
  O  O360  1  0.75973747  0.11602903  0.74934863  1
  O  O361  1  0.75749406  0.61858255  0.25576693  1
  O  O362  1  0.74998452  0.61571113  0.75940258  1
  O  O363  1  0.36413446  0.12094262  0.36722701  1
  O  O364  1  0.37978543  0.13147863  0.86699004  1
  O  O365  1  0.37391085  0.61543158  0.36966969  1
  O  O366  1  0.37380297  0.63101802  0.86214669  1
  O  O367  1  0.85822622  0.13224329  0.38304793  1
  O  O368  1  0.87386950  0.11829036  0.86689053  1
  O  O369  1  0.86830823  0.61949191  0.36560732  1
  O  O370  1  0.86393503  0.62413408  0.87620850  1
  O  O371  1  0.13480136  0.37250003  0.12146875  1
  O  O372  1  0.13582358  0.38330216  0.62855273  1
  O  O373  1  0.13188025  0.88538036  0.12733060  1
  O  O374  1  0.13001220  0.88441686  0.62990014  1
  O  O375  1  0.61820116  0.39660128  0.11967609  1
  O  O376  1  0.63303657  0.38163413  0.63105305  1
  O  O377  1  0.63305152  0.88162059  0.13078062  1
  O  O378  1  0.63710372  0.88848090  0.61521474  1
  O  O379  1  0.10631132  0.24895956  0.24307622  1
  O  O380  1  0.12785768  0.25546434  0.76373966  1
  O  O381  1  0.11168296  0.75417061  0.25767318  1
  O  O382  1  0.11871492  0.76477258  0.74313229  1
  O  O383  1  0.60883369  0.24025859  0.26591909  1
  O  O384  1  0.61728836  0.25531456  0.75707125  1
  O  O385  1  0.61808425  0.75455209  0.25666788  1
  O  O386  1  0.62823207  0.74187348  0.76464730  1
  O  O387  1  0.38565834  0.24272776  0.25165751  1
  O  O388  1  0.37555676  0.24351557  0.74339786  1
  O  O389  1  0.37915754  0.74421739  0.24606986  1
  O  O390  1  0.37199516  0.74050146  0.74144534  1
  O  O391  1  0.89641104  0.25590254  0.24644357  1
  O  O392  1  0.87658432  0.23882802  0.74416009  1
  O  O393  1  0.88741472  0.73968211  0.25837758  1
  O  O394  1  0.88538508  0.75092442  0.74694654  1
  O  O395  1  0.36794201  0.49057069  0.49221834  1
  O  O396  1  0.38056236  0.49348210  0.99837615  1
  O  O397  1  0.37943088  0.99699084  0.49441410  1
  O  O398  1  0.38970311  0.98811266  1.00656834  1
  O  O399  1  0.88783705  0.49963577  0.50361287  1
  O  O400  1  0.88991802  0.49224155  0.99726201  1
  O  O401  1  0.88343241  0.99363975  0.50406247  1
  O  O402  1  0.86522860  0.98914752  0.98594952  1
  O  O403  1  0.13542143  -0.01154864  0.00397464  1
  O  O404  1  0.11731520  0.00241885  0.51032257  1
  O  O405  1  0.11376769  0.51091282  -0.00127110  1
  O  O406  1  0.11843069  0.49861615  0.51086845  1
  O  O407  1  0.61934286  0.00255402  0.00840016  1
  O  O408  1  0.62036163  0.00942724  0.50685472  1
  O  O409  1  0.62168469  0.51048637  0.00705648  1
  O  O410  1  0.62934221  0.51093152  0.51058357  1
  O  O411  1  0.36940845  0.37589514  0.11417695  1
  O  O412  1  0.36901195  0.37020702  0.62016525  1
  O  O413  1  0.37067075  0.86755766  0.12041166  1
  O  O414  1  0.36529724  0.87024691  0.61842015  1
  O  O415  1  0.88015436  0.37579132  0.11160487  1
  O  O416  1  0.86512678  0.36485053  0.63579325  1
  O  O417  1  0.86554960  0.88500815  0.11347151  1
  O  O418  1  0.86214598  0.87565694  0.61611641  1
  O  O419  1  0.14151985  0.12444200  0.37503133  1
  O  O420  1  0.12091188  0.13586778  0.86962780  1
  O  O421  1  0.12620580  0.64067597  0.37499687  1
  O  O422  1  0.12052055  0.62817805  0.89051345  1
  O  O423  1  0.62972638  0.13347816  0.38449613  1
  O  O424  1  0.62758800  0.13368575  0.87984413  1
  O  O425  1  0.63013211  0.62944001  0.38334680  1
  O  O426  1  0.63434123  0.62952472  0.88399040  1
