# generated using pymatgen
data_V85Zn86O256
_symmetry_space_group_name_H-M   'P 1'
_cell_length_a   16.95551076
_cell_length_b   16.96357811
_cell_length_c   16.95655862
_cell_angle_alpha   89.91817121
_cell_angle_beta   89.98860548
_cell_angle_gamma   90.05669136
_symmetry_Int_Tables_number   1
_chemical_formula_structural   V85Zn86O256
_chemical_formula_sum   'V85 Zn86 O256'
_cell_volume   4877.14189540
_cell_formula_units_Z   1
loop_
 _symmetry_equiv_pos_site_id
 _symmetry_equiv_pos_as_xyz
  1  'x, y, z'
loop_
 _atom_site_type_symbol
 _atom_site_label
 _atom_site_symmetry_multiplicity
 _atom_site_fract_x
 _atom_site_fract_y
 _atom_site_fract_z
 _atom_site_occupancy
  V  V0  1  0.50070857  0.12393694  0.62481213  1
  V  V1  1  0.49625502  0.50261390  0.49759406  1
  V  V2  1  0.37217343  0.87512099  0.49824660  1
  V  V3  1  0.24358994  0.25103816  0.49737937  1
  V  V4  1  0.49786685  0.36926747  0.37446242  1
  V  V5  1  0.00564733  0.75212117  0.74794229  1
  V  V6  1  0.37502967  0.87340582  -0.00227915  1
  V  V7  1  0.24221681  -0.00025960  0.24170159  1
  V  V8  1  0.62648720  0.75928448  0.36848502  1
  V  V9  1  0.00282444  0.24636740  0.75212842  1
  V  V10  1  0.75091507  0.49660742  0.74522114  1
  V  V11  1  0.00084793  -0.00572755  0.49682494  1
  V  V12  1  0.12386137  -0.00726559  0.62915150  1
  V  V13  1  0.24740788  -0.00586289  0.74890985  1
  V  V14  1  0.62662298  0.49887255  0.62188152  1
  V  V15  1  0.74916985  0.75569838  0.50459254  1
  V  V16  1  0.49933465  -0.00100531  0.49916748  1
  V  V17  1  0.62584749  0.75530194  0.87027555  1
  V  V18  1  0.24433797  0.74957385  0.49283538  1
  V  V19  1  0.63304208  0.13132031  0.49923997  1
  V  V20  1  0.25068223  0.49837129  0.75029491  1
  V  V21  1  0.62624102  0.11937134  0.00744270  1
  V  V22  1  0.12462712  0.37892090  0.24000852  1
  V  V23  1  0.63117659  0.63074903  -0.00187279  1
  V  V24  1  0.50116715  0.62563776  0.12519784  1
  V  V25  1  0.24082755  0.49816964  0.24276343  1
  V  V26  1  0.00509745  0.37469451  0.38007646  1
  V  V27  1  0.88078800  0.62424919  0.74461311  1
  V  V28  1  0.37187851  0.62446053  0.25245830  1
  V  V29  1  0.73826000  -0.00293477  0.24605295  1
  V  V30  1  0.37430992  0.49658050  0.87466047  1
  V  V31  1  0.37266818  -0.00003950  0.37359646  1
  V  V32  1  0.62702990  0.24858172  0.87545244  1
  V  V33  1  0.00732967  0.87408058  0.87679036  1
  V  V34  1  0.24490857  0.13002629  0.37167014  1
  V  V35  1  0.11866143  0.50579217  0.62721394  1
  V  V36  1  0.50374120  -0.00265218  0.00364585  1
  V  V37  1  0.01091950  0.12365947  0.11387224  1
  V  V38  1  0.32616098  0.31793587  0.06634663  1
  V  V39  1  0.12433034  0.37144578  0.75625792  1
  V  V40  1  0.62808862  -0.01351363  0.62685064  1
  V  V41  1  0.37348727  0.75037725  0.62407989  1
  V  V42  1  0.50097292  0.37421388  0.87467639  1
  V  V43  1  0.86987498  0.25368793  0.61562303  1
  V  V44  1  0.75704041  0.62872596  0.36852664  1
  V  V45  1  0.24761502  0.37356019  0.62472054  1
  V  V46  1  0.37499642  0.12402843  0.75008476  1
  V  V47  1  0.11276184  0.87329894  0.26030944  1
  V  V48  1  0.62737377  0.50119509  0.12589123  1
  V  V49  1  0.00886811  0.51009002  0.01207909  1
  V  V50  1  0.12066928  0.62724753  0.49641787  1
  V  V51  1  0.74846624  0.37511076  0.12778952  1
  V  V52  1  0.62467804  0.62698730  0.49826740  1
  V  V53  1  0.37510499  0.62521154  0.75069825  1
  V  V54  1  -0.00392722  0.37661474  0.87804690  1
  V  V55  1  0.75606930  0.50518099  0.24879547  1
  V  V56  1  0.24628087  0.13128049  0.88350421  1
  V  V57  1  0.12302585  0.12596545  0.49752077  1
  V  V58  1  0.87167869  0.49420807  0.38119538  1
  V  V59  1  0.49936851  0.49835532  -0.00156715  1
  V  V60  1  0.49659044  0.12780519  0.12423848  1
  V  V61  1  0.37288762  0.74903359  0.12398078  1
  V  V62  1  0.75051866  0.62872003  0.87393235  1
  V  V63  1  0.87977355  -0.00640132  0.37238610  1
  V  V64  1  0.87323589  0.12306490  0.75133762  1
  V  V65  1  0.74714974  -0.01555750  0.74701547  1
  V  V66  1  0.87930161  0.87043175  0.00394660  1
  V  V67  1  0.50355471  0.75702452  0.74863930  1
  V  V68  1  0.74181335  0.87399038  0.12388504  1
  V  V69  1  0.87637773  0.12335902  0.24983012  1
  V  V70  1  0.37325764  0.24900646  0.62433756  1
  V  V71  1  0.12571160  0.74406927  0.87674292  1
  V  V72  1  0.87926319  -0.00302919  0.88120196  1
  V  V73  1  0.50232015  0.75828484  0.24909317  1
  V  V74  1  0.24671253  0.74062821  -0.00028380  1
  V  V75  1  0.62925086  0.37294612  0.74677656  1
  V  V76  1  0.74849193  0.24926698  0.00205607  1
  V  V77  1  -0.00078106  0.73852205  0.26269264  1
  V  V78  1  -0.00479754  0.50010048  0.50593200  1
  V  V79  1  0.87363868  0.87556357  0.50284603  1
  V  V80  1  0.87775790  0.74956958  0.62462666  1
  V  V81  1  0.88307353  0.74117546  0.12802494  1
  V  V82  1  0.00811359  0.25115367  0.25746274  1
  V  V83  1  0.87314574  0.25106809  0.12737770  1
  V  V84  1  0.37323371  0.13233704  0.24410488  1
  Zn  Zn85  1  0.24466515  0.87081438  0.62888828  1
  Zn  Zn86  1  0.87137935  0.37984660  -0.00052478  1
  Zn  Zn87  1  0.63427251  0.25364558  0.37405651  1
  Zn  Zn88  1  0.49594881  0.25714942  0.23904870  1
  Zn  Zn89  1  0.50100354  0.62492030  0.62419198  1
  Zn  Zn90  1  0.37567317  -0.00048697  0.87461176  1
  Zn  Zn91  1  0.24398913  0.62545553  0.37390142  1
  Zn  Zn92  1  0.75560395  0.12829613  0.38117713  1
  Zn  Zn93  1  0.24098880  0.87294634  0.12210214  1
  Zn  Zn94  1  0.50648420  0.87926576  0.87119820  1
  Zn  Zn95  1  0.00006180  0.12384421  0.62528040  1
  Zn  Zn96  1  0.11915982  0.23339341  0.91021215  1
  Zn  Zn97  1  0.50264740  0.24844992  0.74882654  1
  Zn  Zn98  1  0.50310811  0.87987516  0.36874434  1
  Zn  Zn99  1  0.36922678  0.50016696  0.37659511  1
  Zn  Zn100  1  0.74801376  0.36126641  0.59009912  1
  Zn  Zn101  1  0.87505643  0.50262434  0.87670317  1
  Zn  Zn102  1  0.24181755  0.61582312  0.88145642  1
  Zn  Zn103  1  0.11184550  -0.01244381  0.09469477  1
  Zn  Zn104  1  0.37077475  0.37720372  0.50016064  1
  Zn  Zn105  1  0.62563635  0.37236097  0.25124002  1
  Zn  Zn106  1  0.74857852  0.12100373  0.87747541  1
  Zn  Zn107  1  0.19118920  0.19811799  0.17754164  1
  Zn  Zn108  1  0.18723058  0.18210584  0.68724269  1
  Zn  Zn109  1  0.18051317  0.68761142  0.18533418  1
  Zn  Zn110  1  0.18845219  0.68670930  0.68698860  1
  Zn  Zn111  1  0.68377352  0.18814533  0.19398279  1
  Zn  Zn112  1  0.68920788  0.18182007  0.68722697  1
  Zn  Zn113  1  0.69094561  0.69221885  0.18498921  1
  Zn  Zn114  1  0.68811936  0.68693083  0.68641441  1
  Zn  Zn115  1  0.31138672  0.31625217  0.31111768  1
  Zn  Zn116  1  0.31318456  0.31061973  0.81636100  1
  Zn  Zn117  1  0.30873096  0.81533545  0.31057949  1
  Zn  Zn118  1  0.31313603  0.81078258  0.81543462  1
  Zn  Zn119  1  0.81129361  0.31600588  0.32208864  1
  Zn  Zn120  1  0.81260602  0.30928718  0.81084388  1
  Zn  Zn121  1  0.81616864  0.81469312  0.30839163  1
  Zn  Zn122  1  0.81678161  0.81003115  0.81462606  1
  Zn  Zn123  1  0.18468308  0.44181410  0.43361558  1
  Zn  Zn124  1  0.17247731  0.39883181  0.98850877  1
  Zn  Zn125  1  0.18826147  0.93790553  0.43618729  1
  Zn  Zn126  1  0.19005822  0.93583336  0.93374258  1
  Zn  Zn127  1  0.68291319  0.43777916  0.43592908  1
  Zn  Zn128  1  0.68828065  0.43863524  0.93651737  1
  Zn  Zn129  1  0.68984777  0.94300382  0.43608488  1
  Zn  Zn130  1  0.69340120  0.93651462  0.94046015  1
  Zn  Zn131  1  0.31293521  0.06139718  0.06187145  1
  Zn  Zn132  1  0.31006485  0.06178210  0.56308426  1
  Zn  Zn133  1  0.30946541  0.55185982  0.06104924  1
  Zn  Zn134  1  0.30873808  0.56457892  0.56435580  1
  Zn  Zn135  1  0.81446225  0.06078701  0.06550639  1
  Zn  Zn136  1  0.81371952  0.06200721  0.56830012  1
  Zn  Zn137  1  0.81901576  0.56084005  0.05911660  1
  Zn  Zn138  1  0.81007687  0.56488938  0.56059563  1
  Zn  Zn139  1  0.43466965  0.44312076  0.18923239  1
  Zn  Zn140  1  0.43898732  0.43496215  0.68593439  1
  Zn  Zn141  1  0.43209278  0.94186314  0.18301968  1
  Zn  Zn142  1  0.43551329  0.93750672  0.68359830  1
  Zn  Zn143  1  0.93733542  0.44011802  0.19159587  1
  Zn  Zn144  1  0.93456603  0.43228989  0.68797651  1
  Zn  Zn145  1  0.93941515  0.93791078  0.18349458  1
  Zn  Zn146  1  0.93732230  0.93454668  0.68745291  1
  Zn  Zn147  1  0.06219112  0.06125255  0.30998029  1
  Zn  Zn148  1  0.06540792  0.05879152  0.81968162  1
  Zn  Zn149  1  0.05968664  0.56104658  0.31444117  1
  Zn  Zn150  1  0.06118808  0.56084664  0.81686164  1
  Zn  Zn151  1  0.55891219  0.06641261  0.31355937  1
  Zn  Zn152  1  0.56420057  0.06073382  0.81529402  1
  Zn  Zn153  1  0.56508876  0.56524210  0.31325115  1
  Zn  Zn154  1  0.56369850  0.56493782  0.80908378  1
  Zn  Zn155  1  0.43376001  0.18482261  0.43920180  1
  Zn  Zn156  1  0.43554666  0.18841400  0.93927522  1
  Zn  Zn157  1  0.43693478  0.69118827  0.43517986  1
  Zn  Zn158  1  0.44011692  0.68620120  0.93573608  1
  Zn  Zn159  1  0.93820123  0.18403757  0.43506426  1
  Zn  Zn160  1  0.93423830  0.18874714  0.93682140  1
  Zn  Zn161  1  0.93887780  0.68338918  0.43918554  1
  Zn  Zn162  1  0.93668904  0.68807509  0.93939860  1
  Zn  Zn163  1  0.05144843  0.31363286  0.06762124  1
  Zn  Zn164  1  0.05905812  0.31400703  0.56673215  1
  Zn  Zn165  1  0.06363161  0.80773980  0.06580457  1
  Zn  Zn166  1  0.05983941  0.81184727  0.56051627  1
  Zn  Zn167  1  0.56078722  0.31294443  0.06201838  1
  Zn  Zn168  1  0.56095349  0.31385071  0.56215721  1
  Zn  Zn169  1  0.56189576  0.81089694  0.06067658  1
  Zn  Zn170  1  0.55824502  0.81164720  0.55872713  1
  O  O171  1  0.11099093  0.13126360  0.13122184  1
  O  O172  1  0.12370004  0.11386134  0.61321589  1
  O  O173  1  0.11656073  0.61965964  0.12698445  1
  O  O174  1  0.12783313  0.61072477  0.62032413  1
  O  O175  1  0.61761811  0.12567617  0.11337363  1
  O  O176  1  0.62088205  0.11536312  0.61619637  1
  O  O177  1  0.62391078  0.62303915  0.11608994  1
  O  O178  1  0.62431745  0.61849504  0.61578716  1
  O  O179  1  0.38495721  0.37854449  0.37951981  1
  O  O180  1  0.38935064  0.38565497  0.86345953  1
  O  O181  1  0.37323951  0.88336973  0.38026039  1
  O  O182  1  0.37991454  0.87407132  0.88759411  1
  O  O183  1  0.88832358  0.38778874  0.36888291  1
  O  O184  1  0.88540089  0.37352767  0.87322542  1
  O  O185  1  0.87104061  0.88651720  0.38522383  1
  O  O186  1  0.88042826  0.87698361  0.88518435  1
  O  O187  1  0.25274210  0.01174084  0.36604118  1
  O  O188  1  0.25406310  0.01017717  0.86307662  1
  O  O189  1  0.25225444  0.50602609  0.36615768  1
  O  O190  1  0.26638724  0.49901924  0.86811765  1
  O  O191  1  0.75979846  0.00416481  0.36178880  1
  O  O192  1  0.75974377  -0.00143272  0.86398265  1
  O  O193  1  0.75382744  0.51013600  0.36737556  1
  O  O194  1  0.74930553  0.51003879  0.86296353  1
  O  O195  1  0.24981800  0.50420749  0.14354466  1
  O  O196  1  0.24061767  0.49314657  0.63049674  1
  O  O197  1  0.24498206  1.00152478  0.13459922  1
  O  O198  1  0.24129423  0.99846532  0.63106865  1
  O  O199  1  0.74839171  0.49713973  0.13138961  1
  O  O200  1  0.74538602  0.50097706  0.63356585  1
  O  O201  1  0.75655576  0.98897937  0.13693264  1
  O  O202  1  0.74493438  1.00089034  0.63933431  1
  O  O203  1  0.00533822  0.37010961  0.25793288  1
  O  O204  1  0.00461232  0.36553037  0.75611101  1
  O  O205  1  0.00976176  0.87607876  0.25080560  1
  O  O206  1  -0.01135229  0.86081495  0.76185734  1
  O  O207  1  0.49748818  0.37858333  0.26594219  1
  O  O208  1  0.51030075  0.37405677  0.75738396  1
  O  O209  1  0.49115912  0.86225778  0.24721640  1
  O  O210  1  0.49239089  0.86139547  0.75164398  1
  O  O211  1  0.48953069  0.12156268  0.24049746  1
  O  O212  1  0.49163181  0.12363307  0.74480374  1
  O  O213  1  0.49265357  0.63252464  0.24492366  1
  O  O214  1  0.49077692  0.63290526  0.74710286  1
  O  O215  1  0.99310524  0.13376511  0.24797836  1
  O  O216  1  0.99235913  0.13056667  0.75283295  1
  O  O217  1  1.00557542  0.63914512  0.25272761  1
  O  O218  1  0.98721295  0.63393451  0.75694711  1
  O  O219  1  0.37191119  0.25897247  -0.00308544  1
  O  O220  1  0.35989336  0.24849442  0.50623024  1
  O  O221  1  0.37170296  0.75426875  0.00339766  1
  O  O222  1  0.36645288  0.75335928  0.50445405  1
  O  O223  1  0.86778554  0.24966965  0.01294494  1
  O  O224  1  0.88190837  0.23834614  0.51765149  1
  O  O225  1  0.87830756  0.75890594  0.01331735  1
  O  O226  1  0.87028145  0.75528321  0.50512140  1
  O  O227  1  0.13258710  0.23897091  0.50864846  1
  O  O228  1  0.13727418  0.28997505  1.00146024  1
  O  O229  1  0.13159264  0.73900067  0.51115528  1
  O  O230  1  0.13620469  0.75404372  0.99086259  1
  O  O231  1  0.62219240  0.23374483  0.50306544  1
  O  O232  1  0.62990536  0.24098430  0.99586572  1
  O  O233  1  0.63219133  0.74792568  0.49164659  1
  O  O234  1  0.61901242  0.73638981  0.98979468  1
  O  O235  1  0.50270304  0.23241200  0.12088036  1
  O  O236  1  0.49208074  0.24321598  0.62561936  1
  O  O237  1  0.49514155  0.74439075  0.13107787  1
  O  O238  1  0.49328877  0.74738533  0.63134058  1
  O  O239  1  0.99054474  0.24397714  0.13758356  1
  O  O240  1  0.99029638  0.24720128  0.63614829  1
  O  O241  1  0.98794607  0.75036483  0.13278036  1
  O  O242  1  0.98810894  0.75497762  0.63348759  1
  O  O243  1  -0.00909347  0.26028028  0.36621244  1
  O  O244  1  0.00370482  0.25535341  0.86798591  1
  O  O245  1  -0.01041273  0.75040811  0.36234225  1
  O  O246  1  0.00586767  0.75484219  0.86880286  1
  O  O247  1  0.49792474  0.26438792  0.38180701  1
  O  O248  1  0.50682071  0.26011819  0.87434093  1
  O  O249  1  0.50901044  0.75285650  0.36610464  1
  O  O250  1  0.50888841  0.75007374  0.86590090  1
  O  O251  1  0.24247175  0.13017843  0.49220736  1
  O  O252  1  0.25934460  0.12115722  0.98163835  1
  O  O253  1  0.24058046  0.63278854  0.50058016  1
  O  O254  1  0.26082823  0.63609008  0.99731558  1
  O  O255  1  0.73625873  0.11612783  0.50168083  1
  O  O256  1  0.74242389  0.12803913  1.00186914  1
  O  O257  1  0.74553646  0.63648936  0.48965231  1
  O  O258  1  0.74070510  0.61657732  0.98683275  1
  O  O259  1  0.27993113  0.39686936  0.01814577  1
  O  O260  1  0.24477754  0.36588294  0.50366409  1
  O  O261  1  0.26052066  0.86341305  -0.00118372  1
  O  O262  1  0.25360138  0.86673519  0.50147364  1
  O  O263  1  0.75001224  0.36888908  0.00821778  1
  O  O264  1  0.76306753  0.38337190  0.48407181  1
  O  O265  1  0.76246218  0.88081876  0.01577601  1
  O  O266  1  0.75942705  0.86499899  0.49310662  1
  O  O267  1  0.13461533  0.49665435  0.25566075  1
  O  O268  1  0.12865355  0.49313012  0.74497404  1
  O  O269  1  0.13077787  0.99226338  0.24881744  1
  O  O270  1  0.13389736  1.00786457  0.73920825  1
  O  O271  1  0.63573300  0.50149576  0.24366938  1
  O  O272  1  0.63244171  0.49587362  0.74286651  1
  O  O273  1  0.63998912  1.00722386  0.25430105  1
  O  O274  1  0.63973279  1.00376349  0.74523195  1
  O  O275  1  0.36282815  0.00810547  0.25322912  1
  O  O276  1  0.36883316  0.00987449  0.74741558  1
  O  O277  1  0.36364063  0.50955256  0.25145835  1
  O  O278  1  0.37334226  0.50644199  0.75383359  1
  O  O279  1  0.87638760  0.00661395  0.25697315  1
  O  O280  1  0.86602869  0.00384002  0.75438929  1
  O  O281  1  0.86349377  0.49990572  0.26089628  1
  O  O282  1  0.86813760  0.50800974  0.74801830  1
  O  O283  1  0.11002559  0.38138417  0.36652446  1
  O  O284  1  0.11541803  0.37444009  0.85972598  1
  O  O285  1  0.12696694  0.87983417  0.35993549  1
  O  O286  1  0.11497212  0.86103967  0.87302192  1
  O  O287  1  0.60833132  0.37508663  0.37412009  1
  O  O288  1  0.61939419  0.37029500  0.86826189  1
  O  O289  1  0.62609543  0.86324031  0.37771854  1
  O  O290  1  0.62799042  0.85898803  0.88365558  1
  O  O291  1  0.38180017  0.11992044  0.13447989  1
  O  O292  1  0.37914901  0.12839351  0.63113171  1
  O  O293  1  0.38069515  0.62827949  0.13421549  1
  O  O294  1  0.37553339  0.63018977  0.63591029  1
  O  O295  1  0.88389321  0.13242325  0.13216627  1
  O  O296  1  0.87828126  0.13065161  0.63704080  1
  O  O297  1  0.86361495  0.64372614  0.12326248  1
  O  O298  1  0.86972869  0.63637153  0.63362908  1
  O  O299  1  0.26245131  0.26436455  0.12593867  1
  O  O300  1  0.25262670  0.25309842  0.61700780  1
  O  O301  1  0.25558129  0.75018812  0.11634649  1
  O  O302  1  0.25585372  0.75155910  0.61740069  1
  O  O303  1  0.75591669  0.25358360  0.12416273  1
  O  O304  1  0.76475872  0.24741272  0.62998621  1
  O  O305  1  0.76587480  0.76864834  0.14011354  1
  O  O306  1  0.75778180  0.74618191  0.61198361  1
  O  O307  1  0.25307449  0.23961961  0.38349219  1
  O  O308  1  0.24743718  0.23434879  0.86767404  1
  O  O309  1  0.25264271  0.74750764  0.38890468  1
  O  O310  1  0.24217384  0.74675192  0.88073344  1
  O  O311  1  0.74596467  0.23801665  0.36236962  1
  O  O312  1  0.74498744  0.24705136  0.88324584  1
  O  O313  1  0.74681217  0.74625393  0.37782422  1
  O  O314  1  0.74106397  0.73691776  0.86390911  1
  O  O315  1  0.00162015  0.13979422  0.01508673  1
  O  O316  1  0.00857790  0.11474047  0.50010883  1
  O  O317  1  -0.00274872  0.60881615  -0.00911810  1
  O  O318  1  0.00643689  0.61230464  0.50033849  1
  O  O319  1  0.50490253  0.11682148  0.00470176  1
  O  O320  1  0.50622235  0.11772546  0.50570243  1
  O  O321  1  0.51044331  0.61773562  0.00372235  1
  O  O322  1  0.50461237  0.61871509  0.49872000  1
  O  O323  1  0.49749416  0.38484821  0.49187900  1
  O  O324  1  0.51134802  0.38800089  0.98647421  1
  O  O325  1  0.49029413  0.88132903  0.49458779  1
  O  O326  1  0.49393294  0.88146449  1.00049044  1
  O  O327  1  1.00730033  0.38709926  0.49285802  1
  O  O328  1  0.99233244  0.38076300  0.98965561  1
  O  O329  1  0.98955825  0.88530275  0.50156009  1
  O  O330  1  0.99158274  0.86853804  0.98820750  1
  O  O331  1  0.49900036  0.49393930  0.38397088  1
  O  O332  1  0.49735588  0.49418348  0.87838677  1
  O  O333  1  0.49119115  0.99902308  0.37911768  1
  O  O334  1  0.49718508  0.99728709  0.88595928  1
  O  O335  1  0.99036345  0.49505064  0.38390252  1
  O  O336  1  0.99562973  0.48755120  0.87474987  1
  O  O337  1  0.99141903  1.00499720  0.38587215  1
  O  O338  1  0.98777440  0.98615692  0.86222875  1
  O  O339  1  -0.00071544  0.01998205  0.12718777  1
  O  O340  1  0.00485252  0.00125005  0.61679209  1
  O  O341  1  -0.00756860  0.49517723  0.11109561  1
  O  O342  1  0.00779560  0.49107704  0.61889602  1
  O  O343  1  0.49699563  0.00911785  0.11253791  1
  O  O344  1  0.50831714  0.00454886  0.62060055  1
  O  O345  1  0.50627626  0.50649037  0.11710803  1
  O  O346  1  0.50649952  0.49939472  0.61397072  1
  O  O347  1  0.24059263  0.38912964  0.25809360  1
  O  O348  1  0.24193234  0.37778821  0.74642314  1
  O  O349  1  0.24061661  0.88421705  0.24654821  1
  O  O350  1  0.25842265  0.88942950  0.74976065  1
  O  O351  1  0.74821104  0.38773096  0.24607034  1
  O  O352  1  0.74612765  0.38714212  0.75414911  1
  O  O353  1  0.75514839  0.88969554  0.24178802  1
  O  O354  1  0.75605333  0.88588491  0.75164791  1
  O  O355  1  0.25230849  0.12216728  0.25433220  1
  O  O356  1  0.25933919  0.11613602  0.75211810  1
  O  O357  1  0.25499352  0.61906969  0.25241127  1
  O  O358  1  0.26039043  0.61813820  0.75252199  1
  O  O359  1  0.76308412  0.11079814  0.24039188  1
  O  O360  1  0.76177861  0.11690436  0.75497025  1
  O  O361  1  0.74540217  0.61892993  0.25879571  1
  O  O362  1  0.75695527  0.61625348  0.75419809  1
  O  O363  1  0.36496852  0.11899960  0.36737375  1
  O  O364  1  0.36852289  0.12479158  0.86332936  1
  O  O365  1  0.37569739  0.62581307  0.36099830  1
  O  O366  1  0.37882810  0.61514624  0.86373452  1
  O  O367  1  0.87577424  0.11397442  0.36559679  1
  O  O368  1  0.87575424  0.11446709  0.86879468  1
  O  O369  1  0.86292544  0.61489892  0.38038767  1
  O  O370  1  0.86476208  0.62858690  0.86353670  1
  O  O371  1  0.11648195  0.38036829  0.14135823  1
  O  O372  1  0.12796955  0.38339900  0.63562622  1
  O  O373  1  0.12370450  0.87860918  0.13587718  1
  O  O374  1  0.12439901  0.88855553  0.61972766  1
  O  O375  1  0.62997177  0.38342616  0.12629107  1
  O  O376  1  0.63178470  0.37938704  0.62806669  1
  O  O377  1  0.64271910  0.86781990  0.11875729  1
  O  O378  1  0.62156072  0.88727240  0.61933880  1
  O  O379  1  0.11375276  0.25901106  0.24831610  1
  O  O380  1  0.11412411  0.25665954  0.74163329  1
  O  O381  1  0.11161972  0.76327807  0.24745101  1
  O  O382  1  0.11281701  0.74478356  0.75378119  1
  O  O383  1  0.61236036  0.25305040  0.25418860  1
  O  O384  1  0.62589736  0.25331936  0.75603112  1
  O  O385  1  0.61427659  0.74447698  0.25692015  1
  O  O386  1  0.61456033  0.74178053  0.75656565  1
  O  O387  1  0.37793894  0.23579227  0.25823947  1
  O  O388  1  0.37588991  0.23929916  0.74295343  1
  O  O389  1  0.37965507  0.74330742  0.24492413  1
  O  O390  1  0.38058258  0.74214558  0.74636994  1
  O  O391  1  0.88166585  0.24108319  0.24380489  1
  O  O392  1  0.88409154  0.23990752  0.74720486  1
  O  O393  1  0.88951223  0.75844814  0.23999761  1
  O  O394  1  0.87977146  0.74314486  0.74197100  1
  O  O395  1  0.38371343  0.50130060  0.50056623  1
  O  O396  1  0.39200065  0.51160563  0.98834185  1
  O  O397  1  0.37787854  0.99666815  0.49449784  1
  O  O398  1  0.38326361  0.98954606  0.99915855  1
  O  O399  1  0.88394832  0.50631106  0.49384574  1
  O  O400  1  0.88423790  0.49629485  0.99348965  1
  O  O401  1  0.87980152  0.99495297  0.49537503  1
  O  O402  1  0.87161143  0.99286253  0.98774321  1
  O  O403  1  0.12122228  0.00160844  -0.01340270  1
  O  O404  1  0.11848558  0.00558625  0.50518075  1
  O  O405  1  0.10774401  0.49050841  -0.00618390  1
  O  O406  1  0.11719038  0.50640946  0.50952040  1
  O  O407  1  0.61732585  0.00822917  -0.00674549  1
  O  O408  1  0.62015910  0.00627633  0.50711375  1
  O  O409  1  0.61821823  0.51009095  0.00326934  1
  O  O410  1  0.61536242  0.50780901  0.50205844  1
  O  O411  1  0.39870784  0.36070023  0.12484764  1
  O  O412  1  0.36609812  0.36825151  0.62374388  1
  O  O413  1  0.37203258  0.86789522  0.11315280  1
  O  O414  1  0.37202163  0.86810983  0.61526379  1
  O  O415  1  0.86895136  0.36205861  0.12980175  1
  O  O416  1  0.87169326  0.35728106  0.62906068  1
  O  O417  1  0.87404028  0.87115591  0.11650856  1
  O  O418  1  0.87471765  0.86554849  0.61308894  1
  O  O419  1  0.13330130  0.11931205  0.38526577  1
  O  O420  1  0.13942248  0.12789387  0.87023242  1
  O  O421  1  0.12398429  0.61961224  0.39262366  1
  O  O422  1  0.12622080  0.63816488  0.87009568  1
  O  O423  1  0.62259048  0.12358354  0.39246825  1
  O  O424  1  0.62568847  0.13096236  0.88670669  1
  O  O425  1  0.63488256  0.63649938  0.37931178  1
  O  O426  1  0.63135663  0.63123308  0.87915252  1
