# generated using pymatgen
data_V85Zn86O256
_symmetry_space_group_name_H-M   'P 1'
_cell_length_a   17.00726778
_cell_length_b   16.99111069
_cell_length_c   16.99861001
_cell_angle_alpha   89.73263904
_cell_angle_beta   90.19339636
_cell_angle_gamma   89.73247143
_symmetry_Int_Tables_number   1
_chemical_formula_structural   V85Zn86O256
_chemical_formula_sum   'V85 Zn86 O256'
_cell_volume   4911.99324004
_cell_formula_units_Z   1
loop_
 _symmetry_equiv_pos_site_id
 _symmetry_equiv_pos_as_xyz
  1  'x, y, z'
loop_
 _atom_site_type_symbol
 _atom_site_label
 _atom_site_symmetry_multiplicity
 _atom_site_fract_x
 _atom_site_fract_y
 _atom_site_fract_z
 _atom_site_occupancy
  V  V0  1  0.37072220  0.37437947  0.50236357  1
  V  V1  1  0.87955443  0.62722134  0.25388328  1
  V  V2  1  0.75230234  0.25159878  -0.00217056  1
  V  V3  1  0.87088687  0.51493421  0.86706188  1
  V  V4  1  0.62007342  -0.00529328  0.62080949  1
  V  V5  1  0.37391947  0.37504125  -0.00076286  1
  V  V6  1  0.75055719  0.12705216  0.86700521  1
  V  V7  1  0.75113697  0.49777894  0.25000852  1
  V  V8  1  0.62585901  0.12375061  -0.00297763  1
  V  V9  1  0.25243934  0.50682558  0.25042835  1
  V  V10  1  0.73255864  0.50451693  0.74653654  1
  V  V11  1  -0.00018220  0.50293298  0.00109740  1
  V  V12  1  -0.00113702  0.23312648  0.24759229  1
  V  V13  1  0.37873403  0.12737773  0.75215049  1
  V  V14  1  0.87952690  0.26428540  0.62727996  1
  V  V15  1  0.00849627  0.37469833  0.87689502  1
  V  V16  1  0.12357618  0.11838416  0.00976680  1
  V  V17  1  0.44509036  0.81800902  0.31664738  1
  V  V18  1  0.12957291  0.38030373  0.73813974  1
  V  V19  1  0.00677033  0.12005206  0.62271484  1
  V  V20  1  0.62406301  0.62218313  0.50665657  1
  V  V21  1  0.62402843  0.25211166  0.87380715  1
  V  V22  1  0.37569676  0.50493632  0.86964178  1
  V  V23  1  -0.00164549  0.87599673  0.87503162  1
  V  V24  1  0.12575591  0.75353769  0.87490759  1
  V  V25  1  0.24156513  0.12935898  0.87283502  1
  V  V26  1  0.25510679  0.62673763  0.86872143  1
  V  V27  1  0.86866597  0.00031751  0.86798468  1
  V  V28  1  0.62921087  0.74487382  0.87501988  1
  V  V29  1  0.12425851  0.61802648  0.50468394  1
  V  V30  1  0.75245457  0.37515193  0.12455348  1
  V  V31  1  0.36820439  0.25209599  0.62927213  1
  V  V32  1  0.49997715  0.24833150  0.24765320  1
  V  V33  1  0.62744955  0.62364721  0.00085175  1
  V  V34  1  0.50105460  0.12548425  0.12236626  1
  V  V35  1  0.87639849  0.12742262  0.74749703  1
  V  V36  1  0.24954841  0.37924622  0.12492035  1
  V  V37  1  -0.00731456  0.87381316  0.36844263  1
  V  V38  1  0.63578939  0.87200861  0.24965142  1
  V  V39  1  0.49557118  0.74349467  0.74897041  1
  V  V40  1  0.24757315  0.62600071  0.38022184  1
  V  V41  1  0.36544439  0.74656200  0.62974693  1
  V  V42  1  0.01075687  0.25207788  0.75607559  1
  V  V43  1  0.87539432  0.48672777  0.37836029  1
  V  V44  1  0.62717178  0.87626446  0.75085476  1
  V  V45  1  0.74848336  0.74578649  0.00249747  1
  V  V46  1  0.62395163  0.74981272  0.37158546  1
  V  V47  1  0.50381949  0.37023495  0.87590816  1
  V  V48  1  0.87211408  0.75051677  0.12933929  1
  V  V49  1  0.00004296  0.63197114  0.12737751  1
  V  V50  1  0.00009500  0.61713945  0.62775238  1
  V  V51  1  0.86643061  0.87406451  -0.00247604  1
  V  V52  1  0.48863395  0.63754117  0.13446338  1
  V  V53  1  0.63339567  -0.00692177  0.12719462  1
  V  V54  1  0.62774571  0.37389901  0.25142231  1
  V  V55  1  0.74909730  0.88057352  0.63125365  1
  V  V56  1  0.49983877  0.87463759  0.87577252  1
  V  V57  1  0.55325898  0.30235294  0.70081011  1
  V  V58  1  0.37512109  0.50456925  0.37227725  1
  V  V59  1  0.87689104  0.37675536  -0.00088130  1
  V  V60  1  0.50311212  0.50186743  0.50481963  1
  V  V61  1  0.11946737  0.37900376  0.25338734  1
  V  V62  1  0.38158046  0.00161723  0.36581981  1
  V  V63  1  0.87981908  0.23687643  0.12503518  1
  V  V64  1  0.37634179  0.25128534  0.12409199  1
  V  V65  1  0.12640220  0.62736694  0.00127132  1
  V  V66  1  0.50103347  0.50092557  0.00312143  1
  V  V67  1  0.50161558  -0.00107284  -0.00294658  1
  V  V68  1  0.37870001  0.87682212  0.50664250  1
  V  V69  1  0.24661857  0.49877098  0.74182571  1
  V  V70  1  0.37708822  0.87182330  0.00378799  1
  V  V71  1  -0.00502687  0.49219101  0.50153972  1
  V  V72  1  0.50034258  0.37487254  0.37198376  1
  V  V73  1  0.75877779  0.25160511  0.50079799  1
  V  V74  1  0.24884725  0.12031195  0.36929010  1
  V  V75  1  0.24160281  0.25301954  -0.00579681  1
  V  V76  1  0.24277148  -0.00377677  0.74472171  1
  V  V77  1  0.87279885  0.88484638  0.50258885  1
  V  V78  1  0.24402329  0.88628409  0.12563786  1
  V  V79  1  0.50324938  0.12150795  0.62214662  1
  V  V80  1  0.24915591  0.24956268  0.49760859  1
  V  V81  1  -0.00627577  0.74106269  0.75238312  1
  V  V82  1  0.62449746  0.23206386  0.38180819  1
  V  V83  1  0.25615631  0.75030428  0.00691155  1
  V  V84  1  0.87089852  0.74121562  0.62797762  1
  Zn  Zn85  1  0.17981630  0.04131883  0.19081796  1
  Zn  Zn86  1  0.74743601  0.74574694  0.50425078  1
  Zn  Zn87  1  0.01560269  -0.01118386  0.50952316  1
  Zn  Zn88  1  0.36589570  0.12075010  0.24188308  1
  Zn  Zn89  1  -0.00525958  0.01291460  0.00581057  1
  Zn  Zn90  1  0.75050756  0.62286614  0.38004268  1
  Zn  Zn91  1  0.10866189  0.74443707  0.37074786  1
  Zn  Zn92  1  0.12296914  0.24771572  0.37734301  1
  Zn  Zn93  1  0.23926168  0.76352677  0.50578622  1
  Zn  Zn94  1  0.81185356  0.93132884  0.17978665  1
  Zn  Zn95  1  0.12145884  0.87797816  0.73696608  1
  Zn  Zn96  1  0.73637892  0.37751900  0.63663084  1
  Zn  Zn97  1  0.50315287  -0.00158447  0.49346042  1
  Zn  Zn98  1  0.62519125  0.50121392  0.12829117  1
  Zn  Zn99  1  0.13539039  0.11486585  0.50877720  1
  Zn  Zn100  1  0.80841619  0.04792970  0.30487462  1
  Zn  Zn101  1  0.11799689  0.87662612  0.24944874  1
  Zn  Zn102  1  0.12343973  0.50324928  0.12743354  1
  Zn  Zn103  1  -0.00204944  0.37023778  0.37937214  1
  Zn  Zn104  1  0.19287865  0.93165171  0.57939774  1
  Zn  Zn105  1  0.37438344  0.00043654  0.87309491  1
  Zn  Zn106  1  0.49973221  0.61905947  0.63372185  1
  Zn  Zn107  1  0.18604044  0.20290635  0.18520127  1
  Zn  Zn108  1  0.18886063  0.18976251  0.68979926  1
  Zn  Zn109  1  0.18518471  0.69102126  0.18623764  1
  Zn  Zn110  1  0.18078484  0.68758614  0.68829141  1
  Zn  Zn111  1  0.68613603  0.18556274  0.18454982  1
  Zn  Zn112  1  0.71416050  0.15794007  0.64924657  1
  Zn  Zn113  1  0.68482177  0.68488158  0.18676590  1
  Zn  Zn114  1  0.68766212  0.68369758  0.69016565  1
  Zn  Zn115  1  0.31207937  0.31396914  0.31202631  1
  Zn  Zn116  1  0.31202170  0.31564353  0.81352208  1
  Zn  Zn117  1  0.26902397  0.79135095  0.29149742  1
  Zn  Zn118  1  0.31428173  0.81460308  0.81434428  1
  Zn  Zn119  1  0.81427098  0.20943256  0.31570261  1
  Zn  Zn120  1  0.81560457  0.31977321  0.81161169  1
  Zn  Zn121  1  0.81012413  0.80862087  0.32067862  1
  Zn  Zn122  1  0.81020786  0.80605898  0.81329371  1
  Zn  Zn123  1  0.18424959  0.43847875  0.43908996  1
  Zn  Zn124  1  0.18803352  0.44166191  0.93434540  1
  Zn  Zn125  1  0.18701034  0.93856436  0.42031076  1
  Zn  Zn126  1  0.19076149  0.93976649  0.93419586  1
  Zn  Zn127  1  0.69136547  0.43586283  0.43371800  1
  Zn  Zn128  1  0.69045952  0.43951131  0.93211149  1
  Zn  Zn129  1  0.68546665  0.92927543  0.43620177  1
  Zn  Zn130  1  0.68774663  0.93816674  0.93377943  1
  Zn  Zn131  1  0.31656100  0.06418936  0.05461138  1
  Zn  Zn132  1  0.32052589  0.06460594  0.55967405  1
  Zn  Zn133  1  0.31440090  0.56324848  0.06168165  1
  Zn  Zn134  1  0.31758190  0.56559532  0.56152354  1
  Zn  Zn135  1  0.81142280  0.06298503  0.05538452  1
  Zn  Zn136  1  0.79856587  0.07023859  0.46595521  1
  Zn  Zn137  1  0.81412757  0.56260036  0.06207193  1
  Zn  Zn138  1  0.81082011  0.55747401  0.56715453  1
  Zn  Zn139  1  0.43725740  0.43887071  0.18750241  1
  Zn  Zn140  1  0.42938705  0.44068783  0.68585867  1
  Zn  Zn141  1  0.43861515  0.93922369  0.18094127  1
  Zn  Zn142  1  0.43295750  0.93523893  0.68821993  1
  Zn  Zn143  1  0.93572553  0.43846100  0.18608574  1
  Zn  Zn144  1  0.93958442  0.44056509  0.69395494  1
  Zn  Zn145  1  0.98445483  0.99477083  0.20462078  1
  Zn  Zn146  1  0.93598563  0.93563186  0.68765997  1
  Zn  Zn147  1  0.06046517  0.05537897  0.33728455  1
  Zn  Zn148  1  0.06245959  0.06215728  0.81745863  1
  Zn  Zn149  1  0.06111108  0.56081085  0.31636898  1
  Zn  Zn150  1  0.06544389  0.56008917  0.81557701  1
  Zn  Zn151  1  0.56380960  0.05772278  0.30551827  1
  Zn  Zn152  1  0.56353827  0.06260427  0.80941855  1
  Zn  Zn153  1  0.56268421  0.56460386  0.31487770  1
  Zn  Zn154  1  0.56322934  0.56195560  0.81592749  1
  Zn  Zn155  1  0.43578592  0.18460544  0.43506656  1
  Zn  Zn156  1  0.43405552  0.18791618  0.93726061  1
  Zn  Zn157  1  0.43284560  0.68672982  0.44598348  1
  Zn  Zn158  1  0.44050974  0.68752777  0.93993471  1
  Zn  Zn159  1  0.94134656  0.18819998  0.43870331  1
  Zn  Zn160  1  0.93947838  0.19003728  0.93653375  1
  Zn  Zn161  1  0.93433321  0.68679024  0.44265125  1
  Zn  Zn162  1  0.93881680  0.69040324  0.94116688  1
  Zn  Zn163  1  0.06272364  0.31317752  0.06705123  1
  Zn  Zn164  1  0.06574152  0.31146338  0.56660593  1
  Zn  Zn165  1  0.03156237  0.85004834  0.09105435  1
  Zn  Zn166  1  0.05765954  0.80085727  0.56003654  1
  Zn  Zn167  1  0.56600615  0.31335542  0.06175173  1
  Zn  Zn168  1  0.59322933  0.34002119  0.52968964  1
  Zn  Zn169  1  0.56292048  0.81190456  0.06694756  1
  Zn  Zn170  1  0.55796541  0.80820129  0.56164553  1
  O  O171  1  0.13600258  0.12363630  0.11299915  1
  O  O172  1  0.11068724  0.13131248  0.62847072  1
  O  O173  1  0.12055664  0.62854383  0.11625259  1
  O  O174  1  0.11142330  0.62900314  0.61707193  1
  O  O175  1  0.62081005  0.11662654  0.11574369  1
  O  O176  1  0.61447226  0.10676369  0.63904860  1
  O  O177  1  0.61466382  0.62182992  0.11386812  1
  O  O178  1  0.61711441  0.63401140  0.61061869  1
  O  O179  1  0.38075150  0.38140166  0.38318503  1
  O  O180  1  0.38484863  0.38229822  0.88024190  1
  O  O181  1  0.38513382  0.88075349  0.37736209  1
  O  O182  1  0.38234227  0.87745074  0.88479066  1
  O  O183  1  0.87731160  0.38803767  0.37345424  1
  O  O184  1  0.88909675  0.38430553  0.88157574  1
  O  O185  1  0.87725733  0.86821918  0.39534176  1
  O  O186  1  0.87696935  0.88187486  0.87456966  1
  O  O187  1  0.26226987  0.01239624  0.37340511  1
  O  O188  1  0.25324247  0.01235014  0.86545945  1
  O  O189  1  0.25630549  0.50481906  0.36957446  1
  O  O190  1  0.25898638  0.50931026  0.87180613  1
  O  O191  1  0.74562909  0.00769173  0.38889715  1
  O  O192  1  0.76045942  0.00853329  0.87548326  1
  O  O193  1  0.75798906  0.50100842  0.36737917  1
  O  O194  1  0.76482511  0.49752841  0.86656526  1
  O  O195  1  0.25038301  0.49798559  0.13420387  1
  O  O196  1  0.26348253  0.50842786  0.64412497  1
  O  O197  1  0.24985124  0.99126930  0.11422230  1
  O  O198  1  0.25415915  1.00900194  0.63998245  1
  O  O199  1  0.75047385  0.49416806  0.13202235  1
  O  O200  1  0.75184274  0.49417876  0.63989656  1
  O  O201  1  0.73724167  0.99841019  0.11499602  1
  O  O202  1  0.73629451  0.98231896  0.62915285  1
  O  O203  1  0.01131584  0.37837356  0.25127869  1
  O  O204  1  0.01067161  0.37139806  0.75790722  1
  O  O205  1  -0.01231509  0.87468850  0.26896231  1
  O  O206  1  -0.00002183  0.86541207  0.76148414  1
  O  O207  1  0.50581145  0.36965278  0.25319940  1
  O  O208  1  0.49516452  0.36924179  0.75717460  1
  O  O209  1  0.50529346  0.87002192  0.25057366  1
  O  O210  1  0.50608792  0.86395473  0.75614505  1
  O  O211  1  0.50004724  0.13248338  0.23767504  1
  O  O212  1  0.48548266  0.11931803  0.74361176  1
  O  O213  1  0.50426584  0.61594057  0.23211114  1
  O  O214  1  0.50334459  0.63807804  0.75290797  1
  O  O215  1  1.00901826  0.13518991  0.25485935  1
  O  O216  1  0.99806683  0.13425237  0.74830017  1
  O  O217  1  0.98801855  0.62008374  0.24446238  1
  O  O218  1  1.00907947  0.63338951  0.74348895  1
  O  O219  1  0.36532776  0.25633175  0.00494250  1
  O  O220  1  0.37004929  0.25645591  0.50613726  1
  O  O221  1  0.36614533  0.75970282  -0.00940034  1
  O  O222  1  0.37215800  0.75919514  0.51335163  1
  O  O223  1  0.87230608  0.25726065  0.00417201  1
  O  O224  1  0.86275215  0.25658274  0.50671881  1
  O  O225  1  0.86386470  0.75208391  0.00378750  1
  O  O226  1  0.87135521  0.75466953  0.51656048  1
  O  O227  1  0.14037444  0.25128540  0.50037499  1
  O  O228  1  0.13700426  0.24280796  1.00740590  1
  O  O229  1  0.12563498  0.73220968  0.49511906  1
  O  O230  1  0.13647025  0.74016790  0.98838482  1
  O  O231  1  0.61921287  0.23941314  0.48469263  1
  O  O232  1  0.63232098  0.24372794  0.99413405  1
  O  O233  1  0.62148552  0.74226709  0.48988100  1
  O  O234  1  0.63082606  0.74488752  0.99471074  1
  O  O235  1  0.49595645  0.24615191  0.12627660  1
  O  O236  1  0.49434788  0.24277592  0.63780074  1
  O  O237  1  0.50064874  0.73674023  0.12224538  1
  O  O238  1  0.49013265  0.75023316  0.63679829  1
  O  O239  1  0.99452155  0.25329130  0.13847860  1
  O  O240  1  0.99773291  0.24550725  0.63581791  1
  O  O241  1  0.98225129  0.74764973  0.12036470  1
  O  O242  1  0.98993906  0.73861977  0.63543482  1
  O  O243  1  0.00117272  0.25285895  0.36162398  1
  O  O244  1  -0.00446953  0.26190654  0.86513375  1
  O  O245  1  -0.00520579  0.76575785  0.38667334  1
  O  O246  1  0.00615836  0.75298529  0.86887942  1
  O  O247  1  0.50775473  0.25200501  0.36960019  1
  O  O248  1  0.50453892  0.26186435  0.88244870  1
  O  O249  1  0.50179332  0.74978907  0.37317695  1
  O  O250  1  0.50772364  0.75515347  0.87026252  1
  O  O251  1  0.25531705  0.13452329  0.49031270  1
  O  O252  1  0.24321888  0.13354768  0.99229335  1
  O  O253  1  0.23848231  0.61535529  0.49414257  1
  O  O254  1  0.24563358  0.63122741  0.99216009  1
  O  O255  1  0.74291171  0.15139000  0.52634642  1
  O  O256  1  0.74463659  0.13239519  0.98809293  1
  O  O257  1  0.73738866  0.62265035  0.50118570  1
  O  O258  1  0.73774539  0.63119519  1.00415342  1
  O  O259  1  0.25298350  0.37146429  0.00219352  1
  O  O260  1  0.26323990  0.36694775  0.49157865  1
  O  O261  1  0.25768004  0.86924264  0.00227291  1
  O  O262  1  0.26178528  0.87819556  0.49424513  1
  O  O263  1  0.75572359  0.37051113  0.00315546  1
  O  O264  1  0.71826760  0.35710359  0.51605475  1
  O  O265  1  0.75903767  0.86277568  -0.01079884  1
  O  O266  1  0.75911287  0.86768965  0.51344727  1
  O  O267  1  0.13432301  0.49503828  0.25030723  1
  O  O268  1  0.13522279  0.49309702  0.75608879  1
  O  O269  1  0.09806689  0.99183575  0.24758055  1
  O  O270  1  0.13798019  1.00020687  0.75428965  1
  O  O271  1  0.63494474  0.49415677  0.25184160  1
  O  O272  1  0.63244409  0.49693834  0.75707805  1
  O  O273  1  0.62100880  0.98670348  0.23791800  1
  O  O274  1  0.61622323  0.98172415  0.74306873  1
  O  O275  1  0.38127243  0.00182134  0.25902257  1
  O  O276  1  0.36455869  0.01029005  0.75161124  1
  O  O277  1  0.36430473  0.49074974  0.26212307  1
  O  O278  1  0.36761558  0.49480479  0.76491661  1
  O  O279  1  0.87797181  0.00318786  0.23127034  1
  O  O280  1  0.88471146  0.01180814  0.76030933  1
  O  O281  1  0.86917948  0.50703845  0.25717334  1
  O  O282  1  0.88128395  0.50514479  0.76645984  1
  O  O283  1  0.12490215  0.37132257  0.36453339  1
  O  O284  1  0.11195826  0.38131745  0.87302656  1
  O  O285  1  0.10653376  0.87040194  0.37663168  1
  O  O286  1  0.11540630  0.86664155  0.87913910  1
  O  O287  1  0.61717656  0.36711964  0.37022789  1
  O  O288  1  0.61188796  0.36998111  0.88114229  1
  O  O289  1  0.62417660  0.86196743  0.36472603  1
  O  O290  1  0.62058809  0.86527267  0.86934236  1
  O  O291  1  0.38160047  0.13200607  0.12221995  1
  O  O292  1  0.38275139  0.13474174  0.63266351  1
  O  O293  1  0.38984230  0.62226690  0.11856850  1
  O  O294  1  0.38264999  0.64274177  0.61753291  1
  O  O295  1  0.87765267  0.13836149  0.11033931  1
  O  O296  1  0.89188050  0.14197419  0.63779224  1
  O  O297  1  0.87994184  0.63171017  0.13176046  1
  O  O298  1  0.88425719  0.63340327  0.62208623  1
  O  O299  1  0.25701175  0.26024138  0.11523843  1
  O  O300  1  0.26113764  0.24217306  0.61344891  1
  O  O301  1  0.25143714  0.75779735  0.11082309  1
  O  O302  1  0.26173694  0.74248769  0.62651009  1
  O  O303  1  0.75986451  0.25584803  0.11718847  1
  O  O304  1  0.76296694  0.25995324  0.62319289  1
  O  O305  1  0.75660952  0.74387386  0.11198716  1
  O  O306  1  0.75737575  0.75584951  0.62981820  1
  O  O307  1  0.25207544  0.24021232  0.38094236  1
  O  O308  1  0.25597085  0.24414794  0.88607709  1
  O  O309  1  0.25736946  0.73067218  0.38803430  1
  O  O310  1  0.24449417  0.74485448  0.87927976  1
  O  O311  1  0.73681689  0.25370641  0.39339859  1
  O  O312  1  0.74547740  0.24717422  0.87783865  1
  O  O313  1  0.73802084  0.74362971  0.38227696  1
  O  O314  1  0.73721578  0.74875405  0.88384831  1
  O  O315  1  0.01927656  0.12929418  -0.00617985  1
  O  O316  1  0.00323040  0.12897347  0.51724192  1
  O  O317  1  0.01021193  0.62459199  0.00602760  1
  O  O318  1  0.00528598  0.61662670  0.50851543  1
  O  O319  1  0.50630626  0.12019966  0.00178365  1
  O  O320  1  0.49099522  0.12475928  0.51939033  1
  O  O321  1  0.50665597  0.61692457  0.00643730  1
  O  O322  1  0.50664530  0.61492564  0.49796230  1
  O  O323  1  0.49315961  0.38365819  0.49179635  1
  O  O324  1  0.49570574  0.38301652  0.99423704  1
  O  O325  1  0.48473073  0.87685631  0.50379017  1
  O  O326  1  0.49485526  0.87724039  0.99604833  1
  O  O327  1  1.00853750  0.38781094  0.50067790  1
  O  O328  1  0.99859035  0.38095962  0.99550719  1
  O  O329  1  0.98056073  0.87357463  0.51067457  1
  O  O330  1  0.97998417  0.85981599  0.98084819  1
  O  O331  1  0.49062680  0.49599671  0.38036108  1
  O  O332  1  0.49350885  0.49340551  0.88290994  1
  O  O333  1  0.48809414  1.01350614  0.37908363  1
  O  O334  1  0.50197503  0.99208150  0.88030563  1
  O  O335  1  0.99125061  0.49913015  0.38485184  1
  O  O336  1  0.99277483  0.49554274  0.88229167  1
  O  O337  1  0.99415102  0.98086248  0.39269104  1
  O  O338  1  0.99159504  0.99091672  0.88064750  1
  O  O339  1  0.00579311  -0.03996950  0.10205073  1
  O  O340  1  -0.00426833  0.01670314  0.62845002  1
  O  O341  1  0.00090745  0.51129480  0.11778995  1
  O  O342  1  -0.00923738  0.51030825  0.61810057  1
  O  O343  1  0.51019987  0.00518710  0.11569445  1
  O  O344  1  0.50319829  0.00514052  0.62561171  1
  O  O345  1  0.50143652  0.50119554  0.11179346  1
  O  O346  1  0.48905655  0.50193747  0.61034389  1
  O  O347  1  0.24133782  0.38347733  0.24615656  1
  O  O348  1  0.24028073  0.38610002  0.76044476  1
  O  O349  1  0.25585268  0.88485352  0.22716209  1
  O  O350  1  0.24958558  0.89346317  0.75844752  1
  O  O351  1  0.74621361  0.38814738  0.24270850  1
  O  O352  1  0.75483573  0.39263367  0.75180267  1
  O  O353  1  0.74166341  0.87323942  0.25098384  1
  O  O354  1  0.73651792  0.86484604  0.74549243  1
  O  O355  1  0.24300343  0.12497714  0.25396450  1
  O  O356  1  0.25564445  0.11974915  0.75655098  1
  O  O357  1  0.24381766  0.61347846  0.26078081  1
  O  O358  1  0.24040652  0.61861732  0.76493410  1
  O  O359  1  0.75522301  0.13671703  0.25362328  1
  O  O360  1  0.76863775  0.13274767  0.75035091  1
  O  O361  1  0.75781936  0.61115759  0.24751650  1
  O  O362  1  0.74565662  0.60654361  0.74942542  1
  O  O363  1  0.36601462  0.11980717  0.36791127  1
  O  O364  1  0.36579567  0.12597024  0.86738551  1
  O  O365  1  0.36524408  0.61030790  0.38636704  1
  O  O366  1  0.36651884  0.61682648  0.88204140  1
  O  O367  1  0.86336301  0.12877661  0.38690003  1
  O  O368  1  0.87272176  0.11998276  0.86817830  1
  O  O369  1  0.87278796  0.62179092  0.36534211  1
  O  O370  1  0.87942982  0.61329059  0.88258826  1
  O  O371  1  0.13160296  0.38026205  0.13432071  1
  O  O372  1  0.12479760  0.37811004  0.63904915  1
  O  O373  1  0.14299785  0.86900515  0.12079438  1
  O  O374  1  0.12681295  0.85718853  0.62717546  1
  O  O375  1  0.63373884  0.37589462  0.13167445  1
  O  O376  1  0.61048250  0.35990283  0.64029218  1
  O  O377  1  0.62174183  0.88152053  0.13477674  1
  O  O378  1  0.62856170  0.87328481  0.63359479  1
  O  O379  1  0.11209262  0.26065586  0.24969590  1
  O  O380  1  0.11740011  0.26052551  0.74899096  1
  O  O381  1  0.15352246  0.76557401  0.26409433  1
  O  O382  1  0.11674641  0.75166502  0.76364277  1
  O  O383  1  0.61993004  0.25577487  0.25944892  1
  O  O384  1  0.61618812  0.24693370  0.75605909  1
  O  O385  1  0.63010908  0.75610791  0.25917820  1
  O  O386  1  0.61713307  0.75461613  0.75853845  1
  O  O387  1  0.38112639  0.25033732  0.24130547  1
  O  O388  1  0.36369890  0.24084192  0.74087028  1
  O  O389  1  0.37909907  0.76564848  0.26490857  1
  O  O390  1  0.38033487  0.75651964  0.73913487  1
  O  O391  1  0.89243361  0.25063741  0.24074748  1
  O  O392  1  0.88846021  0.24719178  0.74685001  1
  O  O393  1  0.86105501  0.73862533  0.23995925  1
  O  O394  1  0.88550530  0.75211524  0.74460673  1
  O  O395  1  0.38022872  0.49103607  0.49222062  1
  O  O396  1  0.38242453  0.49490027  0.98997086  1
  O  O397  1  0.37665693  0.99200030  0.48981044  1
  O  O398  1  0.38406264  0.99158704  0.99455815  1
  O  O399  1  0.88393744  0.50726407  0.49077033  1
  O  O400  1  0.88029566  0.49584803  0.99256334  1
  O  O401  1  0.87007565  0.98417844  0.51178838  1
  O  O402  1  0.87386215  0.99063671  0.98736230  1
  O  O403  1  0.12929360  0.01757419  -0.00583427  1
  O  O404  1  0.13131397  -0.00116890  0.50397761  1
  O  O405  1  0.12229413  0.51482900  0.00007416  1
  O  O406  1  0.11292211  0.50958684  0.49541253  1
  O  O407  1  0.62094329  0.00298387  0.00405748  1
  O  O408  1  0.61903392  -0.01487692  0.51716427  1
  O  O409  1  0.61701271  0.50718994  -0.00320404  1
  O  O410  1  0.61297614  0.50672967  0.49112384  1
  O  O411  1  0.36954308  0.37237481  0.11789473  1
  O  O412  1  0.38174544  0.36243659  0.61427200  1
  O  O413  1  0.36637065  0.88010943  0.10931040  1
  O  O414  1  0.37299093  0.86434031  0.61812748  1
  O  O415  1  0.87114949  0.36844968  0.11752786  1
  O  O416  1  0.88298068  0.36479359  0.63038218  1
  O  O417  1  0.86959536  0.86136533  0.10878433  1
  O  O418  1  0.86661025  0.86643305  0.62425777  1
  O  O419  1  0.13595250  0.12727454  0.38436077  1
  O  O420  1  0.13694347  0.12779565  0.88215795  1
  O  O421  1  0.13154395  0.62426018  0.38316102  1
  O  O422  1  0.13275834  0.63282414  0.88341227  1
  O  O423  1  0.62209676  0.13479942  0.36943582  1
  O  O424  1  0.63014953  0.13043619  0.87648046  1
  O  O425  1  0.62449402  0.63414388  0.38287761  1
  O  O426  1  0.61512451  0.63598027  0.88929825  1
