# generated using pymatgen
data_V85Zn86O256
_symmetry_space_group_name_H-M   'P 1'
_cell_length_a   16.99027637
_cell_length_b   16.99554794
_cell_length_c   16.99564673
_cell_angle_alpha   90.02634588
_cell_angle_beta   89.93026785
_cell_angle_gamma   90.07212459
_symmetry_Int_Tables_number   1
_chemical_formula_structural   V85Zn86O256
_chemical_formula_sum   'V85 Zn86 O256'
_cell_volume   4907.63888023
_cell_formula_units_Z   1
loop_
 _symmetry_equiv_pos_site_id
 _symmetry_equiv_pos_as_xyz
  1  'x, y, z'
loop_
 _atom_site_type_symbol
 _atom_site_label
 _atom_site_symmetry_multiplicity
 _atom_site_fract_x
 _atom_site_fract_y
 _atom_site_fract_z
 _atom_site_occupancy
  V  V0  1  0.38696890  0.75082374  0.62718644  1
  V  V1  1  0.62846864  0.49811737  0.62907354  1
  V  V2  1  0.74898556  0.49423235  0.24405905  1
  V  V3  1  0.87448580  0.49856370  0.37651653  1
  V  V4  1  0.24869420  0.87448397  0.62404595  1
  V  V5  1  0.00098258  -0.00235442  0.49686486  1
  V  V6  1  0.13052672  0.74418685  0.88618522  1
  V  V7  1  -0.00018466  0.62716423  0.62597631  1
  V  V8  1  0.37731543  0.25245232  0.62908975  1
  V  V9  1  0.87487106  0.62311579  0.24902272  1
  V  V10  1  0.61885851  0.75070409  0.86213499  1
  V  V11  1  0.13004049  0.74403125  0.37320121  1
  V  V12  1  0.12422781  0.37732411  0.24860864  1
  V  V13  1  0.12354613  0.36340833  0.75131132  1
  V  V14  1  0.37923273  0.37444278  0.49749371  1
  V  V15  1  0.75900581  0.12444521  0.36713269  1
  V  V16  1  0.50099526  0.87075816  0.86100216  1
  V  V17  1  0.87073906  0.49773072  0.87357732  1
  V  V18  1  0.74967579  0.62738662  0.37730561  1
  V  V19  1  0.87018924  0.86582613  0.50129876  1
  V  V20  1  0.00245475  0.37191433  0.37556126  1
  V  V21  1  -0.02143250  0.12583200  0.62888505  1
  V  V22  1  0.62065547  0.25917195  0.37732626  1
  V  V23  1  0.24809968  0.49975793  0.74959511  1
  V  V24  1  0.12745636  0.87370765  0.24938051  1
  V  V25  1  0.12796921  0.62348328  0.49735462  1
  V  V26  1  0.49761482  0.37130120  0.87033608  1
  V  V27  1  0.62679130  0.62423460  0.50045605  1
  V  V28  1  0.24487245  0.24588575  0.49137524  1
  V  V29  1  0.62506367  0.75017828  0.37469284  1
  V  V30  1  0.12506091  0.13258779  -0.01251700  1
  V  V31  1  0.37297040  0.74924942  0.12170526  1
  V  V32  1  0.62419590  0.12443911  0.50120264  1
  V  V33  1  0.37253333  0.37168114  0.00667667  1
  V  V34  1  0.00018873  0.49791248  0.50009009  1
  V  V35  1  0.00028054  0.24984786  0.24894789  1
  V  V36  1  -0.00683839  0.12306715  0.12806495  1
  V  V37  1  -0.00034977  0.87268849  0.87449989  1
  V  V38  1  0.36973994  0.01653109  0.37185096  1
  V  V39  1  0.74512098  0.25369509  0.00572115  1
  V  V40  1  -0.00113764  -0.00152911  -0.00284871  1
  V  V41  1  0.00282353  0.74732210  0.24804910  1
  V  V42  1  0.36783490  0.50591006  0.37551666  1
  V  V43  1  0.87136767  0.37331810  0.00645618  1
  V  V44  1  0.50063864  0.75206369  0.24971499  1
  V  V45  1  0.49816233  -0.00001805  0.00155236  1
  V  V46  1  0.00576925  0.50093538  -0.00008870  1
  V  V47  1  0.62454520  0.00051547  0.13238531  1
  V  V48  1  0.62865552  0.37718596  0.75256534  1
  V  V49  1  0.62410445  0.62651440  0.00120731  1
  V  V50  1  0.25043632  0.87297350  0.12184536  1
  V  V51  1  0.37768317  0.87719776  0.49582510  1
  V  V52  1  0.00143190  0.87193987  0.37347042  1
  V  V53  1  0.86864625  0.24626327  0.12925708  1
  V  V54  1  0.61797352  0.12797411  0.00447839  1
  V  V55  1  0.24787731  0.62680366  0.88789357  1
  V  V56  1  0.49859348  0.62441013  0.12601457  1
  V  V57  1  0.62399484  0.37645400  0.24605045  1
  V  V58  1  0.12499487  0.49885157  0.62666310  1
  V  V59  1  0.37175287  0.87173307  -0.00232635  1
  V  V60  1  0.12547844  0.00687517  0.62368522  1
  V  V61  1  0.37718229  0.12912395  0.75258616  1
  V  V62  1  0.74860226  0.62194636  0.87176108  1
  V  V63  1  0.50067962  0.12551207  0.62678552  1
  V  V64  1  0.76073921  0.24978332  0.50420101  1
  V  V65  1  0.61982070  0.24968346  0.87362955  1
  V  V66  1  0.00697569  0.62270744  0.11956103  1
  V  V67  1  0.49855255  0.49894219  0.00244185  1
  V  V68  1  0.87387500  0.74884129  0.12082299  1
  V  V69  1  0.37874874  0.63032850  0.74973317  1
  V  V70  1  0.87578125  0.62106935  0.75033774  1
  V  V71  1  0.49955976  0.00142320  0.49995763  1
  V  V72  1  0.49101875  0.25083530  0.25167368  1
  V  V73  1  0.75013726  0.87598573  0.12926883  1
  V  V74  1  0.12610465  0.00185443  0.12433824  1
  V  V75  1  -0.01835859  0.24527140  0.74819299  1
  V  V76  1  0.37328023  0.50034927  0.87473275  1
  V  V77  1  0.50271754  0.49426531  0.49495177  1
  V  V78  1  0.24955246  0.00552786  0.75107728  1
  V  V79  1  0.24573589  0.24868539  -0.01149949  1
  V  V80  1  0.00230100  0.36552397  0.87507670  1
  V  V81  1  0.25238300  0.01487475  0.25204880  1
  V  V82  1  0.25147024  0.74431805  0.49507682  1
  V  V83  1  0.37082188  0.00294711  0.87434538  1
  V  V84  1  0.75565276  0.37094155  0.62779842  1
  Zn  Zn85  1  0.48726529  0.11818936  0.13782932  1
  Zn  Zn86  1  0.87088304  0.00493221  0.86093933  1
  Zn  Zn87  1  0.50555685  0.62829747  0.63132169  1
  Zn  Zn88  1  0.36657523  0.63490555  0.26367929  1
  Zn  Zn89  1  0.81065950  0.06149405  0.19618469  1
  Zn  Zn90  1  0.13708255  0.12316639  0.47811294  1
  Zn  Zn91  1  0.75528452  0.12192548  0.86649935  1
  Zn  Zn92  1  0.00559281  0.74915049  0.75012233  1
  Zn  Zn93  1  0.24567906  0.37462215  0.12606173  1
  Zn  Zn94  1  0.74834957  0.75164770  -0.00237089  1
  Zn  Zn95  1  0.87860166  0.36996387  0.50578872  1
  Zn  Zn96  1  0.62842751  0.49611377  0.12334229  1
  Zn  Zn97  1  0.36312124  0.23791635  0.13318467  1
  Zn  Zn98  1  0.86715708  0.75159743  0.62892229  1
  Zn  Zn99  1  0.13131842  0.50329019  0.12064837  1
  Zn  Zn100  1  0.24423071  0.50812959  0.25107678  1
  Zn  Zn101  1  0.62843565  0.88104973  0.25332554  1
  Zn  Zn102  1  0.87258710  0.87460049  -0.00106525  1
  Zn  Zn103  1  0.87084378  -0.00627832  0.36360642  1
  Zn  Zn104  1  0.24912537  0.37394715  0.62586240  1
  Zn  Zn105  1  0.12531275  0.87222856  0.75011878  1
  Zn  Zn106  1  0.50122952  0.87938137  0.37305827  1
  Zn  Zn107  1  0.18100478  0.19240896  0.17777397  1
  Zn  Zn108  1  0.18929114  0.18804346  0.68270709  1
  Zn  Zn109  1  0.19189663  0.68519094  0.18716427  1
  Zn  Zn110  1  0.18925149  0.68787373  0.69217490  1
  Zn  Zn111  1  0.67889362  0.19227217  0.18793477  1
  Zn  Zn112  1  0.68218845  0.19080687  0.68735108  1
  Zn  Zn113  1  0.68851733  0.68534076  0.18873310  1
  Zn  Zn114  1  0.68993224  0.68289103  0.68995821  1
  Zn  Zn115  1  0.31001962  0.31936236  0.31758865  1
  Zn  Zn116  1  0.31038410  0.31240561  0.81354121  1
  Zn  Zn117  1  0.31225524  0.81968879  0.31062804  1
  Zn  Zn118  1  0.31028609  0.81238509  0.81140533  1
  Zn  Zn119  1  0.81254584  0.31218358  0.31590816  1
  Zn  Zn120  1  0.80703016  0.31211733  0.81795008  1
  Zn  Zn121  1  0.81449489  0.81212137  0.31013474  1
  Zn  Zn122  1  0.81504863  0.80604856  0.81385756  1
  Zn  Zn123  1  0.18845030  0.43156173  0.43985169  1
  Zn  Zn124  1  0.18836664  0.43530393  0.93392379  1
  Zn  Zn125  1  0.18891505  0.93613814  0.43418978  1
  Zn  Zn126  1  0.18420670  0.93732632  0.93710111  1
  Zn  Zn127  1  0.69141378  0.43667503  0.43856790  1
  Zn  Zn128  1  0.68653137  0.43765569  0.93973030  1
  Zn  Zn129  1  0.68597052  0.94268653  0.43299352  1
  Zn  Zn130  1  0.68404106  0.93272736  0.93423228  1
  Zn  Zn131  1  0.30846272  0.06367701  0.06129923  1
  Zn  Zn132  1  0.31364025  0.06561290  0.56232196  1
  Zn  Zn133  1  0.31253043  0.55878847  0.06833042  1
  Zn  Zn134  1  0.31378239  0.56244036  0.56552646  1
  Zn  Zn135  1  0.78913809  0.04154487  0.02074517  1
  Zn  Zn136  1  0.81914388  0.06356577  0.54518224  1
  Zn  Zn137  1  0.81450692  0.56314863  0.05979395  1
  Zn  Zn138  1  0.81238816  0.55821268  0.56370702  1
  Zn  Zn139  1  0.44180023  0.43398584  0.19267403  1
  Zn  Zn140  1  0.44016893  0.44045460  0.68684355  1
  Zn  Zn141  1  0.43588402  0.93863530  0.19046435  1
  Zn  Zn142  1  0.43592863  0.94041975  0.68309877  1
  Zn  Zn143  1  0.93737642  0.43766833  0.18736131  1
  Zn  Zn144  1  0.93964741  0.43801064  0.69006219  1
  Zn  Zn145  1  0.94028947  0.93330545  0.18583838  1
  Zn  Zn146  1  0.93807883  0.93274411  0.68562141  1
  Zn  Zn147  1  0.06511832  0.06080418  0.30971099  1
  Zn  Zn148  1  0.05919371  0.06125225  0.80888848  1
  Zn  Zn149  1  0.06244171  0.56122464  0.31231943  1
  Zn  Zn150  1  0.06312601  0.55930474  0.81444887  1
  Zn  Zn151  1  0.56132177  0.06930187  0.31786534  1
  Zn  Zn152  1  0.55819482  0.06401218  0.81702939  1
  Zn  Zn153  1  0.55845808  0.56198455  0.31173977  1
  Zn  Zn154  1  0.56085972  0.55982545  0.81421952  1
  Zn  Zn155  1  0.43737222  0.19299555  0.43799628  1
  Zn  Zn156  1  0.43427297  0.18764128  0.94196297  1
  Zn  Zn157  1  0.44276762  0.68722548  0.44321314  1
  Zn  Zn158  1  0.43761530  0.68774925  0.93626590  1
  Zn  Zn159  1  0.96469277  0.16940276  0.42083429  1
  Zn  Zn160  1  0.93150691  0.18233500  0.93599535  1
  Zn  Zn161  1  0.94074442  0.68597549  0.43647800  1
  Zn  Zn162  1  0.94152922  0.68689287  0.93635965  1
  Zn  Zn163  1  0.05981208  0.31240421  0.06419345  1
  Zn  Zn164  1  0.06059118  0.30845666  0.56619573  1
  Zn  Zn165  1  0.06437933  0.81100007  0.06173952  1
  Zn  Zn166  1  0.06373718  0.81166434  0.56072580  1
  Zn  Zn167  1  0.55667639  0.31411808  0.06862435  1
  Zn  Zn168  1  0.56409030  0.31091534  0.56490118  1
  Zn  Zn169  1  0.56125834  0.81504333  0.05818889  1
  Zn  Zn170  1  0.71219458  0.78900473  0.53877202  1
  O  O171  1  0.11149485  0.11958613  0.11458752  1
  O  O172  1  0.12412954  0.11136096  0.62072178  1
  O  O173  1  0.10998256  0.62534206  0.12730401  1
  O  O174  1  0.11744139  0.61950433  0.62041556  1
  O  O175  1  0.62005763  0.11883003  0.11856540  1
  O  O176  1  0.61252309  0.13555054  0.61110007  1
  O  O177  1  0.61856175  0.62464534  0.11598495  1
  O  O178  1  0.62697232  0.61549120  0.61824673  1
  O  O179  1  0.37528245  0.38595540  0.39197608  1
  O  O180  1  0.38137265  0.37907567  0.88121240  1
  O  O181  1  0.37675924  0.88157668  0.38593245  1
  O  O182  1  0.37918274  0.87992135  0.88049659  1
  O  O183  1  0.88273932  0.38280962  0.37823871  1
  O  O184  1  0.88039765  0.38040034  0.88313082  1
  O  O185  1  0.88272195  0.87195609  0.38193294  1
  O  O186  1  0.89154768  0.86645338  0.88295091  1
  O  O187  1  0.25615764  -0.00300704  0.36488265  1
  O  O188  1  0.26017912  -0.00896384  0.86388630  1
  O  O189  1  0.26484222  0.49628374  0.37905173  1
  O  O190  1  0.25354750  0.50747446  0.86931827  1
  O  O191  1  0.74936736  0.02033526  0.37740307  1
  O  O192  1  0.76206689  0.00877713  0.91088169  1
  O  O193  1  0.75400587  0.50928878  0.36778044  1
  O  O194  1  0.76146180  0.50701376  0.88300944  1
  O  O195  1  0.24735158  0.49189028  0.13052996  1
  O  O196  1  0.24296399  0.49793882  0.63158152  1
  O  O197  1  0.24575011  0.99093016  0.13148684  1
  O  O198  1  0.24543351  0.99324344  0.62864670  1
  O  O199  1  0.74969668  0.50862713  0.13953441  1
  O  O200  1  0.73503304  0.48853876  0.61794583  1
  O  O201  1  0.74376242  0.99641907  0.12109950  1
  O  O202  1  0.75538881  1.00691988  0.63626638  1
  O  O203  1  0.00402468  0.37083530  0.25587803  1
  O  O204  1  0.00341241  0.36503343  0.75532526  1
  O  O205  1  0.00901948  0.86612471  0.25222278  1
  O  O206  1  0.00314208  0.87298363  0.76040695  1
  O  O207  1  0.51213569  0.36432354  0.25331107  1
  O  O208  1  0.50796768  0.37964143  0.76343524  1
  O  O209  1  0.50412800  0.86330191  0.25125805  1
  O  O210  1  0.49392974  0.88331230  0.76205471  1
  O  O211  1  0.50600547  0.14532339  0.25259641  1
  O  O212  1  0.48810591  0.11670532  0.73918405  1
  O  O213  1  0.49326873  0.63560468  0.24569511  1
  O  O214  1  0.48338821  0.61771841  0.75081113  1
  O  O215  1  1.00392148  0.13422395  0.23458631  1
  O  O216  1  1.00221104  0.13012110  0.73673506  1
  O  O217  1  0.99374144  0.62787672  0.24087319  1
  O  O218  1  0.99395464  0.62111635  0.74129458  1
  O  O219  1  0.36529443  0.25874087  -0.00066772  1
  O  O220  1  0.36947605  0.25723269  0.50778043  1
  O  O221  1  0.38043026  0.76117671  0.00958265  1
  O  O222  1  0.36977093  0.75726960  0.50581875  1
  O  O223  1  0.86541197  0.25474451  0.00738663  1
  O  O224  1  0.86133060  0.24843084  0.49781077  1
  O  O225  1  0.87503386  0.74767270  0.01182704  1
  O  O226  1  0.87725823  0.76174077  0.49714336  1
  O  O227  1  0.14270596  0.25112324  0.50987246  1
  O  O228  1  0.12631530  0.23891112  1.00249598  1
  O  O229  1  0.13373459  0.74515533  0.49466999  1
  O  O230  1  0.12480638  0.75021097  0.98574765  1
  O  O231  1  0.62963678  0.24408176  0.49329649  1
  O  O232  1  0.62672905  0.24920475  0.99801006  1
  O  O233  1  0.62585215  0.73760367  0.48707897  1
  O  O234  1  0.62317028  0.73661526  0.99336901  1
  O  O235  1  0.49649196  0.24936524  0.14240995  1
  O  O236  1  0.48762041  0.23933175  0.61927562  1
  O  O237  1  0.49315674  0.74728275  0.13127063  1
  O  O238  1  0.48552686  0.74913601  0.62233647  1
  O  O239  1  0.98821404  0.24160647  0.12775299  1
  O  O240  1  0.99658617  0.23251865  0.62944198  1
  O  O241  1  0.99383815  0.74291027  0.12739906  1
  O  O242  1  0.99804615  0.73592440  0.62392598  1
  O  O243  1  -0.01640920  0.26506686  0.35994640  1
  O  O244  1  -0.00701300  0.26022830  0.86796174  1
  O  O245  1  0.00779348  0.75255678  0.36708639  1
  O  O246  1  0.01324107  0.75372875  0.87484500  1
  O  O247  1  0.51088667  0.24786131  0.36774992  1
  O  O248  1  0.50721211  0.26174061  0.88434235  1
  O  O249  1  0.50822749  0.74998473  0.36776016  1
  O  O250  1  0.50566073  0.75929123  0.87921595  1
  O  O251  1  0.25026692  0.13898413  0.50316989  1
  O  O252  1  0.23115344  0.13016651  1.00267953  1
  O  O253  1  0.24487901  0.63774942  0.50878735  1
  O  O254  1  0.25496542  0.61881910  0.98656175  1
  O  O255  1  0.74152170  0.13159429  0.49448865  1
  O  O256  1  0.73226901  0.14119920  1.00115021  1
  O  O257  1  0.73969305  0.61670213  0.48915510  1
  O  O258  1  0.74155497  0.62502974  0.99038330  1
  O  O259  1  0.25766609  0.36859044  -0.00259116  1
  O  O260  1  0.25993363  0.36538847  0.50630012  1
  O  O261  1  0.25989288  0.88358180  0.01001892  1
  O  O262  1  0.25827653  0.87001879  0.50726681  1
  O  O263  1  0.75858112  0.36504391  -0.00526349  1
  O  O264  1  0.75084772  0.36620808  0.50943659  1
  O  O265  1  0.75181029  0.87021585  0.01507656  1
  O  O266  1  0.76394404  0.87976744  0.49214574  1
  O  O267  1  0.12237106  0.48998515  0.24690681  1
  O  O268  1  0.12805936  0.49101249  0.74562234  1
  O  O269  1  0.13134519  0.99293231  0.24480143  1
  O  O270  1  0.13423400  0.99830956  0.74197889  1
  O  O271  1  0.63050065  0.49367309  0.25146470  1
  O  O272  1  0.62004557  0.49044499  0.74160999  1
  O  O273  1  0.61774670  1.00237767  0.23693649  1
  O  O274  1  0.65437908  1.03880008  0.75735131  1
  O  O275  1  0.36498895  -0.00528897  0.26021207  1
  O  O276  1  0.36772375  0.00779327  0.75481842  1
  O  O277  1  0.38013919  0.49441430  0.27116785  1
  O  O278  1  0.36841009  0.50571429  0.75511116  1
  O  O279  1  0.88383054  0.00104705  0.25252112  1
  O  O280  1  0.84398320  -0.03977637  0.75245753  1
  O  O281  1  0.86798841  0.50328926  0.25542919  1
  O  O282  1  0.88175430  0.50797352  0.76388597  1
  O  O283  1  0.11028304  0.37994960  0.36726016  1
  O  O284  1  0.11104374  0.38061389  0.86395780  1
  O  O285  1  0.12128619  0.86568737  0.36890314  1
  O  O286  1  0.11967489  0.86402024  0.87401613  1
  O  O287  1  0.63146817  0.36518920  0.36921804  1
  O  O288  1  0.61823328  0.37115151  0.87161243  1
  O  O289  1  0.62447400  0.86426368  0.37354853  1
  O  O290  1  0.61337529  0.86305662  0.88162560  1
  O  O291  1  0.37703914  0.12692880  0.11927794  1
  O  O292  1  0.38146403  0.13219190  0.63234869  1
  O  O293  1  0.38110813  0.63795697  0.12057409  1
  O  O294  1  0.37604612  0.63314893  0.63288239  1
  O  O295  1  0.87988527  0.13259300  0.12247281  1
  O  O296  1  0.88044482  0.11322927  0.63120489  1
  O  O297  1  0.88211429  0.63185509  0.12907733  1
  O  O298  1  0.88227268  0.61942670  0.63394758  1
  O  O299  1  0.24896165  0.25727789  0.11170356  1
  O  O300  1  0.26466467  0.25162393  0.61902359  1
  O  O301  1  0.26044869  0.76287110  0.12951321  1
  O  O302  1  0.25341230  0.76062649  0.61541885  1
  O  O303  1  0.75637594  0.24616842  0.11744349  1
  O  O304  1  0.74148625  0.25975960  0.61767582  1
  O  O305  1  0.75886825  0.75359173  0.12468519  1
  O  O306  1  0.75395507  0.75093464  0.63093341  1
  O  O307  1  0.25418263  0.25412876  0.39255930  1
  O  O308  1  0.24964579  0.25083466  0.88818567  1
  O  O309  1  0.24720838  0.75876910  0.38791373  1
  O  O310  1  0.23890006  0.74354759  0.87229859  1
  O  O311  1  0.74300295  0.24234440  0.38358573  1
  O  O312  1  0.73651601  0.24748033  0.88551344  1
  O  O313  1  0.74009746  0.73742038  0.36577849  1
  O  O314  1  0.74060389  0.74051016  0.87710765  1
  O  O315  1  0.00644556  0.11999785  0.00729751  1
  O  O316  1  -0.00906024  0.11051566  0.51935354  1
  O  O317  1  -0.00774822  0.61214812  0.00766076  1
  O  O318  1  0.00539482  0.61832748  0.50818408  1
  O  O319  1  0.50667296  0.11993260  0.00294305  1
  O  O320  1  0.50443445  0.12051425  0.50489001  1
  O  O321  1  0.50641028  0.61900585  0.00352814  1
  O  O322  1  0.51404213  0.61639035  0.50456829  1
  O  O323  1  0.49216752  0.38307851  0.50865836  1
  O  O324  1  0.49189012  0.37891753  0.99300657  1
  O  O325  1  0.48656891  0.88964495  0.50038312  1
  O  O326  1  0.48770084  0.88146339  0.99361423  1
  O  O327  1  0.99915653  0.37692109  0.49349585  1
  O  O328  1  0.99064622  0.37779866  0.99195821  1
  O  O329  1  0.99493570  0.88027482  0.49420832  1
  O  O330  1  1.00610998  0.88410203  0.99266533  1
  O  O331  1  0.49373275  0.50232776  0.38996200  1
  O  O332  1  0.49379592  0.49074413  0.88268819  1
  O  O333  1  0.49046630  1.00092358  0.38259816  1
  O  O334  1  0.49093289  0.99116377  0.88031511  1
  O  O335  1  0.99380864  0.49203310  0.38028993  1
  O  O336  1  0.99010144  0.49146904  0.88203389  1
  O  O337  1  1.00150105  0.98841358  0.38419163  1
  O  O338  1  0.99786142  0.98997990  0.87952031  1
  O  O339  1  0.00719773  0.00471251  0.11762461  1
  O  O340  1  0.00590523  0.00594684  0.62192308  1
  O  O341  1  -0.00373097  0.50797212  0.11582612  1
  O  O342  1  0.00472913  0.50746017  0.62044320  1
  O  O343  1  0.50692219  -0.00210329  0.11960864  1
  O  O344  1  0.49031854  0.01316712  0.61139001  1
  O  O345  1  0.49987814  0.50670503  0.12033517  1
  O  O346  1  0.51222707  0.50173316  0.61605145  1
  O  O347  1  0.23426522  0.37548767  0.25272607  1
  O  O348  1  0.23956081  0.37984377  0.75106465  1
  O  O349  1  0.24510549  0.88246978  0.23877165  1
  O  O350  1  0.25293085  0.88604081  0.73738953  1
  O  O351  1  0.74201595  0.38630687  0.25789323  1
  O  O352  1  0.73756020  0.37074334  0.74460967  1
  O  O353  1  0.74727170  0.87078578  0.23515182  1
  O  O354  1  0.78688120  0.90123830  0.75372670  1
  O  O355  1  0.23824758  0.11284340  0.24121492  1
  O  O356  1  0.26001596  0.11301236  0.74212549  1
  O  O357  1  0.25659395  0.62126435  0.24929392  1
  O  O358  1  0.25922680  0.61788849  0.75751039  1
  O  O359  1  0.74736394  0.13372937  0.26261285  1
  O  O360  1  0.71018288  0.09995986  0.75672654  1
  O  O361  1  0.75409496  0.61644003  0.25942511  1
  O  O362  1  0.75998756  0.62273632  0.76406083  1
  O  O363  1  0.37615800  0.11516097  0.37998185  1
  O  O364  1  0.38330716  0.11280229  0.86682519  1
  O  O365  1  0.37996154  0.61027869  0.38217706  1
  O  O366  1  0.36780249  0.62177224  0.86927363  1
  O  O367  1  0.86064884  0.12766971  0.38125822  1
  O  O368  1  0.87047493  0.12012715  0.86787776  1
  O  O369  1  0.86836013  0.62078700  0.37017505  1
  O  O370  1  0.86952717  0.61745896  0.87145692  1
  O  O371  1  0.11928346  0.37942761  0.13578519  1
  O  O372  1  0.12247264  0.38130737  0.63567512  1
  O  O373  1  0.13316072  0.87928293  0.12759239  1
  O  O374  1  0.13347827  0.88523685  0.62296769  1
  O  O375  1  0.62399745  0.37750683  0.13895645  1
  O  O376  1  0.62944781  0.37873788  0.63483742  1
  O  O377  1  0.63203463  0.88384428  0.12352990  1
  O  O378  1  0.70414847  0.95432217  0.63757453  1
  O  O379  1  0.10752953  0.26048003  0.24127018  1
  O  O380  1  0.11749165  0.25977603  0.74182571  1
  O  O381  1  0.12207508  0.75423985  0.25312000  1
  O  O382  1  0.12424163  0.75390232  0.75940332  1
  O  O383  1  0.61951059  0.26002397  0.25866703  1
  O  O384  1  0.62507574  0.26026532  0.76463912  1
  O  O385  1  0.61584327  0.74716045  0.25787012  1
  O  O386  1  0.62218870  0.73901910  0.76366131  1
  O  O387  1  0.38830629  0.26303429  0.25491322  1
  O  O388  1  0.36815507  0.23896470  0.74415664  1
  O  O389  1  0.38337654  0.75478793  0.24099951  1
  O  O390  1  0.36503476  0.74058042  0.74005663  1
  O  O391  1  0.88234659  0.25983136  0.23635473  1
  O  O392  1  0.88264334  0.25414729  0.75139569  1
  O  O393  1  0.88193996  0.74335528  0.24016306  1
  O  O394  1  0.88272262  0.73225218  0.75112796  1
  O  O395  1  0.38214442  0.49461681  0.49739596  1
  O  O396  1  0.37873203  0.49065645  0.99412338  1
  O  O397  1  0.37723366  0.99602476  0.49242338  1
  O  O398  1  0.37635541  0.99232841  0.99044648  1
  O  O399  1  0.88279470  0.49805105  0.49405525  1
  O  O400  1  0.88137326  0.49075824  0.99363612  1
  O  O401  1  0.88562926  0.98698397  0.49133289  1
  O  O402  1  0.89484863  0.99606583  1.00683237  1
  O  O403  1  0.11749885  0.01015037  0.00278106  1
  O  O404  1  0.11699193  -0.00102404  0.50567805  1
  O  O405  1  0.10894252  0.49026412  -0.00036451  1
  O  O406  1  0.12022555  0.50297693  0.50577878  1
  O  O407  1  0.61778995  0.00978946  0.00962665  1
  O  O408  1  0.61243471  0.01273295  0.49111950  1
  O  O409  1  0.61939661  0.50946711  0.00129595  1
  O  O410  1  0.61983209  0.50367828  0.50519612  1
  O  O411  1  0.37731771  0.37348055  0.11240408  1
  O  O412  1  0.37622610  0.36781211  0.62053467  1
  O  O413  1  0.36952455  0.87008062  0.11710182  1
  O  O414  1  0.36722940  0.87099738  0.61649230  1
  O  O415  1  0.88161631  0.36577750  0.11211736  1
  O  O416  1  0.85987326  0.38462370  0.62680511  1
  O  O417  1  0.86986854  0.86361564  0.12335990  1
  O  O418  1  0.88334620  0.87163926  0.60437604  1
  O  O419  1  0.07389975  0.13661711  0.38893209  1
  O  O420  1  0.11505262  0.12238153  0.88921389  1
  O  O421  1  0.11748268  0.63171233  0.38445045  1
  O  O422  1  0.13189913  0.63555327  0.87035565  1
  O  O423  1  0.63407939  0.13629776  0.38422770  1
  O  O424  1  0.61600123  0.13781316  0.88947752  1
  O  O425  1  0.63032684  0.62930045  0.38059702  1
  O  O426  1  0.62968951  0.62730381  0.88133876  1
