# generated using pymatgen
data_V85Zn86O256
_symmetry_space_group_name_H-M   'P 1'
_cell_length_a   16.96231712
_cell_length_b   16.97093675
_cell_length_c   16.98850275
_cell_angle_alpha   90.02355589
_cell_angle_beta   89.95043381
_cell_angle_gamma   89.89684975
_symmetry_Int_Tables_number   1
_chemical_formula_structural   V85Zn86O256
_chemical_formula_sum   'V85 Zn86 O256'
_cell_volume   4890.40914403
_cell_formula_units_Z   1
loop_
 _symmetry_equiv_pos_site_id
 _symmetry_equiv_pos_as_xyz
  1  'x, y, z'
loop_
 _atom_site_type_symbol
 _atom_site_label
 _atom_site_symmetry_multiplicity
 _atom_site_fract_x
 _atom_site_fract_y
 _atom_site_fract_z
 _atom_site_occupancy
  V  V0  1  0.86379746  0.50248876  0.38131056  1
  V  V1  1  0.74697781  0.50837528  0.24373738  1
  V  V2  1  0.25083412  0.24900094  0.00017799  1
  V  V3  1  0.62432328  -0.00044178  0.63017987  1
  V  V4  1  0.87494043  0.62329781  0.75007613  1
  V  V5  1  0.74547914  0.74107753  0.49118137  1
  V  V6  1  0.00100139  0.75287085  0.75269997  1
  V  V7  1  0.24670904  0.87829102  0.12543994  1
  V  V8  1  0.63287757  0.12505136  -0.00388304  1
  V  V9  1  0.12280569  0.11477149  0.00128187  1
  V  V10  1  0.37711292  0.37528320  0.00007997  1
  V  V11  1  0.25282932  0.37627102  0.62458619  1
  V  V12  1  0.62254262  0.87670210  0.25015217  1
  V  V13  1  0.62215145  0.74761120  0.87137104  1
  V  V14  1  0.87450865  0.87485943  0.50060663  1
  V  V15  1  0.25213289  0.62392323  0.37484365  1
  V  V16  1  0.24591138  0.00307676  0.24996134  1
  V  V17  1  0.00021684  0.49460207  0.49136255  1
  V  V18  1  0.49659566  0.62444129  0.12295813  1
  V  V19  1  0.49748466  0.12817769  0.63281880  1
  V  V20  1  0.74766630  0.62292517  0.87299122  1
  V  V21  1  -0.00835906  0.24189491  0.74697087  1
  V  V22  1  0.01810511  0.27484150  0.24704653  1
  V  V23  1  0.37536170  0.25185162  0.12558656  1
  V  V24  1  0.12695910  0.61596811  0.50328036  1
  V  V25  1  0.75355489  0.87383182  0.12179397  1
  V  V26  1  0.50120496  0.37038244  0.87111061  1
  V  V27  1  -0.00114294  0.74913195  0.25000600  1
  V  V28  1  0.25645284  0.12420519  0.87108994  1
  V  V29  1  0.12405285  0.49904668  0.13113920  1
  V  V30  1  0.12470998  0.88322441  0.24937651  1
  V  V31  1  0.49473671  0.75160857  0.24332826  1
  V  V32  1  0.62042265  0.49665735  0.61634245  1
  V  V33  1  0.37395432  0.87440033  0.00403565  1
  V  V34  1  0.38112983  0.49981511  0.38262479  1
  V  V35  1  0.25153279  0.62552389  0.87416087  1
  V  V36  1  0.01148400  -0.00069306  0.52451775  1
  V  V37  1  -0.01464010  -0.00885595  -0.01266718  1
  V  V38  1  0.37419166  0.49963001  0.87176828  1
  V  V39  1  0.24704593  0.88195789  0.62248767  1
  V  V40  1  0.49895628  0.12498852  0.12492101  1
  V  V41  1  -0.00068655  0.87971467  0.37843717  1
  V  V42  1  0.12561228  0.74927699  0.37543802  1
  V  V43  1  0.49968373  0.00016967  -0.00027448  1
  V  V44  1  0.12217022  0.75624460  0.87555991  1
  V  V45  1  0.74536932  0.87604729  0.62757085  1
  V  V46  1  0.49693572  0.87388522  0.87158099  1
  V  V47  1  -0.00049853  0.50051263  0.00129282  1
  V  V48  1  0.62587962  0.00049885  0.12603215  1
  V  V49  1  0.50466737  0.37659433  0.38123203  1
  V  V50  1  0.75823086  0.00487168  0.25694800  1
  V  V51  1  0.62274294  0.36662467  0.74679463  1
  V  V52  1  0.37575495  0.74975286  0.62490968  1
  V  V53  1  0.12427076  0.88054657  0.74674493  1
  V  V54  1  0.12366724  0.62671084  0.00124520  1
  V  V55  1  0.37855549  0.24586509  0.64812396  1
  V  V56  1  0.49848147  0.87518288  0.37508337  1
  V  V57  1  0.62962064  0.24664206  0.87306729  1
  V  V58  1  0.64280928  0.24635784  0.37732356  1
  V  V59  1  -0.00249419  0.37532170  0.87641289  1
  V  V60  1  0.25442169  0.00464501  0.74721923  1
  V  V61  1  0.50061603  0.62072077  0.61761331  1
  V  V62  1  0.75042420  0.49722169  0.74671185  1
  V  V63  1  0.75844580  0.36021789  0.61742102  1
  V  V64  1  0.00172137  0.11740227  0.12935897  1
  V  V65  1  0.50282658  0.24985165  0.25196597  1
  V  V66  1  0.25275007  0.75186094  0.00478313  1
  V  V67  1  0.62533225  0.62406551  0.00019474  1
  V  V68  1  0.37366113  0.62547553  0.24555379  1
  V  V69  1  0.63856925  0.12690121  0.49697128  1
  V  V70  1  0.63278312  0.37328172  0.24421002  1
  V  V71  1  0.87031454  0.37524179  0.00718746  1
  V  V72  1  0.24560677  0.37730784  0.12839055  1
  V  V73  1  0.12718022  0.38181748  0.74784498  1
  V  V74  1  0.84906249  0.10215017  0.76026917  1
  V  V75  1  0.87582330  0.75362890  0.11931019  1
  V  V76  1  0.37196157  0.00436520  0.37674745  1
  V  V77  1  0.12976497  0.13942781  0.51011585  1
  V  V78  1  0.87372337  0.74747362  0.62412202  1
  V  V79  1  0.37519800  0.35941138  0.49793323  1
  V  V80  1  0.37361208  0.12679621  0.25284646  1
  V  V81  1  0.00501036  0.61619381  0.62529021  1
  V  V82  1  0.25020247  0.74973684  0.50048442  1
  V  V83  1  0.12467828  0.24992448  0.87577650  1
  V  V84  1  0.75105035  0.25375633  0.00683199  1
  Zn  Zn85  1  0.37545603  0.62413767  0.74826479  1
  Zn  Zn86  1  -0.06239904  0.18256787  0.58620574  1
  Zn  Zn87  1  0.24667629  0.49882548  0.25207192  1
  Zn  Zn88  1  0.86064871  0.63548707  0.25745747  1
  Zn  Zn89  1  0.75683592  0.75175690  -0.00352001  1
  Zn  Zn90  1  0.62491610  0.61074690  0.48926809  1
  Zn  Zn91  1  0.37818433  0.00564904  0.87067317  1
  Zn  Zn92  1  0.49941667  0.74801323  0.74677693  1
  Zn  Zn93  1  0.87284586  0.50001193  0.87721343  1
  Zn  Zn94  1  0.86604405  0.01588344  0.39257108  1
  Zn  Zn95  1  0.87899327  0.35451352  0.49644786  1
  Zn  Zn96  1  0.63126782  0.74094384  0.36730514  1
  Zn  Zn97  1  0.86968365  0.14011143  0.25414323  1
  Zn  Zn98  1  0.37361165  0.87809440  0.49924067  1
  Zn  Zn99  1  0.49774146  0.00300632  0.50096103  1
  Zn  Zn100  1  0.50132047  0.49908206  -0.00023583  1
  Zn  Zn101  1  0.62959604  0.49256010  0.11893610  1
  Zn  Zn102  1  -0.00323978  0.62601963  0.12651790  1
  Zn  Zn103  1  0.24475593  0.50510448  0.74526824  1
  Zn  Zn104  1  0.22287674  0.15365505  0.37264438  1
  Zn  Zn105  1  0.87496107  0.25360236  0.12916894  1
  Zn  Zn106  1  0.62689094  0.87803366  0.75150389  1
  Zn  Zn107  1  0.18569242  0.18557665  0.18503410  1
  Zn  Zn108  1  0.18640126  0.19162690  0.68602870  1
  Zn  Zn109  1  0.18588253  0.68902642  0.18710109  1
  Zn  Zn110  1  0.18900015  0.68888192  0.68726783  1
  Zn  Zn111  1  0.68738871  0.18646291  0.18676951  1
  Zn  Zn112  1  0.69106034  0.18014053  0.68756268  1
  Zn  Zn113  1  0.68356960  0.68959023  0.18557300  1
  Zn  Zn114  1  0.68550313  0.68578110  0.68189637  1
  Zn  Zn115  1  0.31673276  0.31823888  0.30864423  1
  Zn  Zn116  1  0.31032376  0.31419931  0.81291896  1
  Zn  Zn117  1  0.31350750  0.81267123  0.31247975  1
  Zn  Zn118  1  0.31132731  0.81416934  0.81138638  1
  Zn  Zn119  1  0.82229827  0.32308676  0.30780701  1
  Zn  Zn120  1  0.81084119  0.30843522  0.81503481  1
  Zn  Zn121  1  0.81372804  0.82008673  0.31129002  1
  Zn  Zn122  1  0.80852720  0.80803620  0.80952966  1
  Zn  Zn123  1  0.19487002  0.43037103  0.43642822  1
  Zn  Zn124  1  0.18767446  0.43878337  0.94066563  1
  Zn  Zn125  1  0.18526237  0.94223487  0.43585847  1
  Zn  Zn126  1  0.18534003  0.93947092  0.93322851  1
  Zn  Zn127  1  0.69386305  0.43009724  0.43485534  1
  Zn  Zn128  1  0.68749343  0.43595851  0.93566557  1
  Zn  Zn129  1  0.68427753  0.93771226  0.43975693  1
  Zn  Zn130  1  0.68385740  0.93305585  0.94101515  1
  Zn  Zn131  1  0.31140022  0.06167117  0.06213043  1
  Zn  Zn132  1  0.30652572  0.07335821  0.55815651  1
  Zn  Zn133  1  0.31176124  0.56138909  0.05959755  1
  Zn  Zn134  1  0.31600846  0.55904718  0.56175594  1
  Zn  Zn135  1  0.81617916  0.06324125  0.06677459  1
  Zn  Zn136  1  0.81443280  0.06053934  0.57504840  1
  Zn  Zn137  1  0.81572662  0.56723565  0.06519667  1
  Zn  Zn138  1  0.81183522  0.55997781  0.56561156  1
  Zn  Zn139  1  0.44101819  0.43929877  0.19034328  1
  Zn  Zn140  1  0.43785961  0.43528777  0.68533069  1
  Zn  Zn141  1  0.43318029  0.93924421  0.18661406  1
  Zn  Zn142  1  0.43645845  0.93992650  0.68542490  1
  Zn  Zn143  1  0.93356397  0.44382319  0.18966662  1
  Zn  Zn144  1  0.93786149  0.43280214  0.68744607  1
  Zn  Zn145  1  0.94041253  0.93840922  0.18022085  1
  Zn  Zn146  1  0.92946602  0.93425336  0.69546175  1
  Zn  Zn147  1  0.03117896  0.08908824  0.33861449  1
  Zn  Zn148  1  0.06201267  0.06038059  0.81339580  1
  Zn  Zn149  1  0.05993560  0.56120239  0.31596312  1
  Zn  Zn150  1  0.06263544  0.56474787  0.81637912  1
  Zn  Zn151  1  0.56457235  0.06256581  0.31389190  1
  Zn  Zn152  1  0.56379636  0.06263208  0.81174081  1
  Zn  Zn153  1  0.56294751  0.56150479  0.31105758  1
  Zn  Zn154  1  0.55904817  0.55882301  0.80511884  1
  Zn  Zn155  1  0.44867833  0.18382984  0.43839075  1
  Zn  Zn156  1  0.44126637  0.18945374  0.93684287  1
  Zn  Zn157  1  0.44162723  0.68808284  0.43516657  1
  Zn  Zn158  1  0.43611427  0.68765765  0.93815268  1
  Zn  Zn159  1  0.93777853  0.20610288  0.41362006  1
  Zn  Zn160  1  0.93257865  0.18027380  0.93649193  1
  Zn  Zn161  1  0.93618320  0.68402626  0.43629677  1
  Zn  Zn162  1  0.93778390  0.68641803  0.93651526  1
  Zn  Zn163  1  0.06127605  0.30896467  0.06598927  1
  Zn  Zn164  1  0.06547414  0.31883354  0.56571401  1
  Zn  Zn165  1  0.06260689  0.81772237  0.06341228  1
  Zn  Zn166  1  0.06363041  0.80732249  0.56472196  1
  Zn  Zn167  1  0.56139099  0.31102445  0.06081941  1
  Zn  Zn168  1  0.56338645  0.30647460  0.56186770  1
  Zn  Zn169  1  0.56364724  0.81140355  0.06199205  1
  Zn  Zn170  1  0.56063157  0.81186866  0.55916527  1
  O  O171  1  0.11589638  0.13151442  0.10910814  1
  O  O172  1  0.13820845  0.12317541  0.61115128  1
  O  O173  1  0.12377960  0.61872488  0.11778946  1
  O  O174  1  0.11846641  0.62925935  0.61425442  1
  O  O175  1  0.61850605  0.12053951  0.11601482  1
  O  O176  1  0.62028668  0.11971204  0.61542882  1
  O  O177  1  0.61623456  0.62538741  0.11402787  1
  O  O178  1  0.61873738  0.61391361  0.62043531  1
  O  O179  1  0.38420272  0.38026351  0.37973570  1
  O  O180  1  0.38244508  0.37876918  0.87922711  1
  O  O181  1  0.38152582  0.88503036  0.37339479  1
  O  O182  1  0.38197771  0.87591072  0.88467202  1
  O  O183  1  0.87136739  0.39448872  0.38338117  1
  O  O184  1  0.88440768  0.37589554  0.88263219  1
  O  O185  1  0.88272278  0.87707777  0.38747631  1
  O  O186  1  0.83272899  0.89689465  0.88348236  1
  O  O187  1  0.25971769  -0.00598114  0.36287743  1
  O  O188  1  0.25144924  0.00861112  0.86699589  1
  O  O189  1  0.26091803  0.50494559  0.37143946  1
  O  O190  1  0.25849497  0.50593229  0.87655393  1
  O  O191  1  0.75264893  -0.00636012  0.36202049  1
  O  O192  1  0.77928387  -0.04635784  0.87562145  1
  O  O193  1  0.75821624  0.50363992  0.37080800  1
  O  O194  1  0.74809602  0.50353189  0.86128139  1
  O  O195  1  0.24161701  0.49428660  0.12277402  1
  O  O196  1  0.26616164  0.48334210  0.63159866  1
  O  O197  1  0.25348303  0.99355683  0.13945980  1
  O  O198  1  0.25743215  0.98926691  0.63031518  1
  O  O199  1  0.74934701  0.50375188  0.13958548  1
  O  O200  1  0.74225826  0.49229174  0.63333724  1
  O  O201  1  0.74539855  0.99269838  0.13329400  1
  O  O202  1  0.73703755  0.98587356  0.61652119  1
  O  O203  1  0.00348918  0.37423313  0.24370925  1
  O  O204  1  0.00689318  0.36927955  0.75928674  1
  O  O205  1  0.00592668  0.87107804  0.25728984  1
  O  O206  1  0.00826886  0.85968276  0.74142782  1
  O  O207  1  0.50918934  0.36911128  0.25978901  1
  O  O208  1  0.51294907  0.37889845  0.75796359  1
  O  O209  1  0.50015030  0.86954836  0.25247532  1
  O  O210  1  0.49936755  0.87346174  0.76220031  1
  O  O211  1  0.49636490  0.12981643  0.24397574  1
  O  O212  1  0.50614904  0.12210903  0.73300058  1
  O  O213  1  0.49333926  0.63214602  0.24118493  1
  O  O214  1  0.49695194  0.62753537  0.73601380  1
  O  O215  1  1.01677670  0.12092958  0.22925120  1
  O  O216  1  1.00773040  0.14207884  0.75509610  1
  O  O217  1  1.00477634  0.64338217  0.25137988  1
  O  O218  1  0.99778904  0.63115513  0.74368040  1
  O  O219  1  0.37128477  0.25492783  0.00610685  1
  O  O220  1  0.37589364  0.25875399  0.49339444  1
  O  O221  1  0.36314740  0.76086416  -0.00616650  1
  O  O222  1  0.36879415  0.75063315  0.50875966  1
  O  O223  1  0.86594261  0.25707239  -0.00209039  1
  O  O224  1  0.89262174  0.24324262  0.50354369  1
  O  O225  1  0.87543713  0.74506823  0.01351929  1
  O  O226  1  0.86756008  0.75579579  0.50349169  1
  O  O227  1  0.11024463  0.23712877  0.50259550  1
  O  O228  1  0.12956710  0.24496893  0.98952883  1
  O  O229  1  0.12977640  0.73855941  0.49475434  1
  O  O230  1  0.13116825  0.74948345  0.99285919  1
  O  O231  1  0.62564560  0.23611251  0.49296449  1
  O  O232  1  0.63140416  0.24409058  0.99479807  1
  O  O233  1  0.64072963  0.75273913  0.49782346  1
  O  O234  1  0.62399264  0.73964714  0.98887945  1
  O  O235  1  0.49451810  0.24484787  0.13091385  1
  O  O236  1  0.48647106  0.24480467  0.62297153  1
  O  O237  1  0.50207563  0.74090512  0.13362858  1
  O  O238  1  0.49194631  0.74434348  0.62448821  1
  O  O239  1  0.99665559  0.24086433  0.13078110  1
  O  O240  1  1.00566990  0.25686680  0.64459712  1
  O  O241  1  0.99357364  0.75440890  0.13416150  1
  O  O242  1  0.99511264  0.73766382  0.63238028  1
  O  O243  1  0.01465208  0.24651802  0.34447685  1
  O  O244  1  0.00811566  0.25851269  0.87026289  1
  O  O245  1  0.00345649  0.75988557  0.37009098  1
  O  O246  1  0.00952647  0.74374431  0.86413063  1
  O  O247  1  0.51099655  0.25746207  0.36854349  1
  O  O248  1  0.51241682  0.26183390  0.88043196  1
  O  O249  1  0.49545659  0.76288593  0.36259907  1
  O  O250  1  0.50520635  0.75712312  0.87400218  1
  O  O251  1  0.23685090  0.13051205  0.48947865  1
  O  O252  1  0.24258032  0.12870097  0.99381819  1
  O  O253  1  0.24413760  0.62714634  0.49600538  1
  O  O254  1  0.24602098  0.63547780  0.99559359  1
  O  O255  1  0.73744962  0.11763026  0.50536653  1
  O  O256  1  0.73786837  0.13059473  1.00427424  1
  O  O257  1  0.75021651  0.63873692  0.50391136  1
  O  O258  1  0.74062172  0.62614587  0.99379106  1
  O  O259  1  0.25724412  0.36885457  0.00637321  1
  O  O260  1  0.26403878  0.37846355  0.51366098  1
  O  O261  1  0.25323100  0.87270829  0.00572767  1
  O  O262  1  0.24835245  0.86929784  0.50764965  1
  O  O263  1  0.75857280  0.36771096  -0.00560728  1
  O  O264  1  0.75444737  0.37343617  0.51426567  1
  O  O265  1  0.73928205  0.86857069  0.01868757  1
  O  O266  1  0.75836844  0.86757107  0.50529158  1
  O  O267  1  0.12574377  0.50834618  0.23584303  1
  O  O268  1  0.12407095  0.48636536  0.75745852  1
  O  O269  1  0.13412299  0.98702771  0.26040491  1
  O  O270  1  0.13334431  0.98647246  0.75595010  1
  O  O271  1  0.63473143  0.49232183  0.25055334  1
  O  O272  1  0.63332615  0.48925518  0.74081913  1
  O  O273  1  0.63412808  0.99698833  0.24528658  1
  O  O274  1  0.62191364  0.99737876  0.73511380  1
  O  O275  1  0.36592053  0.00698564  0.25593424  1
  O  O276  1  0.35972951  -0.00431763  0.75304521  1
  O  O277  1  0.37529052  0.51091120  0.25914807  1
  O  O278  1  0.37442789  0.49722717  0.76383890  1
  O  O279  1  0.86042358  -0.00647339  0.24796822  1
  O  O280  1  0.86982542  0.00278342  0.75750477  1
  O  O281  1  0.85958275  0.50061381  0.25927814  1
  O  O282  1  0.86534110  0.50377997  0.75071260  1
  O  O283  1  0.16809868  0.33095424  0.37651489  1
  O  O284  1  0.11837201  0.36808209  0.87253324  1
  O  O285  1  0.11890910  0.86808034  0.36880462  1
  O  O286  1  0.13179059  0.86280969  0.86371676  1
  O  O287  1  0.62105669  0.36631246  0.36939941  1
  O  O288  1  0.61965616  0.36852286  0.86681798  1
  O  O289  1  0.61307063  0.87522435  0.36838996  1
  O  O290  1  0.61450144  0.86563743  0.87565607  1
  O  O291  1  0.37826169  0.13100058  0.13135280  1
  O  O292  1  0.37900206  0.14051822  0.62220300  1
  O  O293  1  0.38343422  0.61801414  0.13291114  1
  O  O294  1  0.38083812  0.63237403  0.62482291  1
  O  O295  1  0.88970920  0.12847001  0.13137796  1
  O  O296  1  0.86937464  0.12255114  0.65219826  1
  O  O297  1  0.87702351  0.63743374  0.13600808  1
  O  O298  1  0.88296450  0.62888533  0.63110844  1
  O  O299  1  0.25625637  0.25726899  0.11885664  1
  O  O300  1  0.26940858  0.26076053  0.63613667  1
  O  O301  1  0.24432844  0.76059411  0.11272926  1
  O  O302  1  0.25775804  0.75760473  0.62030153  1
  O  O303  1  0.75182785  0.24691600  0.11153971  1
  O  O304  1  0.74675780  0.26233757  0.63070406  1
  O  O305  1  0.75831039  0.75690115  0.12823364  1
  O  O306  1  0.75375867  0.75508012  0.61277593  1
  O  O307  1  0.23177468  0.27755821  0.37563043  1
  O  O308  1  0.24307633  0.24454773  0.87918380  1
  O  O309  1  0.24657574  0.74434569  0.38021141  1
  O  O310  1  0.24239986  0.74701946  0.88338826  1
  O  O311  1  0.74127622  0.25472133  0.36770261  1
  O  O312  1  0.73641578  0.25393052  0.88657539  1
  O  O313  1  0.75208278  0.75602033  0.38734711  1
  O  O314  1  0.73913125  0.74216204  0.87618033  1
  O  O315  1  0.00528950  0.11941482  0.00583587  1
  O  O316  1  0.00831825  0.10522742  0.51561170  1
  O  O317  1  0.00595399  0.61896890  0.00106046  1
  O  O318  1  0.00856589  0.61847044  0.50653193  1
  O  O319  1  0.50746731  0.12038999  0.00593200  1
  O  O320  1  0.51032003  0.12260394  0.51255052  1
  O  O321  1  0.50606310  0.62522276  0.00692366  1
  O  O322  1  0.50085430  0.62889154  0.51430635  1
  O  O323  1  0.49461536  0.36859004  0.48758971  1
  O  O324  1  0.49644557  0.37701819  0.99003891  1
  O  O325  1  0.49639419  0.87750434  0.48682728  1
  O  O326  1  0.49277577  0.87817129  0.99397944  1
  O  O327  1  0.99664640  0.39276145  0.51305638  1
  O  O328  1  0.99369456  0.37822198  0.99177280  1
  O  O329  1  0.99236853  0.87431604  0.49876421  1
  O  O330  1  1.00402585  0.89260967  1.00530337  1
  O  O331  1  0.49294080  0.48632426  0.36704997  1
  O  O332  1  0.49374533  0.48890552  0.87520966  1
  O  O333  1  0.48934540  0.99136831  0.37053487  1
  O  O334  1  0.50001311  0.99102939  0.88041911  1
  O  O335  1  0.98999151  0.50231140  0.38411810  1
  O  O336  1  0.99922256  0.49024571  0.88124712  1
  O  O337  1  1.00223247  0.98208042  0.39000471  1
  O  O338  1  1.00099302  1.00256524  0.88787400  1
  O  O339  1  -0.00098897  0.01257599  0.11359665  1
  O  O340  1  0.00051440  -0.01509403  0.62175180  1
  O  O341  1  0.00710989  0.50369174  0.11928794  1
  O  O342  1  -0.00617827  0.51268116  0.61887583  1
  O  O343  1  0.50486455  0.00453896  0.11993737  1
  O  O344  1  0.50560718  0.00602611  0.62135997  1
  O  O345  1  0.50593407  0.51173597  0.12402846  1
  O  O346  1  0.50990926  0.50582379  0.62969838  1
  O  O347  1  0.25776044  0.38046141  0.23130610  1
  O  O348  1  0.24216651  0.37787632  0.74704696  1
  O  O349  1  0.24539055  0.87994537  0.24354169  1
  O  O350  1  0.24318918  0.88216753  0.74240580  1
  O  O351  1  0.73952339  0.38861074  0.25566979  1
  O  O352  1  0.74312084  0.38022921  0.74325187  1
  O  O353  1  0.74231970  0.88352377  0.24234854  1
  O  O354  1  0.74554320  0.86349983  0.73097309  1
  O  O355  1  0.25117938  0.12115987  0.25757207  1
  O  O356  1  0.23921953  0.11576489  0.76008695  1
  O  O357  1  0.25874539  0.62691642  0.25482766  1
  O  O358  1  0.25201712  0.62302717  0.75761646  1
  O  O359  1  0.75226563  0.10944256  0.24497565  1
  O  O360  1  0.74798075  0.11418432  0.75873276  1
  O  O361  1  0.74134809  0.61312193  0.25227343  1
  O  O362  1  0.75342656  0.61627928  0.75102824  1
  O  O363  1  0.37888186  0.11715791  0.36847454  1
  O  O364  1  0.36109705  0.12731026  0.88131913  1
  O  O365  1  0.37358236  0.61778275  0.36860469  1
  O  O366  1  0.37142522  0.61630577  0.87412781  1
  O  O367  1  0.91326951  0.11100706  0.35579555  1
  O  O368  1  0.87510169  0.13117700  0.85455715  1
  O  O369  1  0.87933698  0.61108584  0.36960872  1
  O  O370  1  0.86712224  0.62348980  0.86760294  1
  O  O371  1  0.13549683  0.38761771  0.11132846  1
  O  O372  1  0.14069241  0.36843308  0.63672913  1
  O  O373  1  0.13626283  0.87373266  0.13642482  1
  O  O374  1  0.13734796  0.86311317  0.63582458  1
  O  O375  1  0.61731500  0.37472908  0.13909380  1
  O  O376  1  0.63111585  0.37689565  0.63035723  1
  O  O377  1  0.62917750  0.88064523  0.13132411  1
  O  O378  1  0.62785493  0.88190378  0.62278986  1
  O  O379  1  0.11756414  0.26265863  0.22842978  1
  O  O380  1  0.12068287  0.26020717  0.76189767  1
  O  O381  1  0.11893346  0.76110315  0.25487980  1
  O  O382  1  0.11980829  0.75558046  0.75716321  1
  O  O383  1  0.62361814  0.25432966  0.25699196  1
  O  O384  1  0.63322859  0.25868387  0.75901721  1
  O  O385  1  0.61270906  0.75752938  0.24978381  1
  O  O386  1  0.62311613  0.74930317  0.76163776  1
  O  O387  1  0.38139407  0.24558274  0.24593565  1
  O  O388  1  0.38246689  0.25204158  0.74684891  1
  O  O389  1  0.38265578  0.73763576  0.25363091  1
  O  O390  1  0.37408772  0.74985931  0.73650139  1
  O  O391  1  0.88901797  0.25515417  0.24620643  1
  O  O392  1  0.89027270  0.25162885  0.75492973  1
  O  O393  1  0.88408081  0.75395783  0.24547264  1
  O  O394  1  0.88299074  0.74491668  0.74662045  1
  O  O395  1  0.37585894  0.49123316  0.48630866  1
  O  O396  1  0.37727945  0.49449019  0.98803487  1
  O  O397  1  0.37304206  1.00160939  0.48749147  1
  O  O398  1  0.38019403  0.99100699  0.99711695  1
  O  O399  1  0.88058732  0.50632945  0.48984660  1
  O  O400  1  0.87902170  0.49375832  0.99828175  1
  O  O401  1  0.88531570  0.99004158  0.50626283  1
  O  O402  1  0.88579165  1.00468547  1.00020103  1
  O  O403  1  0.11916666  0.01111617  -0.00601094  1
  O  O404  1  0.11211729  -0.01171229  0.50964276  1
  O  O405  1  0.11933427  0.50749688  0.00670306  1
  O  O406  1  0.11922148  0.50864556  0.48822873  1
  O  O407  1  0.62095515  0.00750422  0.00330408  1
  O  O408  1  0.62124319  0.01051806  0.50612398  1
  O  O409  1  0.62435716  0.51065876  -0.00069465  1
  O  O410  1  0.63334086  0.49390123  0.51280460  1
  O  O411  1  0.37094780  0.37217456  0.11937421  1
  O  O412  1  0.37708789  0.36086685  0.61899220  1
  O  O413  1  0.36339589  0.87859672  0.11394794  1
  O  O414  1  0.36658960  0.86699200  0.62188795  1
  O  O415  1  0.88031060  0.37617828  0.10935961  1
  O  O416  1  0.86088752  0.37665914  0.62496413  1
  O  O417  1  0.86501548  0.86540798  0.13132856  1
  O  O418  1  0.86645811  0.86759768  0.61752822  1
  O  O419  1  0.11986233  0.11033205  0.40070544  1
  O  O420  1  0.13349050  0.13431015  0.88182695  1
  O  O421  1  0.13134933  0.62976172  0.38266625  1
  O  O422  1  0.13070735  0.63590258  0.88079487  1
  O  O423  1  0.62201007  0.13034526  0.38850977  1
  O  O424  1  0.61524751  0.13422205  0.88626043  1
  O  O425  1  0.60623509  0.63266378  0.38221966  1
  O  O426  1  0.62548319  0.62891498  0.87992745  1
