# generated using pymatgen
data_V85Zn86O256
_symmetry_space_group_name_H-M   'P 1'
_cell_length_a   16.97357143
_cell_length_b   16.99059987
_cell_length_c   16.96399833
_cell_angle_alpha   89.94056479
_cell_angle_beta   90.10545021
_cell_angle_gamma   90.04316774
_symmetry_Int_Tables_number   1
_chemical_formula_structural   V85Zn86O256
_chemical_formula_sum   'V85 Zn86 O256'
_cell_volume   4892.25486354
_cell_formula_units_Z   1
loop_
 _symmetry_equiv_pos_site_id
 _symmetry_equiv_pos_as_xyz
  1  'x, y, z'
loop_
 _atom_site_type_symbol
 _atom_site_label
 _atom_site_symmetry_multiplicity
 _atom_site_fract_x
 _atom_site_fract_y
 _atom_site_fract_z
 _atom_site_occupancy
  V  V0  1  0.37629929  0.25306418  0.12356352  1
  V  V1  1  0.38015423  0.74892945  0.63925113  1
  V  V2  1  0.74527777  0.36220235  0.62767186  1
  V  V3  1  0.87315615  0.87528411  0.00263837  1
  V  V4  1  0.74487213  0.87282360  0.12781719  1
  V  V5  1  0.12001586  0.12651375  -0.00852478  1
  V  V6  1  0.00203088  0.61935252  0.62208468  1
  V  V7  1  0.24936748  0.37686229  0.12271638  1
  V  V8  1  0.24991179  0.50163908  0.25407140  1
  V  V9  1  0.12091841  0.87581124  0.75342190  1
  V  V10  1  0.75435044  0.24692766  0.00420894  1
  V  V11  1  0.37394087  0.37542791  -0.00700781  1
  V  V12  1  0.25130006  0.75094669  0.50149710  1
  V  V13  1  0.37853145  0.87732644  0.49931210  1
  V  V14  1  0.49669036  0.37348917  0.38060295  1
  V  V15  1  0.12141059  0.61989630  0.50371725  1
  V  V16  1  0.86776910  0.36110837  0.50533439  1
  V  V17  1  0.87685601  0.36628818  0.00187653  1
  V  V18  1  0.12119060  0.00127826  0.12542249  1
  V  V19  1  0.12363135  0.75084744  0.37657215  1
  V  V20  1  0.61788237  0.00050805  0.12601712  1
  V  V21  1  0.87244863  -0.00151404  0.86519210  1
  V  V22  1  -0.00499188  0.24990978  0.24752692  1
  V  V23  1  0.48847497  0.12801256  0.62497622  1
  V  V24  1  0.25057090  0.75246092  0.00659196  1
  V  V25  1  0.27051447  0.24903273  0.49311455  1
  V  V26  1  0.12278929  0.87550618  0.25061842  1
  V  V27  1  0.26435886  0.11595318  0.87475420  1
  V  V28  1  -0.00486542  -0.00240617  -0.00266683  1
  V  V29  1  0.62966478  0.49538662  0.12342346  1
  V  V30  1  0.12466401  0.50048431  0.12498037  1
  V  V31  1  0.25208103  0.87638253  0.62677559  1
  V  V32  1  0.25331414  0.50533240  0.74548380  1
  V  V33  1  -0.00324725  0.62784611  0.12754573  1
  V  V34  1  0.74514337  -0.00098808  0.25190078  1
  V  V35  1  0.62853237  0.50512738  0.62841058  1
  V  V36  1  0.73878894  0.74762554  0.49828555  1
  V  V37  1  0.11623331  0.75546591  0.87630136  1
  V  V38  1  0.50074766  0.24947487  0.24410545  1
  V  V39  1  0.25582609  0.62880479  0.87216472  1
  V  V40  1  0.62634686  0.24991408  0.86714757  1
  V  V41  1  0.50943832  0.00415369  0.50224733  1
  V  V42  1  0.49602695  0.00421612  -0.00817476  1
  V  V43  1  0.87431998  0.62748715  0.25087631  1
  V  V44  1  0.62070230  0.12532746  0.00450700  1
  V  V45  1  0.62754514  0.87838877  0.75093644  1
  V  V46  1  0.12276292  0.37518058  0.25140911  1
  V  V47  1  -0.00392184  0.13574238  0.63596286  1
  V  V48  1  0.24849136  0.00022646  0.24833681  1
  V  V49  1  -0.00154496  0.87635567  0.37562512  1
  V  V50  1  0.62855495  0.37160487  0.25155867  1
  V  V51  1  0.24863152  0.12262122  0.36921535  1
  V  V52  1  0.49921931  0.63011879  0.64191835  1
  V  V53  1  0.63224876  0.24145510  0.38456990  1
  V  V54  1  -0.00753275  0.13046251  0.12187261  1
  V  V55  1  0.12264744  0.24746623  0.37570814  1
  V  V56  1  0.75341646  0.49573789  0.25279787  1
  V  V57  1  0.50379675  0.51216119  0.49804829  1
  V  V58  1  0.01167484  0.35944805  0.86238482  1
  V  V59  1  0.87030053  0.00343944  0.37649272  1
  V  V60  1  0.87072729  0.12698967  0.24891211  1
  V  V61  1  0.24345051  0.24963690  -0.00583028  1
  V  V62  1  0.87886118  0.49789359  0.87383744  1
  V  V63  1  0.75638811  0.36969172  0.12533665  1
  V  V64  1  -0.00490094  0.75052202  0.24828849  1
  V  V65  1  0.37171936  0.88606462  -0.00438485  1
  V  V66  1  0.00386232  0.00271118  0.50158731  1
  V  V67  1  0.26490369  -0.00071817  0.75490108  1
  V  V68  1  0.37860456  0.12649260  0.24260511  1
  V  V69  1  0.48205022  0.24669196  0.74685737  1
  V  V70  1  0.62944725  0.62010350  -0.00115859  1
  V  V71  1  -0.00117483  0.37697051  0.38492427  1
  V  V72  1  0.75190980  0.62788682  0.87437621  1
  V  V73  1  0.87738045  0.62607829  0.74974621  1
  V  V74  1  0.12359161  0.62692700  0.00211600  1
  V  V75  1  0.25079129  0.62234441  0.37612149  1
  V  V76  1  0.51141075  0.87217339  0.36926365  1
  V  V77  1  0.50180765  0.49791098  0.00084111  1
  V  V78  1  0.00097028  0.49897800  -0.00007962  1
  V  V79  1  0.75478476  0.12090508  0.86350319  1
  V  V80  1  0.87758612  0.49985292  0.38508490  1
  V  V81  1  0.50462067  0.37244206  0.86802685  1
  V  V82  1  0.87389611  0.75261280  0.62222696  1
  V  V83  1  0.24806520  0.87559819  0.12671657  1
  V  V84  1  0.75444967  0.74810083  0.00702544  1
  Zn  Zn85  1  0.38397080  0.63260268  0.24984541  1
  Zn  Zn86  1  0.38115151  0.50914549  0.86938036  1
  Zn  Zn87  1  0.73988212  0.61649725  0.38298894  1
  Zn  Zn88  1  0.49081490  0.87163193  0.86399483  1
  Zn  Zn89  1  0.38759175  0.75459238  0.13231378  1
  Zn  Zn90  1  0.50493218  0.63506727  0.13296017  1
  Zn  Zn91  1  0.61910340  0.73656094  0.36487214  1
  Zn  Zn92  1  0.37717025  -0.00076484  0.37243991  1
  Zn  Zn93  1  0.63824775  0.01272361  0.64042618  1
  Zn  Zn94  1  0.11938600  0.48658490  0.63795701  1
  Zn  Zn95  1  0.74415225  0.49754100  0.75215635  1
  Zn  Zn96  1  0.56531928  0.81391650  0.19663359  1
  Zn  Zn97  1  0.24139710  0.34814113  0.64604938  1
  Zn  Zn98  1  0.87408651  0.87639678  0.50118288  1
  Zn  Zn99  1  -0.00354103  0.75686757  0.75261158  1
  Zn  Zn100  1  0.12758550  0.00042064  0.62887705  1
  Zn  Zn101  1  0.61150746  0.74406543  0.86100590  1
  Zn  Zn102  1  0.36943769  0.49780680  0.38378893  1
  Zn  Zn103  1  0.75354940  0.88843865  0.62996300  1
  Zn  Zn104  1  0.37973639  0.37486624  0.52346974  1
  Zn  Zn105  1  0.65502152  0.13031988  0.50785741  1
  Zn  Zn106  1  0.12871711  0.12608615  0.50620422  1
  Zn  Zn107  1  0.18448114  0.18943665  0.18270892  1
  Zn  Zn108  1  0.18318393  0.18021459  0.68833551  1
  Zn  Zn109  1  0.18479482  0.68775928  0.19066424  1
  Zn  Zn110  1  0.18753777  0.69073512  0.68785899  1
  Zn  Zn111  1  0.68682494  0.18542664  0.18918917  1
  Zn  Zn112  1  0.68016049  0.18546277  0.68606588  1
  Zn  Zn113  1  0.69097032  0.68129985  0.18843669  1
  Zn  Zn114  1  0.68592361  0.69146152  0.68633051  1
  Zn  Zn115  1  0.31237002  0.31469469  0.31260267  1
  Zn  Zn116  1  0.28320872  0.29752162  0.79670897  1
  Zn  Zn117  1  0.31642075  0.81030102  0.31272436  1
  Zn  Zn118  1  0.30693958  0.81410820  0.81634929  1
  Zn  Zn119  1  0.81415559  0.30985519  0.31716812  1
  Zn  Zn120  1  0.81209999  0.31483885  0.80979342  1
  Zn  Zn121  1  0.80766952  0.81377634  0.31490186  1
  Zn  Zn122  1  0.80785447  0.81547489  0.81207593  1
  Zn  Zn123  1  0.17447719  0.41954640  0.46966751  1
  Zn  Zn124  1  0.18596855  0.44018509  0.93086737  1
  Zn  Zn125  1  0.18774116  0.93764042  0.43769353  1
  Zn  Zn126  1  0.18434571  0.93929735  0.93794813  1
  Zn  Zn127  1  0.68493918  0.43399198  0.44090175  1
  Zn  Zn128  1  0.69036664  0.43458360  0.93537580  1
  Zn  Zn129  1  0.69312997  0.93673279  0.44693065  1
  Zn  Zn130  1  0.68469663  0.93642845  0.93443865  1
  Zn  Zn131  1  0.30973174  0.06471877  0.06402910  1
  Zn  Zn132  1  0.31344790  0.06186540  0.56316010  1
  Zn  Zn133  1  0.31755603  0.56539152  0.06460529  1
  Zn  Zn134  1  0.31821566  0.56417145  0.56438088  1
  Zn  Zn135  1  0.80911757  0.06150144  0.06168574  1
  Zn  Zn136  1  0.81612882  0.07324371  0.56645060  1
  Zn  Zn137  1  0.81590816  0.55741420  0.06431331  1
  Zn  Zn138  1  0.81344141  0.56557087  0.56081342  1
  Zn  Zn139  1  0.45351713  0.46244073  0.20457655  1
  Zn  Zn140  1  0.42112290  0.44002145  0.69085821  1
  Zn  Zn141  1  0.43391697  0.94022981  0.18368646  1
  Zn  Zn142  1  0.44646693  0.93652414  0.68677478  1
  Zn  Zn143  1  0.93769723  0.43901121  0.18977552  1
  Zn  Zn144  1  0.93381893  0.43368389  0.68696816  1
  Zn  Zn145  1  0.93291712  0.93853302  0.18644194  1
  Zn  Zn146  1  0.94010717  0.94089627  0.68313106  1
  Zn  Zn147  1  0.05825198  0.06275406  0.31087994  1
  Zn  Zn148  1  0.06568384  0.05517904  0.81313076  1
  Zn  Zn149  1  0.06184619  0.56200645  0.31644024  1
  Zn  Zn150  1  0.06492418  0.56493637  0.81286795  1
  Zn  Zn151  1  0.56235447  0.06108510  0.31507171  1
  Zn  Zn152  1  0.56145178  0.06372025  0.81205822  1
  Zn  Zn153  1  0.56712120  0.56488181  0.31138689  1
  Zn  Zn154  1  0.56451722  0.55843283  0.81222448  1
  Zn  Zn155  1  0.44581888  0.18118128  0.42829918  1
  Zn  Zn156  1  0.43779988  0.18957700  0.93785034  1
  Zn  Zn157  1  0.43556746  0.69168839  0.43797278  1
  Zn  Zn158  1  0.43517621  0.68877806  0.94604762  1
  Zn  Zn159  1  0.93246085  0.18221268  0.44189568  1
  Zn  Zn160  1  0.93550152  0.18844862  0.80436343  1
  Zn  Zn161  1  0.93521336  0.68758943  0.43821525  1
  Zn  Zn162  1  0.93620502  0.68835922  0.94037226  1
  Zn  Zn163  1  0.06040430  0.31251935  0.05893096  1
  Zn  Zn164  1  0.06640068  0.31157565  0.56797101  1
  Zn  Zn165  1  0.05942966  0.81273217  0.06456864  1
  Zn  Zn166  1  0.06164329  0.81125213  0.56523815  1
  Zn  Zn167  1  0.56578197  0.31382036  0.06014654  1
  Zn  Zn168  1  0.56336577  0.31501265  0.56631626  1
  Zn  Zn169  1  0.54820452  0.79721828  0.02013361  1
  Zn  Zn170  1  0.56389450  0.81653456  0.57081748  1
  O  O171  1  0.11623678  0.11941559  0.11732852  1
  O  O172  1  0.11649449  0.11768633  0.62314240  1
  O  O173  1  0.11789190  0.61949354  0.12160564  1
  O  O174  1  0.11631511  0.63197762  0.61814154  1
  O  O175  1  0.63225011  0.11578779  0.11238598  1
  O  O176  1  0.61182941  0.12657477  0.61773406  1
  O  O177  1  0.62661474  0.61206556  0.11668076  1
  O  O178  1  0.61169099  0.61583680  0.62652878  1
  O  O179  1  0.39090452  0.37729987  0.36993201  1
  O  O180  1  0.38367515  0.37382075  0.88704119  1
  O  O181  1  0.38285237  0.87625063  0.38650058  1
  O  O182  1  0.37027193  0.87373356  0.89185980  1
  O  O183  1  0.87954708  0.37951125  0.38589942  1
  O  O184  1  0.87990964  0.38432159  0.88168430  1
  O  O185  1  0.88202552  0.88679801  0.37355254  1
  O  O186  1  0.86157914  0.88947340  0.88930211  1
  O  O187  1  0.25068593  0.00775886  0.36683915  1
  O  O188  1  0.24956768  0.00941893  0.87380628  1
  O  O189  1  0.24503566  0.51007929  0.37006216  1
  O  O190  1  0.24878557  0.52141100  0.87683239  1
  O  O191  1  0.75934790  -0.00950447  0.36469963  1
  O  O192  1  0.75921109  0.01359191  0.88429399  1
  O  O193  1  0.75922491  0.49505681  0.37098831  1
  O  O194  1  0.76062051  0.50771427  0.87515054  1
  O  O195  1  0.24385380  0.49678083  0.13196952  1
  O  O196  1  0.24998083  0.51439822  0.64153035  1
  O  O197  1  0.24082054  0.99600050  0.12974674  1
  O  O198  1  0.25021872  0.99505006  0.63486110  1
  O  O199  1  0.74767865  0.48989273  0.13064078  1
  O  O200  1  0.73483107  0.50633739  0.62209957  1
  O  O201  1  0.73989501  0.99271112  0.12965109  1
  O  O202  1  0.74717533  1.00021363  0.61225746  1
  O  O203  1  0.00292061  0.36893023  0.25895674  1
  O  O204  1  -0.00212932  0.38273591  0.76446722  1
  O  O205  1  0.00288206  0.87139223  0.25375708  1
  O  O206  1  0.01653970  0.87591277  0.74488065  1
  O  O207  1  0.50805257  0.37055615  0.25836026  1
  O  O208  1  0.49110073  0.36382171  0.76077576  1
  O  O209  1  0.49778491  0.88285849  0.26451870  1
  O  O210  1  0.51348198  0.87495293  0.75197607  1
  O  O211  1  0.48845359  0.13609221  0.25639084  1
  O  O212  1  0.50219835  0.13663890  0.74039170  1
  O  O213  1  0.48728068  0.57705915  0.23496329  1
  O  O214  1  0.50015792  0.62368664  0.74075391  1
  O  O215  1  0.99231984  0.12856577  0.24005866  1
  O  O216  1  1.00903634  0.12424281  0.74271821  1
  O  O217  1  0.99386817  0.62938975  0.24807725  1
  O  O218  1  0.98984187  0.62969214  0.74510930  1
  O  O219  1  0.36677150  0.25611533  0.00401383  1
  O  O220  1  0.37221629  0.24534192  0.48847389  1
  O  O221  1  0.36006504  0.76239862  0.00672138  1
  O  O222  1  0.37052566  0.76074133  0.50757444  1
  O  O223  1  0.86334534  0.26192925  -0.00735262  1
  O  O224  1  0.87197295  0.26278890  0.49604879  1
  O  O225  1  0.86560843  0.76121850  -0.00590761  1
  O  O226  1  0.87180236  0.75307660  0.50957903  1
  O  O227  1  0.13152957  0.24667531  0.48169492  1
  O  O228  1  0.13498458  0.23984461  1.00744940  1
  O  O229  1  0.13195098  0.74465861  0.49558826  1
  O  O230  1  0.13011232  0.74934894  0.99494248  1
  O  O231  1  0.61716299  0.24985563  0.48696954  1
  O  O232  1  0.63136726  0.24294117  0.99218090  1
  O  O233  1  0.63818430  0.75406422  0.50659916  1
  O  O234  1  0.64499035  0.73754557  0.99441114  1
  O  O235  1  0.49532699  0.25972898  0.13722884  1
  O  O236  1  0.50177051  0.24495329  0.63888060  1
  O  O237  1  0.50715289  0.75249571  0.11757686  1
  O  O238  1  0.49570368  0.73602826  0.61992789  1
  O  O239  1  1.00481254  0.23903307  0.13107546  1
  O  O240  1  1.00721552  0.23507126  0.62148437  1
  O  O241  1  1.00386686  0.74097764  0.13470435  1
  O  O242  1  0.99016822  0.74107163  0.62907047  1
  O  O243  1  0.00565847  0.25535350  0.36941084  1
  O  O244  1  -0.00201590  0.26059093  0.86983579  1
  O  O245  1  0.00398125  0.75650899  0.36964483  1
  O  O246  1  0.01193267  0.74616038  0.87498727  1
  O  O247  1  0.50735103  0.25707210  0.36322155  1
  O  O248  1  0.50535345  0.25268973  0.86588833  1
  O  O249  1  0.50313722  0.76813177  0.38453943  1
  O  O250  1  0.50926273  0.76307530  0.90976674  1
  O  O251  1  0.25271875  0.12734448  0.48153816  1
  O  O252  1  0.24097008  0.12823313  0.99369627  1
  O  O253  1  0.24477396  0.63114585  0.49393527  1
  O  O254  1  0.24293027  0.63560420  0.99761789  1
  O  O255  1  0.76398793  0.12901479  0.48781265  1
  O  O256  1  0.74330455  0.13225716  0.99427206  1
  O  O257  1  0.75781409  0.64233189  0.49806012  1
  O  O258  1  0.75219116  0.62786547  0.99482772  1
  O  O259  1  0.25428272  0.36875390  -0.00062789  1
  O  O260  1  0.26654096  0.35390052  0.47674917  1
  O  O261  1  0.25174582  0.87216744  0.00662718  1
  O  O262  1  0.25881534  0.87260333  0.50484271  1
  O  O263  1  0.75704753  0.36698182  0.00341755  1
  O  O264  1  0.76037598  0.37767785  0.51012656  1
  O  O265  1  0.75269398  0.86746954  0.00741148  1
  O  O266  1  0.75617009  0.86152564  0.50740298  1
  O  O267  1  0.13117186  0.49473994  0.24648494  1
  O  O268  1  0.14246661  0.51480404  0.74938156  1
  O  O269  1  0.12789116  0.99520725  0.24530325  1
  O  O270  1  0.13746100  0.98850377  0.75320597  1
  O  O271  1  0.63524928  0.48879530  0.24425661  1
  O  O272  1  0.62394347  0.49820212  0.73372441  1
  O  O273  1  0.63508377  1.01026019  0.24103360  1
  O  O274  1  0.62326915  0.98835775  0.75489510  1
  O  O275  1  0.36743839  0.01070273  0.24748912  1
  O  O276  1  0.36368513  -0.01012914  0.74953778  1
  O  O277  1  0.35416982  0.49413347  0.25522076  1
  O  O278  1  0.36427583  0.51629869  0.75625141  1
  O  O279  1  0.86728591  0.00736006  0.25617130  1
  O  O280  1  0.87882887  -0.01113515  0.76744369  1
  O  O281  1  0.87228038  0.50417772  0.26206535  1
  O  O282  1  0.87381799  0.51093178  0.75856720  1
  O  O283  1  0.11602172  0.36735936  0.37419504  1
  O  O284  1  0.11019662  0.37499670  0.88121607  1
  O  O285  1  0.11947057  0.87035585  0.36970690  1
  O  O286  1  0.13249417  0.86541298  0.86758833  1
  O  O287  1  0.61478698  0.36681779  0.37201109  1
  O  O288  1  0.61518593  0.36392074  0.88182347  1
  O  O289  1  0.61120186  0.87937753  0.38085985  1
  O  O290  1  0.62487588  0.87064147  0.86498956  1
  O  O291  1  0.36715224  0.13575820  0.13567615  1
  O  O292  1  0.38879291  0.12551399  0.62391188  1
  O  O293  1  0.38370028  0.63266454  0.12497834  1
  O  O294  1  0.39038245  0.63524953  0.62169427  1
  O  O295  1  0.88380645  0.11784368  0.13353482  1
  O  O296  1  0.89784053  0.11854243  0.62891399  1
  O  O297  1  0.88244875  0.61383459  0.14060458  1
  O  O298  1  0.88191059  0.63012401  0.63236514  1
  O  O299  1  0.25440556  0.25693121  0.11511149  1
  O  O300  1  0.24937802  0.23393592  0.58939701  1
  O  O301  1  0.23950193  0.75785679  0.11572342  1
  O  O302  1  0.26033127  0.75513932  0.62053149  1
  O  O303  1  0.74465202  0.25386828  0.11254007  1
  O  O304  1  0.73872108  0.26447564  0.62688685  1
  O  O305  1  0.74861490  0.75795413  0.11569157  1
  O  O306  1  0.76161164  0.74617421  0.61608789  1
  O  O307  1  0.24324044  0.23934598  0.37304326  1
  O  O308  1  0.25315535  0.23321350  0.88920757  1
  O  O309  1  0.24365293  0.74217551  0.38075366  1
  O  O310  1  0.24130856  0.74427870  0.88736283  1
  O  O311  1  0.73021503  0.25656515  0.37075837  1
  O  O312  1  0.74370378  0.24102737  0.88357177  1
  O  O313  1  0.74692919  0.75271396  0.39050478  1
  O  O314  1  0.75548319  0.73463856  0.88284553  1
  O  O315  1  0.00622021  0.11385499  0.01019722  1
  O  O316  1  0.00347330  0.11677390  0.50667634  1
  O  O317  1  0.00293609  0.61995847  0.00700785  1
  O  O318  1  0.00882608  0.63248394  0.50993541  1
  O  O319  1  0.51179302  0.12145672  -0.00428788  1
  O  O320  1  0.49634384  0.11792627  0.50987211  1
  O  O321  1  0.50894089  0.60858952  -0.00188873  1
  O  O322  1  0.49746537  0.61325652  0.50030957  1
  O  O323  1  0.49603050  0.37976998  0.49551093  1
  O  O324  1  0.49400232  0.37657914  0.98918695  1
  O  O325  1  0.49517843  0.88469649  0.49673524  1
  O  O326  1  0.48577263  0.89171294  1.00285051  1
  O  O327  1  0.98767260  0.36865220  0.49115078  1
  O  O328  1  0.99252311  0.37887591  0.99132812  1
  O  O329  1  1.00059629  0.88410648  0.49433635  1
  O  O330  1  0.98883108  0.88759065  1.00948350  1
  O  O331  1  0.50219167  0.49152859  0.38965255  1
  O  O332  1  0.50207097  0.48965487  0.88269656  1
  O  O333  1  0.49662252  0.99218412  0.38365674  1
  O  O334  1  0.50180467  0.99952109  0.88921426  1
  O  O335  1  0.99223439  0.48607646  0.37048494  1
  O  O336  1  0.99118484  0.50103467  0.88110575  1
  O  O337  1  0.99361267  0.99575252  0.38015253  1
  O  O338  1  0.98384500  1.00769778  0.88649007  1
  O  O339  1  0.00219840  0.00862021  0.11932046  1
  O  O340  1  0.00527260  0.00527765  0.61483019  1
  O  O341  1  0.00629295  0.50525409  0.12041150  1
  O  O342  1  0.00195139  0.51507060  0.63306654  1
  O  O343  1  0.51272625  -0.00190615  0.11943356  1
  O  O344  1  0.50216985  0.01457901  0.61930266  1
  O  O345  1  0.51191955  0.48267642  0.10646751  1
  O  O346  1  0.50450044  0.51030621  0.61849794  1
  O  O347  1  0.24142325  0.38066980  0.24550877  1
  O  O348  1  0.25725095  0.40835263  0.77053312  1
  O  O349  1  0.24278047  0.88098010  0.24715260  1
  O  O350  1  0.24339883  0.88134917  0.74633689  1
  O  O351  1  0.74978783  0.37616567  0.24456625  1
  O  O352  1  0.75915570  0.38426848  0.73109012  1
  O  O353  1  0.75863251  0.88716039  0.23840688  1
  O  O354  1  0.73719100  0.87444008  0.74741568  1
  O  O355  1  0.25483487  0.12222044  0.25282210  1
  O  O356  1  0.24668058  0.11460190  0.76888156  1
  O  O357  1  0.24376567  0.61623855  0.26054172  1
  O  O358  1  0.24940623  0.63086043  0.76855437  1
  O  O359  1  0.76093238  0.11305243  0.24117479  1
  O  O360  1  0.73919148  0.12616216  0.76637959  1
  O  O361  1  0.76156678  0.61364544  0.25265178  1
  O  O362  1  0.75979658  0.62321450  0.75783637  1
  O  O363  1  0.36521918  0.12399403  0.35994383  1
  O  O364  1  0.36280942  0.12087853  0.88356637  1
  O  O365  1  0.36126338  0.62356069  0.37521687  1
  O  O366  1  0.35875593  0.63026413  0.88695142  1
  O  O367  1  0.88385279  0.11210762  0.36208235  1
  O  O368  1  0.86272136  0.11399974  0.86995934  1
  O  O369  1  0.87657761  0.61426608  0.36764948  1
  O  O370  1  0.87115194  0.61759819  0.86988583  1
  O  O371  1  0.12878996  0.38047980  0.12948101  1
  O  O372  1  0.14580875  0.38802414  0.58677511  1
  O  O373  1  0.12744018  0.88223373  0.13139822  1
  O  O374  1  0.13509105  0.87337948  0.63411593  1
  O  O375  1  0.63617808  0.37612817  0.12992644  1
  O  O376  1  0.63881686  0.38751765  0.61906586  1
  O  O377  1  0.63463724  0.88546046  0.12305891  1
  O  O378  1  0.62578388  0.88344894  0.63850378  1
  O  O379  1  0.11879855  0.25525231  0.25746979  1
  O  O380  1  0.19484067  0.28032485  0.72801829  1
  O  O381  1  0.11734752  0.75662262  0.25724667  1
  O  O382  1  0.12630671  0.75872964  0.76039696  1
  O  O383  1  0.61715550  0.25205998  0.25523270  1
  O  O384  1  0.61723352  0.24738016  0.76499417  1
  O  O385  1  0.63770119  0.75267940  0.25391592  1
  O  O386  1  0.62676663  0.76302603  0.74942672  1
  O  O387  1  0.38136691  0.24648600  0.24442633  1
  O  O388  1  0.38481432  0.24662844  0.75848117  1
  O  O389  1  0.37472371  0.74600714  0.24560387  1
  O  O390  1  0.37241023  0.75998115  0.73802405  1
  O  O391  1  0.88017919  0.23699524  0.25818663  1
  O  O392  1  0.86187928  0.24371961  0.74477029  1
  O  O393  1  0.87860544  0.73593811  0.25990908  1
  O  O394  1  0.87379623  0.74115337  0.74497405  1
  O  O395  1  0.38899887  0.49621052  0.50166251  1
  O  O396  1  0.38404733  0.49215931  0.99611620  1
  O  O397  1  0.38349271  0.99040030  0.49982830  1
  O  O398  1  0.38280934  0.99715305  1.00963558  1
  O  O399  1  0.87249895  0.49481584  0.48879753  1
  O  O400  1  0.88023357  0.49164655  0.99103644  1
  O  O401  1  0.88772298  0.99879736  0.48982081  1
  O  O402  1  0.87928577  0.99511097  0.99507905  1
  O  O403  1  0.11422467  0.00506630  0.00461267  1
  O  O404  1  0.11565702  0.00350333  0.49779100  1
  O  O405  1  0.12030699  0.50671422  0.00565550  1
  O  O406  1  0.12906330  0.51960976  0.49972041  1
  O  O407  1  0.61763045  0.00658917  0.00576519  1
  O  O408  1  0.61373685  0.00605442  0.49702308  1
  O  O409  1  0.62212019  0.50030817  0.00226965  1
  O  O410  1  0.61037344  0.49505079  0.51178056  1
  O  O411  1  0.36734535  0.37117730  0.11018835  1
  O  O412  1  0.35347896  0.37327751  0.63216932  1
  O  O413  1  0.36429051  0.87576326  0.11602911  1
  O  O414  1  0.37446436  0.86877628  0.61596953  1
  O  O415  1  0.87173459  0.38142996  0.11205316  1
  O  O416  1  0.86515531  0.38160170  0.61103642  1
  O  O417  1  0.86032064  0.88471354  0.11225939  1
  O  O418  1  0.87620445  0.86235165  0.62763359  1
  O  O419  1  0.13295574  0.13229425  0.36850631  1
  O  O420  1  0.12891965  0.11881531  0.88925872  1
  O  O421  1  0.12990265  0.63164101  0.38277350  1
  O  O422  1  0.13319712  0.63638880  0.88381283  1
  O  O423  1  0.61849709  0.13924959  0.37793704  1
  O  O424  1  0.63436484  0.13034494  0.88511132  1
  O  O425  1  0.62714259  0.62401855  0.37987076  1
  O  O426  1  0.63752242  0.62108991  0.87853165  1
