# generated using pymatgen
data_V85Zn86O256
_symmetry_space_group_name_H-M   'P 1'
_cell_length_a   16.97394814
_cell_length_b   16.99642460
_cell_length_c   16.99750970
_cell_angle_alpha   89.87577122
_cell_angle_beta   89.86902988
_cell_angle_gamma   89.94968795
_symmetry_Int_Tables_number   1
_chemical_formula_structural   V85Zn86O256
_chemical_formula_sum   'V85 Zn86 O256'
_cell_volume   4903.69465501
_cell_formula_units_Z   1
loop_
 _symmetry_equiv_pos_site_id
 _symmetry_equiv_pos_as_xyz
  1  'x, y, z'
loop_
 _atom_site_type_symbol
 _atom_site_label
 _atom_site_symmetry_multiplicity
 _atom_site_fract_x
 _atom_site_fract_y
 _atom_site_fract_z
 _atom_site_occupancy
  V  V0  1  0.62477192  0.74577473  0.37951522  1
  V  V1  1  -0.00129373  0.37553580  0.37098599  1
  V  V2  1  0.63424593  0.37756429  0.73957433  1
  V  V3  1  0.00446346  0.11966450  0.11332024  1
  V  V4  1  0.86793454  0.00027618  0.36932226  1
  V  V5  1  0.74893277  0.62574849  0.37647523  1
  V  V6  1  0.87285752  0.50189791  0.87811322  1
  V  V7  1  0.37326317  0.37009983  -0.00174250  1
  V  V8  1  0.37816499  0.87256114  -0.00450085  1
  V  V9  1  -0.00117495  0.87466741  0.37602708  1
  V  V10  1  0.37462758  0.25008845  0.62222780  1
  V  V11  1  0.11716451  0.37332671  0.75042275  1
  V  V12  1  0.62497625  0.50568108  0.11933142  1
  V  V13  1  0.50283705  0.50582876  -0.00076658  1
  V  V14  1  0.87862481  0.62921527  0.23803602  1
  V  V15  1  0.62244260  0.87819988  0.75058896  1
  V  V16  1  0.86995019  0.12049459  0.25006742  1
  V  V17  1  0.25430754  0.75783275  0.50602957  1
  V  V18  1  0.37563619  0.24926727  0.12366799  1
  V  V19  1  0.62546932  0.37556150  0.24858995  1
  V  V20  1  0.50007686  0.24963791  0.24917379  1
  V  V21  1  0.50886682  0.50299761  0.51317413  1
  V  V22  1  0.87390682  0.87718817  0.50017999  1
  V  V23  1  0.62905305  0.87704453  0.25204965  1
  V  V24  1  0.37420398  -0.00252317  0.38438872  1
  V  V25  1  -0.00342683  0.62926404  0.62627129  1
  V  V26  1  0.25298171  0.12686070  0.87964763  1
  V  V27  1  0.00030554  0.24788157  0.24776425  1
  V  V28  1  0.87696880  0.75651474  0.62923285  1
  V  V29  1  -0.00220584  0.74777992  0.23763866  1
  V  V30  1  0.74483549  0.23586173  -0.00209529  1
  V  V31  1  0.49540694  0.87383561  0.38344277  1
  V  V32  1  0.74694150  0.88679640  0.62536331  1
  V  V33  1  0.24993082  0.37640602  0.62267173  1
  V  V34  1  0.25001625  0.50208113  0.75294505  1
  V  V35  1  -0.00115324  0.00222049  0.50112961  1
  V  V36  1  0.37538385  0.37813054  0.49777176  1
  V  V37  1  0.37659218  0.75588993  0.62276828  1
  V  V38  1  0.38163140  -0.00427247  0.87158936  1
  V  V39  1  0.25516439  0.51083088  0.25153645  1
  V  V40  1  0.12483650  0.00370692  0.10503623  1
  V  V41  1  0.51082625  0.12272340  0.61808210  1
  V  V42  1  0.12120907  0.24765047  0.87819570  1
  V  V43  1  0.87571528  0.50047793  0.37265536  1
  V  V44  1  0.50544765  0.12152687  0.12290288  1
  V  V45  1  0.49872421  0.37723706  0.37437018  1
  V  V46  1  0.75168355  0.50105720  0.24801267  1
  V  V47  1  0.49122674  0.74476542  0.25297646  1
  V  V48  1  0.12352154  0.87210026  0.74669373  1
  V  V49  1  0.62373076  0.75099072  0.88623085  1
  V  V50  1  0.74882638  0.24544019  0.50931067  1
  V  V51  1  0.62831705  0.24381188  0.37629381  1
  V  V52  1  0.00760390  0.52375445  0.00426189  1
  V  V53  1  0.12402377  0.25092733  0.37412165  1
  V  V54  1  0.74421454  0.62819221  0.88604150  1
  V  V55  1  0.75053789  0.37442840  0.12067423  1
  V  V56  1  0.25205163  0.87457757  0.12325203  1
  V  V57  1  -0.00080793  0.49998856  0.49809880  1
  V  V58  1  0.12293289  0.50007838  0.62467757  1
  V  V59  1  0.37366884  0.12346416  0.24991375  1
  V  V60  1  0.00569290  0.88302234  0.88311452  1
  V  V61  1  0.38234620  0.62276750  0.74072161  1
  V  V62  1  0.12430393  0.75038662  0.37686236  1
  V  V63  1  0.24918504  0.73887409  -0.01135067  1
  V  V64  1  0.75435832  0.85721508  0.12499591  1
  V  V65  1  0.51571134  0.00448191  0.50084946  1
  V  V66  1  0.37120567  0.50607137  0.87463810  1
  V  V67  1  0.12398505  0.12613344  0.50172610  1
  V  V68  1  0.24531465  0.37646824  0.12574818  1
  V  V69  1  0.50402831  0.37396881  0.87331758  1
  V  V70  1  0.63172886  -0.00232635  0.12763065  1
  V  V71  1  0.50003939  0.25070579  0.74779207  1
  V  V72  1  0.75390538  0.00481999  0.76663228  1
  V  V73  1  -0.00485023  0.25107906  0.74483207  1
  V  V74  1  0.24667222  -0.00021858  0.24986997  1
  V  V75  1  0.50388792  -0.00602350  0.00129267  1
  V  V76  1  0.49353320  0.62369385  0.13016792  1
  V  V77  1  0.50384333  0.74888340  0.74701875  1
  V  V78  1  0.37561560  0.12373920  0.74711275  1
  V  V79  1  0.86962201  0.86711202  -0.00291478  1
  V  V80  1  0.12777979  0.62718612  0.50293838  1
  V  V81  1  -0.01201627  0.12937541  0.62679068  1
  V  V82  1  0.24907370  0.25165845  0.49811653  1
  V  V83  1  0.86916784  0.36877534  0.50679844  1
  V  V84  1  0.88333756  0.37705657  0.00160056  1
  Zn  Zn85  1  0.63673460  0.23438996  0.87334322  1
  Zn  Zn86  1  0.12367715  0.38008015  0.24746836  1
  Zn  Zn87  1  0.25519743  0.88103742  0.62235516  1
  Zn  Zn88  1  0.85873351  0.60075021  0.73039246  1
  Zn  Zn89  1  0.24818645  0.00024260  0.74904063  1
  Zn  Zn90  1  0.74838240  0.74958041  0.50530374  1
  Zn  Zn91  1  0.09986008  0.70793517  0.90385265  1
  Zn  Zn92  1  0.62090580  0.62279524  0.52809565  1
  Zn  Zn93  1  0.12131686  0.87559334  0.24662274  1
  Zn  Zn94  1  -0.00548075  0.74586945  0.76110063  1
  Zn  Zn95  1  0.70788114  0.52971043  0.69711458  1
  Zn  Zn96  1  0.11996877  0.51893799  0.12630953  1
  Zn  Zn97  1  0.87563861  0.24423369  0.12239791  1
  Zn  Zn98  1  0.37151196  0.74327601  0.12667086  1
  Zn  Zn99  1  0.86455126  0.13521932  0.75605397  1
  Zn  Zn100  1  0.24982281  0.12512994  0.37527545  1
  Zn  Zn101  1  0.38196147  0.51355236  0.37066259  1
  Zn  Zn102  1  -0.11856922  0.02109744  -0.09919225  1
  Zn  Zn103  1  0.12632413  0.00355883  0.62897533  1
  Zn  Zn104  1  0.74322658  0.11997534  0.37434085  1
  Zn  Zn105  1  0.25991197  0.63277484  0.37331397  1
  Zn  Zn106  1  0.24513240  0.24576460  0.00187350  1
  Zn  Zn107  1  0.18576096  0.18570930  0.18479241  1
  Zn  Zn108  1  0.18725089  0.18712348  0.68858598  1
  Zn  Zn109  1  0.18357291  0.68922513  0.18241755  1
  Zn  Zn110  1  0.16734654  0.66816748  0.72849680  1
  Zn  Zn111  1  0.68712224  0.18762672  0.18611616  1
  Zn  Zn112  1  0.68614973  0.18880745  0.68964255  1
  Zn  Zn113  1  0.68162770  0.68486212  0.19205297  1
  Zn  Zn114  1  0.69574047  0.69668403  0.69560786  1
  Zn  Zn115  1  0.31169427  0.31488334  0.31068022  1
  Zn  Zn116  1  0.31173169  0.31395807  0.81197965  1
  Zn  Zn117  1  0.31100115  0.81493907  0.31459504  1
  Zn  Zn118  1  0.31285012  0.81035855  0.80926640  1
  Zn  Zn119  1  0.81355997  0.31063946  0.31222844  1
  Zn  Zn120  1  0.81377990  0.31568563  0.81996209  1
  Zn  Zn121  1  0.81336512  0.81137724  0.31111457  1
  Zn  Zn122  1  0.80858451  0.81342153  0.81411606  1
  Zn  Zn123  1  0.18566519  0.43886691  0.43344391  1
  Zn  Zn124  1  0.18270847  0.43602761  0.93550438  1
  Zn  Zn125  1  0.18509375  0.93796903  0.43690260  1
  Zn  Zn126  1  0.19516696  0.93313790  0.93048617  1
  Zn  Zn127  1  0.68751537  0.43436780  0.43699141  1
  Zn  Zn128  1  0.68899034  0.43522357  0.93299807  1
  Zn  Zn129  1  0.68842052  0.93451223  0.43720480  1
  Zn  Zn130  1  0.68715376  0.93180910  0.94110590  1
  Zn  Zn131  1  0.31635437  0.06075202  0.06130201  1
  Zn  Zn132  1  0.31254120  0.06311506  0.56486309  1
  Zn  Zn133  1  0.31194909  0.55871142  0.06446379  1
  Zn  Zn134  1  0.31549008  0.56531379  0.56015584  1
  Zn  Zn135  1  0.81712103  0.05480115  0.06836693  1
  Zn  Zn136  1  0.81023599  0.06522278  0.56165353  1
  Zn  Zn137  1  0.81203855  0.56480820  0.05869900  1
  Zn  Zn138  1  0.80848599  0.56266786  0.55938772  1
  Zn  Zn139  1  0.43475389  0.43672415  0.18669390  1
  Zn  Zn140  1  0.43860909  0.43470905  0.68730717  1
  Zn  Zn141  1  0.43748332  0.93393180  0.19132156  1
  Zn  Zn142  1  0.44393460  0.93779604  0.68489174  1
  Zn  Zn143  1  0.93792599  0.44051037  0.18364965  1
  Zn  Zn144  1  0.91389073  0.44503991  0.67693300  1
  Zn  Zn145  1  0.93913767  0.93742404  0.18404247  1
  Zn  Zn146  1  0.93859030  0.94170016  0.69197489  1
  Zn  Zn147  1  0.05937006  0.06313999  0.31166314  1
  Zn  Zn148  1  0.06162393  0.06377020  0.81385782  1
  Zn  Zn149  1  0.06721408  0.56567911  0.30944994  1
  Zn  Zn150  1  0.04928764  0.55275045  0.81410038  1
  Zn  Zn151  1  0.55948225  0.06044522  0.31109608  1
  Zn  Zn152  1  0.56769353  0.06124229  0.80995594  1
  Zn  Zn153  1  0.56374788  0.56134122  0.31171076  1
  Zn  Zn154  1  0.56353506  0.56461370  0.81262303  1
  Zn  Zn155  1  0.43722436  0.18596861  0.43668697  1
  Zn  Zn156  1  0.47075904  0.16575888  0.91905721  1
  Zn  Zn157  1  0.43704331  0.68294180  0.44314408  1
  Zn  Zn158  1  0.43875774  0.68827426  0.93488977  1
  Zn  Zn159  1  0.93556315  0.18668923  0.43507747  1
  Zn  Zn160  1  0.93302955  0.19616319  0.93465738  1
  Zn  Zn161  1  0.93573588  0.68866356  0.43784770  1
  Zn  Zn162  1  0.92599654  0.69232371  0.94007508  1
  Zn  Zn163  1  0.06311838  0.30964225  0.06377857  1
  Zn  Zn164  1  0.05887442  0.31387139  0.56214059  1
  Zn  Zn165  1  0.06724105  0.81454426  0.05904567  1
  Zn  Zn166  1  0.06325170  0.81423503  0.56348420  1
  Zn  Zn167  1  0.56347565  0.31365792  0.06076925  1
  Zn  Zn168  1  0.56559184  0.31369822  0.56108531  1
  Zn  Zn169  1  0.56143741  0.81183156  0.06882386  1
  Zn  Zn170  1  0.56320371  0.81345261  0.56574577  1
  O  O171  1  0.11789706  0.11517858  0.12683926  1
  O  O172  1  0.11818239  0.12657256  0.61277350  1
  O  O173  1  0.12470895  0.62884677  0.11519129  1
  O  O174  1  0.11448995  0.61984253  0.62548087  1
  O  O175  1  0.61372948  0.11335939  0.13533752  1
  O  O176  1  0.60921819  0.13062168  0.62704033  1
  O  O177  1  0.61599048  0.61145033  0.12872058  1
  O  O178  1  0.66671078  0.61227265  0.62758134  1
  O  O179  1  0.38652476  0.37414414  0.37875232  1
  O  O180  1  0.38189702  0.38542552  0.87935753  1
  O  O181  1  0.38734257  0.88378048  0.36965905  1
  O  O182  1  0.36876389  0.88384698  0.88391857  1
  O  O183  1  0.88083888  0.38250390  0.37582751  1
  O  O184  1  0.86179783  0.39185486  0.89228213  1
  O  O185  1  0.87799589  0.88172614  0.37919783  1
  O  O186  1  0.87896297  0.87213762  0.88850107  1
  O  O187  1  0.25752364  -0.00126624  0.36720954  1
  O  O188  1  0.26321505  0.00867778  0.87218685  1
  O  O189  1  0.24966494  0.50095913  0.36008467  1
  O  O190  1  0.26021246  0.48983645  0.86402122  1
  O  O191  1  0.76296242  0.00137271  0.37895217  1
  O  O192  1  0.75136430  -0.00346023  0.86854572  1
  O  O193  1  0.75308473  0.50650041  0.36726608  1
  O  O194  1  0.76020176  0.51109832  0.88208486  1
  O  O195  1  0.24913000  0.49190777  0.13428721  1
  O  O196  1  0.24460108  0.49543910  0.63083986  1
  O  O197  1  0.24481774  0.99573608  0.13058826  1
  O  O198  1  0.24721193  0.99693320  0.62997081  1
  O  O199  1  0.74247344  0.49479297  0.12717171  1
  O  O200  1  0.81053344  0.50609846  0.65502947  1
  O  O201  1  0.73433961  0.99086617  0.12319592  1
  O  O202  1  0.75404886  0.99024805  0.63005634  1
  O  O203  1  -0.00023231  0.36521681  0.25119774  1
  O  O204  1  0.01320062  0.36867338  0.73814498  1
  O  O205  1  -0.00127231  0.86286572  0.25673580  1
  O  O206  1  0.00645172  0.87539913  0.76213772  1
  O  O207  1  0.50377708  0.36982621  0.25515844  1
  O  O208  1  0.50607303  0.36850050  0.75487076  1
  O  O209  1  0.50877418  0.86624264  0.26003905  1
  O  O210  1  0.51250306  0.86599721  0.74723567  1
  O  O211  1  0.49324897  0.12878303  0.24109470  1
  O  O212  1  0.49367089  0.13272822  0.73866794  1
  O  O213  1  0.50607561  0.63386891  0.24302547  1
  O  O214  1  0.49198581  0.63191501  0.75057056  1
  O  O215  1  0.99310875  0.13270027  0.24479768  1
  O  O216  1  1.00330937  0.13485317  0.73977592  1
  O  O217  1  0.99323977  0.63929096  0.25527990  1
  O  O218  1  0.98541797  0.62296676  0.73310083  1
  O  O219  1  0.37768912  0.26433235  0.00391718  1
  O  O220  1  0.36935544  0.25688343  0.50239709  1
  O  O221  1  0.37110801  0.75788468  0.00179616  1
  O  O222  1  0.36872681  0.74646901  0.51201395  1
  O  O223  1  0.86193376  0.26089232  0.00363729  1
  O  O224  1  0.86336997  0.26171866  0.48685556  1
  O  O225  1  0.87788802  0.76767560  0.01030848  1
  O  O226  1  0.87345686  0.76048972  0.50783105  1
  O  O227  1  0.12814700  0.24452333  0.49443242  1
  O  O228  1  0.12643700  0.25758373  0.98136527  1
  O  O229  1  0.13156707  0.74681525  0.49517080  1
  O  O230  1  0.14291248  0.75476055  0.99719733  1
  O  O231  1  0.63977063  0.26002228  0.48916761  1
  O  O232  1  0.64124607  0.25508539  1.00220100  1
  O  O233  1  0.62453478  0.74401440  0.49036951  1
  O  O234  1  0.61483711  0.75620741  0.98452986  1
  O  O235  1  0.49736888  0.24176200  0.12837560  1
  O  O236  1  0.49485196  0.24568604  0.62930897  1
  O  O237  1  0.50043488  0.74002903  0.13524886  1
  O  O238  1  0.49391929  0.75183805  0.63640382  1
  O  O239  1  1.00102623  0.24072374  0.13469923  1
  O  O240  1  1.00537122  0.24098290  0.63301062  1
  O  O241  1  1.00596842  0.75805826  0.14021516  1
  O  O242  1  0.99357695  0.74384602  0.62428082  1
  O  O243  1  0.00353239  0.25423305  0.36567789  1
  O  O244  1  0.01726917  0.24536643  0.86405606  1
  O  O245  1  0.00930298  0.75611572  0.37537940  1
  O  O246  1  -0.00197898  0.76108824  0.87678870  1
  O  O247  1  0.50684697  0.25831684  0.37097060  1
  O  O248  1  0.48583874  0.26590493  0.86122197  1
  O  O249  1  0.50591348  0.75568145  0.37297744  1
  O  O250  1  0.51359950  0.74216850  0.86242933  1
  O  O251  1  0.24007716  0.13221849  0.49850073  1
  O  O252  1  0.26161311  0.12802515  0.98485830  1
  O  O253  1  0.24321284  0.63671950  0.50065371  1
  O  O254  1  0.26209518  0.64092227  1.00454126  1
  O  O255  1  0.75898872  0.14187638  0.49253802  1
  O  O256  1  0.75579717  0.13844828  1.01412783  1
  O  O257  1  0.74934006  0.62491547  0.48364744  1
  O  O258  1  0.74946896  0.62629013  0.98698365  1
  O  O259  1  0.25895706  0.37742182  0.00698942  1
  O  O260  1  0.25419418  0.37211666  0.50298903  1
  O  O261  1  0.26020462  0.86833957  0.00601107  1
  O  O262  1  0.24371711  0.86263343  0.50168084  1
  O  O263  1  0.75537793  0.37501294  0.01125765  1
  O  O264  1  0.76265695  0.36851509  0.49563574  1
  O  O265  1  0.75682654  0.87091596  0.01365869  1
  O  O266  1  0.75461728  0.87437116  0.50908481  1
  O  O267  1  0.13603507  0.49801204  0.24544051  1
  O  O268  1  0.13046533  0.49033657  0.74467413  1
  O  O269  1  0.13825187  0.99830032  0.25160453  1
  O  O270  1  0.12532008  0.98893550  0.75097774  1
  O  O271  1  0.63133980  0.49455221  0.24037409  1
  O  O272  1  0.62270568  0.48297345  0.75697787  1
  O  O273  1  0.61642018  0.98540159  0.24321177  1
  O  O274  1  0.63573672  0.98782003  0.75852977  1
  O  O275  1  0.36606572  0.00277570  0.25692054  1
  O  O276  1  0.37977073  0.00372976  0.75841348  1
  O  O277  1  0.35979493  0.49445331  0.25073033  1
  O  O278  1  0.37126228  0.50294012  0.75448600  1
  O  O279  1  0.88306818  0.00735044  0.25979704  1
  O  O280  1  0.85791084  -0.00204219  0.75434834  1
  O  O281  1  0.87187302  0.50892539  0.25385515  1
  O  O282  1  0.89449856  0.49283208  0.77925686  1
  O  O283  1  0.11612755  0.36799080  0.37296941  1
  O  O284  1  0.13448018  0.36021536  0.85988960  1
  O  O285  1  0.11802104  0.86610630  0.37291075  1
  O  O286  1  0.11258337  0.87774888  0.86909314  1
  O  O287  1  0.61698957  0.36676165  0.36772869  1
  O  O288  1  0.61211171  0.36984158  0.87152204  1
  O  O289  1  0.61914178  0.86588151  0.36990921  1
  O  O290  1  0.63462474  0.85883185  0.86496698  1
  O  O291  1  0.38235026  0.12863984  0.13160128  1
  O  O292  1  0.38099537  0.13284856  0.62905148  1
  O  O293  1  0.38976855  0.62292041  0.12490550  1
  O  O294  1  0.37438425  0.63483111  0.63470604  1
  O  O295  1  0.88569463  0.12131588  0.13577652  1
  O  O296  1  0.88445593  0.12397565  0.63180955  1
  O  O297  1  0.86733388  0.62371291  0.13973681  1
  O  O298  1  0.88240077  0.64303715  0.61532593  1
  O  O299  1  0.25617631  0.25683106  0.12172876  1
  O  O300  1  0.25428334  0.25595724  0.61798151  1
  O  O301  1  0.25316363  0.76231650  0.11956076  1
  O  O302  1  0.25991648  0.75458129  0.61713587  1
  O  O303  1  0.75043839  0.26053201  0.11872003  1
  O  O304  1  0.74587668  0.24578103  0.60829780  1
  O  O305  1  0.74247768  0.75878057  0.12808588  1
  O  O306  1  0.76144089  0.76601431  0.62513669  1
  O  O307  1  0.24354366  0.24927234  0.37986119  1
  O  O308  1  0.24432343  0.24363024  0.87468424  1
  O  O309  1  0.24020995  0.75359453  0.38187698  1
  O  O310  1  0.25668410  0.74928055  0.88858041  1
  O  O311  1  0.73989329  0.24993471  0.37730418  1
  O  O312  1  0.75091953  0.24976836  0.89267011  1
  O  O313  1  0.74104873  0.74343385  0.37525099  1
  O  O314  1  0.73831882  0.73979420  0.87287417  1
  O  O315  1  -0.00828838  0.13459522  0.01591037  1
  O  O316  1  0.00432120  0.12439389  0.50716095  1
  O  O317  1  0.00154968  0.62346421  -0.00206807  1
  O  O318  1  0.00558369  0.62101597  0.50731179  1
  O  O319  1  0.48919336  0.10838784  0.01783517  1
  O  O320  1  0.49507554  0.11730570  0.50650263  1
  O  O321  1  0.49501103  0.61111312  0.00735017  1
  O  O322  1  0.50709254  0.60776763  0.49761634  1
  O  O323  1  0.49668366  0.38160852  0.49169101  1
  O  O324  1  0.49246204  0.38280292  0.99381640  1
  O  O325  1  0.50728334  0.88348112  0.48913937  1
  O  O326  1  0.48747517  0.88168328  1.01051081  1
  O  O327  1  0.99037434  0.37843751  0.49095734  1
  O  O328  1  0.98402900  0.36795279  1.00493430  1
  O  O329  1  0.99452221  0.88242949  0.49560314  1
  O  O330  1  0.99304822  0.87282579  0.98928923  1
  O  O331  1  0.50213750  0.48703935  0.37668734  1
  O  O332  1  0.49369512  0.49299016  0.88145065  1
  O  O333  1  0.49346864  0.99330980  0.38111077  1
  O  O334  1  0.48932716  1.00171239  0.88708382  1
  O  O335  1  0.99656927  0.49707360  0.37871012  1
  O  O336  1  0.98577937  0.50380991  0.89541098  1
  O  O337  1  0.99176208  0.99404859  0.38033153  1
  O  O338  1  0.99483360  0.98628550  0.87270577  1
  O  O339  1  0.01441669  0.00663364  0.13064862  1
  O  O340  1  0.00081924  0.01196388  0.61909317  1
  O  O341  1  0.00090460  0.49795050  0.10823413  1
  O  O342  1  0.00077863  0.50849646  0.61724566  1
  O  O343  1  0.50654032  0.00242792  0.12196438  1
  O  O344  1  0.49445768  0.00917136  0.61137496  1
  O  O345  1  0.50559733  0.50351557  0.11970183  1
  O  O346  1  0.49979641  0.49392883  0.61193196  1
  O  O347  1  0.24787301  0.38089633  0.23923786  1
  O  O348  1  0.24495751  0.38345419  0.74146704  1
  O  O349  1  0.25070764  0.88308430  0.23949558  1
  O  O350  1  0.23323538  0.87467332  0.75387417  1
  O  O351  1  0.74715034  0.38037099  0.23979960  1
  O  O352  1  0.73260467  0.36504592  0.75699769  1
  O  O353  1  0.73880806  0.86784155  0.24084134  1
  O  O354  1  0.74424887  0.88578769  0.74503654  1
  O  O355  1  0.25490893  0.11548907  0.25092998  1
  O  O356  1  0.25935610  0.12552930  0.75837628  1
  O  O357  1  0.24840976  0.61301089  0.24761252  1
  O  O358  1  0.26486634  0.60759721  0.74392412  1
  O  O359  1  0.76594043  0.13195519  0.25037422  1
  O  O360  1  0.74536043  0.10890270  0.74620558  1
  O  O361  1  0.75697571  0.62201458  0.25839787  1
  O  O362  1  0.75311642  0.62328950  0.76812496  1
  O  O363  1  0.37439366  0.11530210  0.36733251  1
  O  O364  1  0.37406177  0.11646122  0.86651158  1
  O  O365  1  0.37260659  0.62568036  0.37398637  1
  O  O366  1  0.38156272  0.61058996  0.86506003  1
  O  O367  1  0.87666253  0.11538109  0.36617687  1
  O  O368  1  0.88163648  0.12593118  0.86720302  1
  O  O369  1  0.86679002  0.62058893  0.36878221  1
  O  O370  1  0.86358676  0.61579560  0.87881602  1
  O  O371  1  0.13803990  0.37493607  0.12241645  1
  O  O372  1  0.13041472  0.38059042  0.62890142  1
  O  O373  1  0.13608229  0.88542424  0.12568326  1
  O  O374  1  0.12169790  0.88102485  0.63788511  1
  O  O375  1  0.63108703  0.38438573  0.12933840  1
  O  O376  1  0.62425432  0.37152260  0.63997915  1
  O  O377  1  0.63285068  0.87720192  0.13355916  1
  O  O378  1  0.63626323  0.86862028  0.63689918  1
  O  O379  1  0.11496079  0.24938787  0.25513062  1
  O  O380  1  0.11955250  0.25697466  0.75391309  1
  O  O381  1  0.11426798  0.75099003  0.26019046  1
  O  O382  1  0.11532910  0.76820986  0.74593911  1
  O  O383  1  0.61937384  0.25666819  0.25481241  1
  O  O384  1  0.61418245  0.25832299  0.75353250  1
  O  O385  1  0.61484270  0.75685554  0.26092742  1
  O  O386  1  0.61869695  0.75778343  0.75584318  1
  O  O387  1  0.38079131  0.24501819  0.24379349  1
  O  O388  1  0.38240368  0.24766223  0.74174891  1
  O  O389  1  0.38819783  0.75850111  0.24790954  1
  O  O390  1  0.38317464  0.74088835  0.74659137  1
  O  O391  1  0.88582843  0.24182233  0.24855848  1
  O  O392  1  0.89188373  0.25729316  0.75911820  1
  O  O393  1  0.88963821  0.74397483  0.25627839  1
  O  O394  1  0.87645075  0.75750570  0.73586989  1
  O  O395  1  0.38733519  0.49450022  0.49672983  1
  O  O396  1  0.38159231  0.49107391  0.99314794  1
  O  O397  1  0.37734252  1.00311139  0.48650620  1
  O  O398  1  0.38187314  0.99056135  0.99330947  1
  O  O399  1  0.87872686  0.48765489  0.49159551  1
  O  O400  1  0.88621240  0.49697696  0.99846495  1
  O  O401  1  0.88019626  0.99703961  0.49106550  1
  O  O402  1  0.87203590  0.97930168  1.00559007  1
  O  O403  1  0.13404530  -0.00328489  0.00682576  1
  O  O404  1  0.11775653  0.01124288  0.49836271  1
  O  O405  1  0.10863114  0.49778401  -0.00506035  1
  O  O406  1  0.11989273  0.50599782  0.50508828  1
  O  O407  1  0.61196645  -0.01373451  0.01121410  1
  O  O408  1  0.61489234  0.00411928  0.49031253  1
  O  O409  1  0.61378830  0.49037284  0.00856684  1
  O  O410  1  0.61250893  0.49499522  0.49759628  1
  O  O411  1  0.36818877  0.37031685  0.11674468  1
  O  O412  1  0.36955142  0.36944689  0.61815853  1
  O  O413  1  0.36550010  0.87763144  0.11604863  1
  O  O414  1  0.37369046  0.86032141  0.63690886  1
  O  O415  1  0.86373051  0.37553778  0.11979190  1
  O  O416  1  0.88310369  0.36399303  0.60439037  1
  O  O417  1  0.85831228  0.87697469  0.12499812  1
  O  O418  1  0.87083248  0.87406876  0.61922843  1
  O  O419  1  0.12264788  0.13136678  0.38666476  1
  O  O420  1  0.13774746  0.13877665  0.86646035  1
  O  O421  1  0.12744458  0.63746713  0.38279102  1
  O  O422  1  0.12617577  0.63060330  0.83180622  1
  O  O423  1  0.62384562  0.13869703  0.36529928  1
  O  O424  1  0.57996934  0.13996348  0.88505195  1
  O  O425  1  0.63448664  0.63381968  0.36878114  1
  O  O426  1  0.63418574  0.63461758  0.87333257  1
