# generated using pymatgen
data_V85Zn86O256
_symmetry_space_group_name_H-M   'P 1'
_cell_length_a   16.98032366
_cell_length_b   16.98561379
_cell_length_c   16.96507779
_cell_angle_alpha   90.13098392
_cell_angle_beta   89.93399210
_cell_angle_gamma   90.01285352
_symmetry_Int_Tables_number   1
_chemical_formula_structural   V85Zn86O256
_chemical_formula_sum   'V85 Zn86 O256'
_cell_volume   4893.07227563
_cell_formula_units_Z   1
loop_
 _symmetry_equiv_pos_site_id
 _symmetry_equiv_pos_as_xyz
  1  'x, y, z'
loop_
 _atom_site_type_symbol
 _atom_site_label
 _atom_site_symmetry_multiplicity
 _atom_site_fract_x
 _atom_site_fract_y
 _atom_site_fract_z
 _atom_site_occupancy
  V  V0  1  0.50376253  0.87786749  0.37001396  1
  V  V1  1  0.37282051  0.50068484  0.87280523  1
  V  V2  1  0.62674945  0.12313932  0.49591145  1
  V  V3  1  0.24721187  -0.00224198  0.75249495  1
  V  V4  1  0.74801667  0.74753918  0.49659807  1
  V  V5  1  0.62616662  -0.00908293  0.12565456  1
  V  V6  1  0.61696054  0.74210390  0.87224650  1
  V  V7  1  0.87685588  0.62474157  0.24839308  1
  V  V8  1  0.37861917  0.75739271  0.11595236  1
  V  V9  1  0.11597119  0.87191217  0.75052906  1
  V  V10  1  0.25340398  0.12105083  0.87555093  1
  V  V11  1  0.12315898  0.25043035  0.87485244  1
  V  V12  1  0.11588124  0.74949201  0.87012473  1
  V  V13  1  0.12767345  0.87423829  0.24907342  1
  V  V14  1  0.24920620  0.00036341  0.24966394  1
  V  V15  1  0.00428553  0.62396043  0.12655647  1
  V  V16  1  0.13260432  0.48684457  0.12209989  1
  V  V17  1  0.51058493  0.63115633  0.12062529  1
  V  V18  1  0.74646986  0.49984061  0.75118510  1
  V  V19  1  0.63284038  0.48536523  0.12685431  1
  V  V20  1  0.76014717  0.74963967  -0.01038892  1
  V  V21  1  0.12582716  0.37115138  0.27453340  1
  V  V22  1  0.75056809  0.25636376  0.00455562  1
  V  V23  1  0.24913905  0.87221146  0.61166334  1
  V  V24  1  -0.00299450  0.62735307  0.62845033  1
  V  V25  1  0.50438507  0.49971855  -0.00219780  1
  V  V26  1  0.37616449  0.12629153  0.25107109  1
  V  V27  1  0.50030160  0.12354657  0.12501514  1
  V  V28  1  0.12853363  0.62494522  0.00019196  1
  V  V29  1  0.48905947  0.37635871  0.37687892  1
  V  V30  1  0.25017123  0.25308599  0.00131311  1
  V  V31  1  0.62438414  0.75404266  0.36496815  1
  V  V32  1  0.12699803  0.50148499  0.62980789  1
  V  V33  1  0.61892189  0.49832699  0.61822393  1
  V  V34  1  0.87667529  0.87310094  0.49596301  1
  V  V35  1  0.00051489  0.49916685  0.49211568  1
  V  V36  1  0.49507503  -0.00452292  0.50319954  1
  V  V37  1  0.62645384  0.25362593  0.37038563  1
  V  V38  1  0.49597499  0.75281181  0.24691924  1
  V  V39  1  -0.00058251  0.24394830  0.74234503  1
  V  V40  1  0.00192949  0.74871314  0.25327884  1
  V  V41  1  0.74915219  0.48473187  0.24454726  1
  V  V42  1  0.74891664  -0.00113158  0.75432434  1
  V  V43  1  0.74711771  0.62436568  0.36916194  1
  V  V44  1  0.25397566  0.75868113  -0.00434667  1
  V  V45  1  0.37353820  0.37502052  0.00017018  1
  V  V46  1  0.86942944  0.62380248  0.75164039  1
  V  V47  1  0.14143305  0.74916960  0.37733340  1
  V  V48  1  0.11972518  0.12525728  0.51097276  1
  V  V49  1  0.74970877  0.24438762  0.49841543  1
  V  V50  1  0.61698341  0.86903815  0.75196882  1
  V  V51  1  0.49887013  0.36982004  0.86621966  1
  V  V52  1  0.37455511  0.12623852  0.75073156  1
  V  V53  1  0.49902695  0.63203125  0.62570979  1
  V  V54  1  0.37147004  0.25225148  0.12504515  1
  V  V55  1  0.88082806  0.37361759  0.49583048  1
  V  V56  1  0.36987437  0.75197402  0.61298399  1
  V  V57  1  0.62076721  -0.00289423  0.62654462  1
  V  V58  1  0.74971516  0.37359043  0.62256939  1
  V  V59  1  0.76065990  0.87508994  0.11907839  1
  V  V60  1  0.12435462  0.37737527  0.75091672  1
  V  V61  1  -0.00674441  -0.00615779  -0.00027706  1
  V  V62  1  0.12431740  0.12619724  0.00254126  1
  V  V63  1  0.13234474  0.63281030  0.49884687  1
  V  V64  1  0.62180566  0.62400948  0.49721362  1
  V  V65  1  0.00131515  0.12964470  0.12976899  1
  V  V66  1  0.37478753  0.62691374  0.74796870  1
  V  V67  1  0.87823445  0.12129344  0.74522052  1
  V  V68  1  0.49839288  0.12846974  0.62895982  1
  V  V69  1  0.87510985  0.49942213  0.37411299  1
  V  V70  1  0.87147420  0.49723848  0.87424174  1
  V  V71  1  0.25211030  0.37699429  0.62652270  1
  V  V72  1  0.37711002  0.25384894  0.62442198  1
  V  V73  1  0.24283812  0.12894771  0.37765662  1
  V  V74  1  0.48824828  -0.00639438  -0.00841285  1
  V  V75  1  0.25054566  0.25149589  0.50025175  1
  V  V76  1  0.24747242  0.61955642  0.86714747  1
  V  V77  1  0.62767998  0.12180541  -0.00238306  1
  V  V78  1  0.74694509  -0.00331891  0.25716090  1
  V  V79  1  0.87205606  0.12388171  0.25857296  1
  V  V80  1  0.87187373  0.25629686  0.12728253  1
  V  V81  1  0.87469668  0.74746227  0.62765691  1
  V  V82  1  0.74704925  0.87207442  0.62438639  1
  V  V83  1  0.62206145  0.24859263  0.86792461  1
  V  V84  1  0.37575871  -0.00232935  0.37990313  1
  Zn  Zn85  1  0.47804718  0.86336317  0.88338193  1
  Zn  Zn86  1  0.88114561  0.75437343  0.11849140  1
  Zn  Zn87  1  0.25712887  0.88108536  0.11665860  1
  Zn  Zn88  1  0.75322639  0.12584514  0.87484998  1
  Zn  Zn89  1  0.29337370  0.42548188  0.18008405  1
  Zn  Zn90  1  -0.00248313  0.49661471  -0.00190255  1
  Zn  Zn91  1  0.11410345  0.00125756  0.62902023  1
  Zn  Zn92  1  0.87356307  0.00223448  0.37860964  1
  Zn  Zn93  1  0.86891674  -0.00706849  0.88163521  1
  Zn  Zn94  1  0.00000819  0.87862802  0.37520305  1
  Zn  Zn95  1  0.88008910  0.24476438  0.62295183  1
  Zn  Zn96  1  0.34119705  0.58150736  0.29283254  1
  Zn  Zn97  1  -0.00510162  0.37249688  0.87562026  1
  Zn  Zn98  1  0.00387191  0.25391928  0.27599729  1
  Zn  Zn99  1  0.63555676  0.61943951  -0.01018343  1
  Zn  Zn100  1  -0.00651412  0.00719894  0.50346207  1
  Zn  Zn101  1  -0.00994831  0.86620441  0.87576226  1
  Zn  Zn102  1  0.87230538  0.37914857  0.00567107  1
  Zn  Zn103  1  0.12497166  0.00137256  0.12637569  1
  Zn  Zn104  1  0.50803273  0.25612746  0.24449098  1
  Zn  Zn105  1  0.47375085  0.49839173  0.48807474  1
  Zn  Zn106  1  0.61887311  0.36653724  0.74239655  1
  Zn  Zn107  1  0.18519688  0.19522939  0.19301324  1
  Zn  Zn108  1  0.18871758  0.19109106  0.68874464  1
  Zn  Zn109  1  0.19884908  0.68774811  0.18501229  1
  Zn  Zn110  1  0.18770072  0.69132463  0.68641589  1
  Zn  Zn111  1  0.69151266  0.18188771  0.18696328  1
  Zn  Zn112  1  0.68956466  0.18269128  0.68479822  1
  Zn  Zn113  1  0.69046706  0.68736937  0.18239607  1
  Zn  Zn114  1  0.68656926  0.68626755  0.68774629  1
  Zn  Zn115  1  0.31237458  0.30972779  0.31350341  1
  Zn  Zn116  1  0.31076964  0.31075265  0.81162979  1
  Zn  Zn117  1  0.31838483  0.81423486  0.31058964  1
  Zn  Zn118  1  0.30490452  0.80511446  0.80849466  1
  Zn  Zn119  1  0.81702485  0.30651541  0.31697638  1
  Zn  Zn120  1  0.80956255  0.30955861  0.81226074  1
  Zn  Zn121  1  0.81127692  0.81385605  0.30626333  1
  Zn  Zn122  1  0.81161283  0.81466163  0.81228376  1
  Zn  Zn123  1  0.20458396  0.44784252  0.44572274  1
  Zn  Zn124  1  0.18826052  0.43720810  0.93889117  1
  Zn  Zn125  1  0.18254904  0.94152540  0.43428834  1
  Zn  Zn126  1  0.17868871  0.93943401  0.93482902  1
  Zn  Zn127  1  0.68792723  0.43600795  0.43297920  1
  Zn  Zn128  1  0.68674218  0.43330116  0.93551225  1
  Zn  Zn129  1  0.68610139  0.93503498  0.44028625  1
  Zn  Zn130  1  0.68237037  0.92960900  0.93722839  1
  Zn  Zn131  1  0.31170632  0.06542216  0.06247644  1
  Zn  Zn132  1  0.30839745  0.06067617  0.56670118  1
  Zn  Zn133  1  0.33565659  0.55414708  0.08943053  1
  Zn  Zn134  1  0.30787846  0.56571069  0.56608657  1
  Zn  Zn135  1  0.81338980  0.06685161  0.06908810  1
  Zn  Zn136  1  0.81053731  0.05858209  0.56685748  1
  Zn  Zn137  1  0.81175681  0.56682590  0.06228364  1
  Zn  Zn138  1  0.80885375  0.56087136  0.56029096  1
  Zn  Zn139  1  0.46041721  0.44128281  0.19746794  1
  Zn  Zn140  1  0.43472674  0.44318283  0.68845200  1
  Zn  Zn141  1  0.43893064  0.93778244  0.18734128  1
  Zn  Zn142  1  0.41088437  0.91451592  0.72479405  1
  Zn  Zn143  1  0.94720243  0.43831751  0.19393509  1
  Zn  Zn144  1  0.93943130  0.43601567  0.68478867  1
  Zn  Zn145  1  0.93796405  0.93986663  0.18774878  1
  Zn  Zn146  1  0.93557269  0.93895298  0.68311346  1
  Zn  Zn147  1  0.05794679  0.06201213  0.31882933  1
  Zn  Zn148  1  0.06194811  0.06292307  0.81462971  1
  Zn  Zn149  1  0.14714515  0.56854293  0.30169841  1
  Zn  Zn150  1  0.05597305  0.56279834  0.81258976  1
  Zn  Zn151  1  0.56503075  0.06439305  0.31158426  1
  Zn  Zn152  1  0.56045207  0.06017847  0.81165313  1
  Zn  Zn153  1  0.53322895  0.57663948  0.32284421  1
  Zn  Zn154  1  0.55959549  0.56071221  0.80733638  1
  Zn  Zn155  1  0.43780878  0.18830893  0.43983804  1
  Zn  Zn156  1  0.43826465  0.18567158  0.93779266  1
  Zn  Zn157  1  0.43164589  0.68501298  0.43753717  1
  Zn  Zn158  1  0.43613859  0.68256450  0.93938105  1
  Zn  Zn159  1  0.94037765  0.19018757  0.43620844  1
  Zn  Zn160  1  0.93570421  0.18288914  0.93477215  1
  Zn  Zn161  1  0.94141075  0.68522294  0.43691944  1
  Zn  Zn162  1  0.93532284  0.68043053  0.93685574  1
  Zn  Zn163  1  0.05365328  0.31095073  0.05806160  1
  Zn  Zn164  1  0.06544998  0.31105598  0.55613305  1
  Zn  Zn165  1  0.06764194  0.81208126  0.06359366  1
  Zn  Zn166  1  0.06027074  0.81373061  0.56574550  1
  Zn  Zn167  1  0.55952098  0.31018102  0.05519907  1
  Zn  Zn168  1  0.55860585  0.31372710  0.55483056  1
  Zn  Zn169  1  0.56878987  0.81337684  0.05462985  1
  Zn  Zn170  1  0.55977832  0.81179879  0.55925290  1
  O  O171  1  0.11676209  0.12834889  0.12350736  1
  O  O172  1  0.13323255  0.12326349  0.61418689  1
  O  O173  1  0.12201132  0.61968437  0.11701338  1
  O  O174  1  0.11587642  0.62270549  0.62153559  1
  O  O175  1  0.61796050  0.11728000  0.11608841  1
  O  O176  1  0.61546078  0.11973807  0.61883310  1
  O  O177  1  0.62017015  0.62443244  0.11442894  1
  O  O178  1  0.61686619  0.61921350  0.61986388  1
  O  O179  1  0.38941659  0.36895137  0.37200230  1
  O  O180  1  0.38040922  0.37871257  0.87697542  1
  O  O181  1  0.38601461  0.88936968  0.37074068  1
  O  O182  1  0.38199884  0.88080111  0.83203633  1
  O  O183  1  0.86472708  0.38392484  0.38987935  1
  O  O184  1  0.87222350  0.38690769  0.87176640  1
  O  O185  1  0.87304578  0.87185756  0.38546793  1
  O  O186  1  0.88030012  0.88115087  0.86750826  1
  O  O187  1  0.25810048  0.00731273  0.36888060  1
  O  O188  1  0.24222002  0.01220483  0.86769207  1
  O  O189  1  0.29991150  0.50606845  0.41355361  1
  O  O190  1  0.25709064  0.51274520  0.88388680  1
  O  O191  1  0.74623186  -0.00609068  0.35996170  1
  O  O192  1  0.74447587  -0.00119649  0.86404076  1
  O  O193  1  0.75277172  0.50598286  0.36441295  1
  O  O194  1  0.75289856  0.49330028  0.85917722  1
  O  O195  1  0.23546284  0.50045509  0.10896288  1
  O  O196  1  0.23648414  0.49138816  0.62123414  1
  O  O197  1  0.24991393  1.00142472  0.13757262  1
  O  O198  1  0.24492761  0.98788343  0.63369071  1
  O  O199  1  0.74088925  0.50085329  0.12765818  1
  O  O200  1  0.74152698  0.49084265  0.62869863  1
  O  O201  1  0.74385134  0.99305745  0.12719066  1
  O  O202  1  0.73979604  0.99242457  0.63398605  1
  O  O203  1  0.02211929  0.37501602  0.24982412  1
  O  O204  1  0.00914283  0.36672749  0.75071177  1
  O  O205  1  0.00963589  0.86664963  0.24869199  1
  O  O206  1  0.01377972  0.88129576  0.74907930  1
  O  O207  1  0.50771947  0.36825837  0.26600447  1
  O  O208  1  0.49965121  0.37850488  0.76183716  1
  O  O209  1  0.50168649  0.86979619  0.25987391  1
  O  O210  1  0.51815759  0.87861412  0.74023727  1
  O  O211  1  0.49660677  0.12399823  0.23802875  1
  O  O212  1  0.48945635  0.11642806  0.73847404  1
  O  O213  1  0.51215438  0.64226918  0.23003970  1
  O  O214  1  0.49056137  0.62027573  0.73500930  1
  O  O215  1  0.99347366  0.12645720  0.24457015  1
  O  O216  1  0.99173644  0.13196007  0.75409972  1
  O  O217  1  0.99932634  0.63427352  0.23961974  1
  O  O218  1  0.98576234  0.61812436  0.73601391  1
  O  O219  1  0.37176302  0.25333218  0.00714380  1
  O  O220  1  0.36425167  0.24211144  0.51434627  1
  O  O221  1  0.36525096  0.75090306  0.00054456  1
  O  O222  1  0.37377960  0.74484764  0.51219703  1
  O  O223  1  0.86508799  0.24439781  0.00825840  1
  O  O224  1  0.86446496  0.25500879  0.50426870  1
  O  O225  1  0.86480845  0.74816430  -0.00201771  1
  O  O226  1  0.86763765  0.75210081  0.50644841  1
  O  O227  1  0.13917718  0.23816163  0.50598933  1
  O  O228  1  0.12983758  0.24520739  0.99547372  1
  O  O229  1  0.11359436  0.73944016  0.49191419  1
  O  O230  1  0.13139750  0.74279892  0.99224234  1
  O  O231  1  0.63098067  0.24105514  0.49393518  1
  O  O232  1  0.63113795  0.24036171  0.99456584  1
  O  O233  1  0.62785402  0.74390213  0.48911283  1
  O  O234  1  0.63410198  0.74933096  0.98384615  1
  O  O235  1  0.49359285  0.23904196  0.12212485  1
  O  O236  1  0.49193442  0.23862965  0.61692515  1
  O  O237  1  0.50097952  0.75187008  0.12669931  1
  O  O238  1  0.49171881  0.73878456  0.61848949  1
  O  O239  1  0.99132072  0.23851313  0.12494987  1
  O  O240  1  1.00034706  0.25495213  0.63807347  1
  O  O241  1  1.00431357  0.74240375  0.13322413  1
  O  O242  1  0.98546383  0.73951345  0.62016038  1
  O  O243  1  -0.01084713  0.27169446  0.38439244  1
  O  O244  1  0.00608332  0.24960241  0.86473035  1
  O  O245  1  0.00893661  0.74883935  0.36268412  1
  O  O246  1  0.01245013  0.74645469  0.88140053  1
  O  O247  1  0.51147858  0.25535190  0.37748026  1
  O  O248  1  0.50928215  0.25843813  0.88254687  1
  O  O249  1  0.50499697  0.76063567  0.36702804  1
  O  O250  1  0.51288651  0.74965113  0.88027406  1
  O  O251  1  0.24393580  0.13072142  0.49550517  1
  O  O252  1  0.24594827  0.13045487  0.99291582  1
  O  O253  1  0.22968328  0.63171793  0.51318745  1
  O  O254  1  0.23873157  0.63708553  0.98825246  1
  O  O255  1  0.73822809  0.13261704  0.51104205  1
  O  O256  1  0.73871276  0.12860011  0.99948043  1
  O  O257  1  0.74324429  0.62856018  0.49032071  1
  O  O258  1  0.74865614  0.64481796  1.00607408  1
  O  O259  1  0.25996313  0.36521329  -0.00704518  1
  O  O260  1  0.24236737  0.36335044  0.51630067  1
  O  O261  1  0.23930549  0.86298620  -0.00177637  1
  O  O262  1  0.24452217  0.88299064  0.51340450  1
  O  O263  1  0.75245758  0.36037227  -0.00233191  1
  O  O264  1  0.75641311  0.36747621  0.50668647  1
  O  O265  1  0.74593861  0.86283417  0.00764739  1
  O  O266  1  0.75537763  0.86696564  0.50472505  1
  O  O267  1  0.12897819  0.48330213  0.23112981  1
  O  O268  1  0.11558223  0.49188102  0.73940602  1
  O  O269  1  0.13355694  0.99267511  0.25381494  1
  O  O270  1  0.13212379  0.99418024  0.75002614  1
  O  O271  1  0.63526434  0.50309927  0.23097406  1
  O  O272  1  0.63037492  0.49835801  0.73543329  1
  O  O273  1  0.63831208  1.00917275  0.23944761  1
  O  O274  1  0.63085497  0.99295430  0.74606608  1
  O  O275  1  0.36816084  0.00556490  0.25744300  1
  O  O276  1  0.35762441  0.01757505  0.74091483  1
  O  O277  1  0.36923877  0.50793139  0.20476230  1
  O  O278  1  0.37477214  0.51466048  0.75703170  1
  O  O279  1  0.86456495  0.00542159  0.25171970  1
  O  O280  1  0.86197435  0.00428445  0.74637441  1
  O  O281  1  0.87064762  0.50503427  0.25319155  1
  O  O282  1  0.86599971  0.50386430  0.75186490  1
  O  O283  1  0.13363271  0.39559267  0.37142429  1
  O  O284  1  0.12601898  0.37069667  0.86475679  1
  O  O285  1  0.12309056  0.86725508  0.36644880  1
  O  O286  1  0.11847516  0.86537792  0.86793969  1
  O  O287  1  0.62335529  0.35597874  0.38043286  1
  O  O288  1  0.61573098  0.36545593  0.87227933  1
  O  O289  1  0.61568575  0.86575189  0.37980953  1
  O  O290  1  0.62019533  0.86214698  0.86605648  1
  O  O291  1  0.38418077  0.13121524  0.12895338  1
  O  O292  1  0.37964215  0.13250212  0.63036761  1
  O  O293  1  0.39652147  0.64590101  0.11449499  1
  O  O294  1  0.37945522  0.62862029  0.62847456  1
  O  O295  1  0.88366074  0.13257766  0.13595295  1
  O  O296  1  0.86761249  0.12696623  0.63941486  1
  O  O297  1  0.88899525  0.62582665  0.12898623  1
  O  O298  1  0.87830159  0.62822006  0.62806778  1
  O  O299  1  0.26434464  0.24056414  0.11850930  1
  O  O300  1  0.25761491  0.25675293  0.61987285  1
  O  O301  1  0.26152814  0.75085189  0.11326400  1
  O  O302  1  0.25325647  0.76373824  0.62573209  1
  O  O303  1  0.75891261  0.24144474  0.11622137  1
  O  O304  1  0.74563666  0.25925386  0.61589739  1
  O  O305  1  0.75219267  0.76088235  0.11642444  1
  O  O306  1  0.75505959  0.75089973  0.61627738  1
  O  O307  1  0.26164227  0.23790563  0.38824736  1
  O  O308  1  0.24340806  0.24077613  0.88003378  1
  O  O309  1  0.24073608  0.75658212  0.37369834  1
  O  O310  1  0.23917267  0.74079914  0.87949096  1
  O  O311  1  0.73933309  0.25075955  0.38834669  1
  O  O312  1  0.74026822  0.24639508  0.88481234  1
  O  O313  1  0.74155345  0.74535573  0.37466852  1
  O  O314  1  0.74339232  0.75360241  0.88581603  1
  O  O315  1  0.00558155  0.11934607  0.00970592  1
  O  O316  1  0.01758801  0.13094228  0.49849103  1
  O  O317  1  0.01103923  0.62618265  0.00909618  1
  O  O318  1  0.00384550  0.61768997  0.51163473  1
  O  O319  1  0.50720181  0.11652759  0.00753963  1
  O  O320  1  0.50669756  0.11649136  0.50805347  1
  O  O321  1  0.50687941  0.61723679  0.00330817  1
  O  O322  1  0.50428881  0.61636416  0.50979768  1
  O  O323  1  0.49790827  0.37857352  0.48639409  1
  O  O324  1  0.49351136  0.38026033  0.98846248  1
  O  O325  1  0.50340282  0.88844558  0.48996671  1
  O  O326  1  0.50324955  0.88950511  0.99724551  1
  O  O327  1  0.98869713  0.38567857  0.51318556  1
  O  O328  1  0.98976893  0.37838256  0.99315832  1
  O  O329  1  0.98406489  0.86791256  0.49828850  1
  O  O330  1  1.00593166  0.89145784  1.00684039  1
  O  O331  1  0.51523747  0.47920128  0.37624718  1
  O  O332  1  0.49513231  0.49214299  0.87832865  1
  O  O333  1  0.49581530  0.99702853  0.38046736  1
  O  O334  1  0.50082302  1.00227074  0.88998995  1
  O  O335  1  0.99246146  0.50570537  0.39124221  1
  O  O336  1  0.98534079  0.49832715  0.87528018  1
  O  O337  1  0.99337657  0.99555064  0.38521750  1
  O  O338  1  1.00288923  1.00073499  0.89371280  1
  O  O339  1  0.00186042  0.01189395  0.11920982  1
  O  O340  1  0.00257046  -0.00515522  0.61491492  1
  O  O341  1  0.01289534  0.51015929  0.12274742  1
  O  O342  1  0.00772767  0.50785384  0.61690308  1
  O  O343  1  0.50725629  0.00589075  0.11851951  1
  O  O344  1  0.50269103  0.00999126  0.61494484  1
  O  O345  1  0.51779201  0.51005376  0.11882324  1
  O  O346  1  0.50573453  0.50474709  0.61799415  1
  O  O347  1  0.23528593  0.36721271  0.25268676  1
  O  O348  1  0.23491949  0.36676796  0.73958346  1
  O  O349  1  0.24472306  0.88592439  0.25189356  1
  O  O350  1  0.23606966  0.88439550  0.74642879  1
  O  O351  1  0.75773974  0.38654167  0.25459221  1
  O  O352  1  0.74674024  0.38060346  0.73725131  1
  O  O353  1  0.75377118  0.88963786  0.23778672  1
  O  O354  1  0.73992782  0.88161265  0.74320846  1
  O  O355  1  0.25358832  0.11924766  0.25862860  1
  O  O356  1  0.25182945  0.11935379  0.75716621  1
  O  O357  1  0.24022720  0.61722085  0.26040850  1
  O  O358  1  0.25320735  0.62727902  0.76044571  1
  O  O359  1  0.76111265  0.10786411  0.24126250  1
  O  O360  1  0.75442485  0.11347108  0.75124982  1
  O  O361  1  0.75809299  0.61973065  0.25153759  1
  O  O362  1  0.75856076  0.60994111  0.73757257  1
  O  O363  1  0.37002394  0.11618135  0.37076191  1
  O  O364  1  0.36334207  0.13382923  0.86576729  1
  O  O365  1  0.42507844  0.61228330  0.35667783  1
  O  O366  1  0.36723615  0.62259308  0.86706512  1
  O  O367  1  0.87668419  0.12374786  0.36301083  1
  O  O368  1  0.87145037  0.11567346  0.86229989  1
  O  O369  1  0.86861836  0.61927446  0.36927120  1
  O  O370  1  0.87741217  0.61524738  0.85966715  1
  O  O371  1  0.12345621  0.38777166  0.11135950  1
  O  O372  1  0.12956701  0.38287559  0.63121727  1
  O  O373  1  0.13234895  0.87580303  0.13945766  1
  O  O374  1  0.13559475  0.87042565  0.63229456  1
  O  O375  1  0.61913727  0.38684263  0.11955700  1
  O  O376  1  0.62999614  0.38090615  0.62190143  1
  O  O377  1  0.63331297  0.88715733  0.12024786  1
  O  O378  1  0.62964249  0.87610523  0.62808522  1
  O  O379  1  0.12397365  0.26446530  0.25860522  1
  O  O380  1  0.11757094  0.25596560  0.75405172  1
  O  O381  1  0.12257916  0.75596006  0.25691814  1
  O  O382  1  0.12932393  0.75826226  0.76010631  1
  O  O383  1  0.62818610  0.23508524  0.26755691  1
  O  O384  1  0.63130257  0.24690026  0.76333491  1
  O  O385  1  0.61945208  0.74903323  0.25969597  1
  O  O386  1  0.63526756  0.75551039  0.76296309  1
  O  O387  1  0.37828361  0.24289702  0.23973099  1
  O  O388  1  0.36660929  0.23692484  0.73785234  1
  O  O389  1  0.38855188  0.75337225  0.23928123  1
  O  O390  1  0.36715795  0.73242707  0.73509683  1
  O  O391  1  0.87385203  0.24018775  0.24361464  1
  O  O392  1  0.88124856  0.24112979  0.74902388  1
  O  O393  1  0.88628048  0.74445586  0.24714106  1
  O  O394  1  0.86087702  0.73792589  0.73595938  1
  O  O395  1  0.35225559  0.50218705  0.48194215  1
  O  O396  1  0.38461226  0.49469042  0.99670211  1
  O  O397  1  0.38344600  1.00945495  0.49081361  1
  O  O398  1  0.38964533  1.00469771  1.00599942  1
  O  O399  1  0.88002298  0.49342415  0.49663919  1
  O  O400  1  0.87005394  0.50191570  0.98684088  1
  O  O401  1  0.86731788  0.98633680  0.49895676  1
  O  O402  1  0.88970993  1.00893379  1.00281467  1
  O  O403  1  0.11678888  0.00901593  0.00589627  1
  O  O404  1  0.12708412  0.01697892  0.50101319  1
  O  O405  1  0.12154461  0.51027168  0.00385238  1
  O  O406  1  0.11951674  0.51277980  0.50874613  1
  O  O407  1  0.61851343  0.00680102  0.00642982  1
  O  O408  1  0.61816090  0.00586204  0.50521509  1
  O  O409  1  0.62539329  0.50091102  0.00705237  1
  O  O410  1  0.63235897  0.50582318  0.51045720  1
  O  O411  1  0.38099244  0.36294738  0.11991652  1
  O  O412  1  0.36448825  0.36673918  0.63673163  1
  O  O413  1  0.37534735  0.86351926  0.12629026  1
  O  O414  1  0.35825490  0.86660286  0.63204164  1
  O  O415  1  0.88500347  0.35951560  0.12851135  1
  O  O416  1  0.86387431  0.37483103  0.61560914  1
  O  O417  1  0.86602806  0.87419873  0.12514553  1
  O  O418  1  0.86712874  0.86338167  0.61858815  1
  O  O419  1  0.13860631  0.12176551  0.38355131  1
  O  O420  1  0.13399834  0.13136376  0.88086820  1
  O  O421  1  0.12314830  0.63128960  0.39128152  1
  O  O422  1  0.12812460  0.62846259  0.87815293  1
  O  O423  1  0.61708325  0.13266696  0.39002388  1
  O  O424  1  0.62169858  0.13123122  0.88408739  1
  O  O425  1  0.62588230  0.63480672  0.37728727  1
  O  O426  1  0.62251961  0.63700940  0.86931960  1
