# generated using pymatgen
data_V85Zn86O256
_symmetry_space_group_name_H-M   'P 1'
_cell_length_a   16.96850206
_cell_length_b   16.97019064
_cell_length_c   16.96736663
_cell_angle_alpha   90.10688350
_cell_angle_beta   90.22098172
_cell_angle_gamma   90.20784468
_symmetry_Int_Tables_number   1
_chemical_formula_structural   V85Zn86O256
_chemical_formula_sum   'V85 Zn86 O256'
_cell_volume   4885.82397068
_cell_formula_units_Z   1
loop_
 _symmetry_equiv_pos_site_id
 _symmetry_equiv_pos_as_xyz
  1  'x, y, z'
loop_
 _atom_site_type_symbol
 _atom_site_label
 _atom_site_symmetry_multiplicity
 _atom_site_fract_x
 _atom_site_fract_y
 _atom_site_fract_z
 _atom_site_occupancy
  V  V0  1  0.49790195  0.00741470  0.50395915  1
  V  V1  1  0.87597449  0.49385996  0.38866207  1
  V  V2  1  0.00696270  0.36958655  0.87457811  1
  V  V3  1  0.23974898  0.13608012  0.87748732  1
  V  V4  1  0.36725911  -0.00037352  0.87230146  1
  V  V5  1  0.74817435  0.74753104  -0.00148420  1
  V  V6  1  0.75414932  0.87014632  0.12701993  1
  V  V7  1  0.38086239  0.12493459  0.74729015  1
  V  V8  1  0.37590773  0.86440639  0.50519984  1
  V  V9  1  0.62254662  0.37503972  0.25740130  1
  V  V10  1  0.50072483  0.48409210  0.49602617  1
  V  V11  1  0.12700001  0.49995366  0.12204779  1
  V  V12  1  0.49900470  0.37969572  0.88172368  1
  V  V13  1  0.86594118  0.49565249  0.86971241  1
  V  V14  1  0.37847260  0.50127304  0.88018163  1
  V  V15  1  0.00085109  0.86735496  0.37500308  1
  V  V16  1  0.12947539  0.86474595  0.25466975  1
  V  V17  1  0.49840546  0.63105585  0.62250393  1
  V  V18  1  0.37418987  0.62627506  0.74653397  1
  V  V19  1  0.24893611  0.75214057  0.00024470  1
  V  V20  1  0.62860997  0.24696075  0.37493738  1
  V  V21  1  0.21797215  0.52070928  0.28809844  1
  V  V22  1  0.75201231  0.37629377  0.63086613  1
  V  V23  1  0.62355350  0.87419019  0.25004217  1
  V  V24  1  0.87944687  0.24756238  0.13029760  1
  V  V25  1  0.00827844  0.24908451  0.75096501  1
  V  V26  1  0.23403084  0.74249569  0.49230785  1
  V  V27  1  0.24277083  0.12140385  0.37123623  1
  V  V28  1  0.86945516  0.00348732  0.87204887  1
  V  V29  1  0.49714955  0.00007352  -0.00063909  1
  V  V30  1  0.12884601  0.00004250  0.13213775  1
  V  V31  1  0.11506263  0.36622217  0.25461099  1
  V  V32  1  0.62677188  0.88174825  0.75065518  1
  V  V33  1  0.25728581  0.37907182  0.62737742  1
  V  V34  1  0.87148572  0.75009677  0.62755082  1
  V  V35  1  0.12441347  0.87924621  0.74258348  1
  V  V36  1  0.75553264  0.25192906  0.49808655  1
  V  V37  1  0.00515598  0.00493524  0.00172243  1
  V  V38  1  0.87144402  0.12218352  0.75146679  1
  V  V39  1  0.24789592  0.61769631  0.86537125  1
  V  V40  1  -0.00101371  0.35675790  0.37707891  1
  V  V41  1  0.00261520  0.12488516  0.13023395  1
  V  V42  1  -0.00183727  0.74801510  0.75085785  1
  V  V43  1  0.62371983  0.12468636  0.00123439  1
  V  V44  1  0.87498486  0.87883424  0.50077490  1
  V  V45  1  0.00247618  0.62016076  0.61714504  1
  V  V46  1  -0.00356512  0.49951570  -0.00146846  1
  V  V47  1  0.62104942  0.24891220  0.87330760  1
  V  V48  1  0.62783782  0.49794936  0.63109455  1
  V  V49  1  0.49548748  0.12635542  0.12836211  1
  V  V50  1  0.49715264  0.87631543  0.87385433  1
  V  V51  1  0.74911102  0.88314009  0.62912337  1
  V  V52  1  0.37274400  0.00142562  0.36964017  1
  V  V53  1  0.87549991  0.87153997  0.00286547  1
  V  V54  1  0.24721706  0.25659494  0.49565999  1
  V  V55  1  0.37462043  0.62281086  0.25971029  1
  V  V56  1  0.74918231  0.00300413  0.25798812  1
  V  V57  1  0.62433663  -0.00154604  0.12500555  1
  V  V58  1  0.12866869  0.38147798  0.74640548  1
  V  V59  1  0.12916218  0.12020372  0.51028415  1
  V  V60  1  0.00726034  -0.00179029  0.50626163  1
  V  V61  1  0.63061788  0.12423325  0.49679528  1
  V  V62  1  0.37195227  0.74835016  0.12574036  1
  V  V63  1  0.62202312  0.75020300  0.87291432  1
  V  V64  1  0.86633223  0.62015234  0.75078745  1
  V  V65  1  -0.01499935  0.63282251  0.12604451  1
  V  V66  1  0.75059339  0.37320636  0.12678068  1
  V  V67  1  0.62003814  0.50315242  0.12222270  1
  V  V68  1  0.75236732  0.24490427  -0.00031697  1
  V  V69  1  0.62239322  0.00742639  0.62741242  1
  V  V70  1  0.88063900  0.25385288  0.62126939  1
  V  V71  1  0.38124930  0.24415285  0.61943067  1
  V  V72  1  0.74541919  0.75040969  0.49988139  1
  V  V73  1  -0.00025703  0.87443691  0.87499909  1
  V  V74  1  0.12383827  0.74923906  0.87363720  1
  V  V75  1  0.87598248  0.37081736  -0.00068283  1
  V  V76  1  0.49959136  0.74935329  0.24901854  1
  V  V77  1  0.87260308  0.12338347  0.25525949  1
  V  V78  1  0.38101809  0.48132981  0.37493194  1
  V  V79  1  0.49580444  0.25079685  0.25612165  1
  V  V80  1  0.75817129  0.50209948  0.25111008  1
  V  V81  1  0.75429629  0.62562094  0.37307464  1
  V  V82  1  0.12205714  0.62456477  -0.00244438  1
  V  V83  1  0.50006409  0.87476036  0.37529960  1
  V  V84  1  0.24966020  0.87471828  0.62329712  1
  Zn  Zn85  1  0.50264607  0.25062202  0.74449750  1
  Zn  Zn86  1  -0.02132816  0.74997205  0.24636999  1
  Zn  Zn87  1  0.74638374  0.11835659  0.86955510  1
  Zn  Zn88  1  0.49373366  0.61844617  0.11856807  1
  Zn  Zn89  1  0.37228002  0.37671460  0.00493749  1
  Zn  Zn90  1  0.87358550  0.00427286  0.37908418  1
  Zn  Zn91  1  0.24208086  0.25478159  0.00684558  1
  Zn  Zn92  1  0.62485188  0.74666827  0.37196290  1
  Zn  Zn93  1  0.37307923  0.87523598  0.00120579  1
  Zn  Zn94  1  0.25158993  0.37658718  0.13034565  1
  Zn  Zn95  1  0.01110043  0.49051710  0.50000241  1
  Zn  Zn96  1  0.62305924  0.62213509  0.49839734  1
  Zn  Zn97  1  0.24244195  0.00561732  0.73846001  1
  Zn  Zn98  1  0.49290795  0.75494922  0.74146410  1
  Zn  Zn99  1  0.37298942  0.25622501  0.12320202  1
  Zn  Zn100  1  0.14057478  0.51069508  0.62544944  1
  Zn  Zn101  1  0.25127495  0.88294026  0.13270956  1
  Zn  Zn102  1  0.36725029  0.12490870  0.24946049  1
  Zn  Zn103  1  0.00583804  0.12062134  0.62822318  1
  Zn  Zn104  1  0.62709214  0.37791944  0.75382645  1
  Zn  Zn105  1  0.74405661  0.61840375  0.87001974  1
  Zn  Zn106  1  0.61665140  0.61398721  -0.00986262  1
  Zn  Zn107  1  0.18546834  0.18839985  0.18419291  1
  Zn  Zn108  1  0.19467849  0.19107927  0.68893924  1
  Zn  Zn109  1  0.18195612  0.68515548  0.18855718  1
  Zn  Zn110  1  0.19027249  0.69592235  0.68297267  1
  Zn  Zn111  1  0.68702355  0.18610783  0.18817742  1
  Zn  Zn112  1  0.69094013  0.18919067  0.68561405  1
  Zn  Zn113  1  0.69378677  0.68767401  0.18957139  1
  Zn  Zn114  1  0.68178203  0.68918014  0.68599880  1
  Zn  Zn115  1  0.30051187  0.31656512  0.30854639  1
  Zn  Zn116  1  0.31699172  0.31379619  0.80903495  1
  Zn  Zn117  1  0.31233534  0.80953948  0.31816104  1
  Zn  Zn118  1  0.30977398  0.80934659  0.80921936  1
  Zn  Zn119  1  0.81226961  0.31300495  0.31368023  1
  Zn  Zn120  1  0.81539217  0.30649432  0.81096575  1
  Zn  Zn121  1  0.81685603  0.81332513  0.31383960  1
  Zn  Zn122  1  0.81144254  0.81294572  0.81380872  1
  Zn  Zn123  1  0.18575784  0.56437648  0.45386653  1
  Zn  Zn124  1  0.18875268  0.43496927  0.93962888  1
  Zn  Zn125  1  0.18827592  0.93537089  0.43722739  1
  Zn  Zn126  1  0.18571596  0.93899610  0.93622284  1
  Zn  Zn127  1  0.68826887  0.43471361  0.44208924  1
  Zn  Zn128  1  0.68690484  0.43095145  0.93988772  1
  Zn  Zn129  1  0.68536887  0.93639057  0.43869252  1
  Zn  Zn130  1  0.68692285  0.93625460  0.93972968  1
  Zn  Zn131  1  0.30961414  0.06621103  0.05796984  1
  Zn  Zn132  1  0.31095307  0.06013382  0.55997080  1
  Zn  Zn133  1  0.31072662  0.56504799  0.06032521  1
  Zn  Zn134  1  0.32396282  0.56146891  0.55863258  1
  Zn  Zn135  1  0.81493070  0.05952336  0.06349040  1
  Zn  Zn136  1  0.81526670  0.06608566  0.56421245  1
  Zn  Zn137  1  0.80553849  0.55948089  0.05728760  1
  Zn  Zn138  1  0.81149609  0.56293406  0.56349150  1
  Zn  Zn139  1  0.43783836  0.43576428  0.19163661  1
  Zn  Zn140  1  0.43930968  0.43925859  0.69447200  1
  Zn  Zn141  1  0.43601306  0.93577975  0.18697049  1
  Zn  Zn142  1  0.43595115  0.93807272  0.68652506  1
  Zn  Zn143  1  0.93882131  0.43976511  0.18764661  1
  Zn  Zn144  1  0.93700471  0.43669941  0.68857253  1
  Zn  Zn145  1  0.93828662  0.93706880  0.19131445  1
  Zn  Zn146  1  0.93822282  0.93764669  0.68778692  1
  Zn  Zn147  1  0.06108191  0.05576256  0.31363400  1
  Zn  Zn148  1  0.05802671  0.05829895  0.80948534  1
  Zn  Zn149  1  0.04604766  0.56117979  0.30508787  1
  Zn  Zn150  1  0.05727324  0.55915443  0.80826312  1
  Zn  Zn151  1  0.56225161  0.06270354  0.31472057  1
  Zn  Zn152  1  0.55947187  0.06325273  0.81337371  1
  Zn  Zn153  1  0.56325563  0.56402659  0.31075918  1
  Zn  Zn154  1  0.55689519  0.56273232  0.80933227  1
  Zn  Zn155  1  0.43727791  0.18768018  0.43620882  1
  Zn  Zn156  1  0.43105938  0.19032961  0.93954789  1
  Zn  Zn157  1  0.44123980  0.68540123  0.43974330  1
  Zn  Zn158  1  0.43817032  0.68471080  0.93795297  1
  Zn  Zn159  1  0.94042832  0.18149674  0.44015976  1
  Zn  Zn160  1  1.06302292  0.18577824  0.93988690  1
  Zn  Zn161  1  0.93103894  0.68868373  0.43723013  1
  Zn  Zn162  1  0.93417703  0.68525920  0.93688005  1
  Zn  Zn163  1  0.06427034  0.31307797  0.06680812  1
  Zn  Zn164  1  0.06958780  0.31393192  0.55889010  1
  Zn  Zn165  1  0.06396363  0.81430427  0.06402750  1
  Zn  Zn166  1  0.06137142  0.80730009  0.56239322  1
  Zn  Zn167  1  0.56158117  0.31369226  0.06498519  1
  Zn  Zn168  1  0.56683937  0.31163591  0.56234741  1
  Zn  Zn169  1  0.56016884  0.81017925  0.06078978  1
  Zn  Zn170  1  0.56262879  0.81696331  0.56089045  1
  O  O171  1  0.11266578  0.11355120  0.13698298  1
  O  O172  1  0.12838234  0.12639608  0.61495554  1
  O  O173  1  0.11508051  0.61755878  0.11634128  1
  O  O174  1  0.10494109  0.62755361  0.63792850  1
  O  O175  1  0.61462678  0.11925011  0.12131684  1
  O  O176  1  0.62989692  0.11468622  0.61762425  1
  O  O177  1  0.62999342  0.60760048  0.13020094  1
  O  O178  1  0.61828783  0.61490620  0.62247264  1
  O  O179  1  0.37861154  0.38330486  0.36769148  1
  O  O180  1  0.38182297  0.38539633  0.87223850  1
  O  O181  1  0.37968163  0.88322097  0.38377058  1
  O  O182  1  0.37736446  0.88404868  0.87249673  1
  O  O183  1  0.88521322  0.38511949  0.36973810  1
  O  O184  1  0.88374293  0.37766506  0.87697515  1
  O  O185  1  0.88225677  0.88020192  0.38469424  1
  O  O186  1  0.87970372  0.88258644  0.88117251  1
  O  O187  1  0.25938069  0.01284183  0.38393995  1
  O  O188  1  0.25701267  0.00600074  0.87202468  1
  O  O189  1  0.27561841  0.50344509  0.38222707  1
  O  O190  1  0.25494262  0.51336699  0.87684011  1
  O  O191  1  0.74976050  -0.00531036  0.36203198  1
  O  O192  1  0.76339430  -0.00089590  0.88143650  1
  O  O193  1  0.75824546  0.50224280  0.37242980  1
  O  O194  1  0.76135755  0.49677897  0.88003727  1
  O  O195  1  0.23123495  0.50192079  0.11847353  1
  O  O196  1  0.26080134  0.48161606  0.61776102  1
  O  O197  1  0.23472626  1.00080996  0.11605551  1
  O  O198  1  0.25094374  0.98293294  0.62159369  1
  O  O199  1  0.74471636  0.49347546  0.13417579  1
  O  O200  1  0.74002484  0.48805100  0.61386303  1
  O  O201  1  0.74390674  0.98893285  0.12987956  1
  O  O202  1  0.74005640  0.99005584  0.61815806  1
  O  O203  1  0.00482348  0.37948989  0.25939194  1
  O  O204  1  0.00627007  0.36774310  0.75501442  1
  O  O205  1  0.00604420  0.87347570  0.25886844  1
  O  O206  1  0.00470860  0.86816935  0.75426480  1
  O  O207  1  0.51384345  0.36302848  0.24617706  1
  O  O208  1  0.50367733  0.36943730  0.76348117  1
  O  O209  1  0.50403144  0.86980103  0.25528826  1
  O  O210  1  0.50877866  0.87411770  0.75357922  1
  O  O211  1  0.50110441  0.13282588  0.24325669  1
  O  O212  1  0.48562045  0.12841934  0.75398657  1
  O  O213  1  0.49218710  0.63119542  0.24398597  1
  O  O214  1  0.49358316  0.62889449  0.73928955  1
  O  O215  1  0.98794090  0.11419123  0.23926748  1
  O  O216  1  0.99513600  0.13358900  0.74832572  1
  O  O217  1  0.99832078  0.63043925  0.23069906  1
  O  O218  1  0.98581770  0.62924325  0.74352467  1
  O  O219  1  0.36640799  0.25427273  0.00433368  1
  O  O220  1  0.36633132  0.24045269  0.51283971  1
  O  O221  1  0.36505620  0.74917854  0.00823586  1
  O  O222  1  0.37523807  0.76250402  0.49603852  1
  O  O223  1  0.86278159  0.25354059  0.01400551  1
  O  O224  1  0.86714953  0.23836333  0.51011909  1
  O  O225  1  0.86229180  0.76219958  -0.01144246  1
  O  O226  1  0.86286968  0.75767666  0.50721234  1
  O  O227  1  0.14096493  0.23886974  0.50243448  1
  O  O228  1  0.12738062  0.24959153  1.00333327  1
  O  O229  1  0.13384900  0.74823513  0.49680107  1
  O  O230  1  0.13068794  0.74557466  0.99365891  1
  O  O231  1  0.63109614  0.24216991  0.49442976  1
  O  O232  1  0.63297848  0.24550951  0.99458034  1
  O  O233  1  0.63692634  0.75232463  0.49746250  1
  O  O234  1  0.63391085  0.75761129  0.98698740  1
  O  O235  1  0.50178128  0.24036160  0.13591349  1
  O  O236  1  0.48502648  0.25476855  0.62211588  1
  O  O237  1  0.48601782  0.75411788  0.13185173  1
  O  O238  1  0.51024797  0.73652429  0.62305455  1
  O  O239  1  0.98780417  0.23861271  0.12047317  1
  O  O240  1  0.99455058  0.25111617  0.63016741  1
  O  O241  1  0.99912754  0.73474503  0.11494109  1
  O  O242  1  0.99044632  0.74138536  0.63083667  1
  O  O243  1  -0.00814603  0.25835914  0.37215808  1
  O  O244  1  0.00234372  0.26002770  0.86491842  1
  O  O245  1  -0.00734680  0.76324208  0.37616035  1
  O  O246  1  0.00363261  0.75431247  0.87119078  1
  O  O247  1  0.51390907  0.24344104  0.36735950  1
  O  O248  1  0.51046541  0.25427573  0.87614028  1
  O  O249  1  0.50187108  0.75643522  0.36762887  1
  O  O250  1  0.50967143  0.75788826  0.87395512  1
  O  O251  1  0.24470891  0.13060851  0.49348750  1
  O  O252  1  0.25177509  0.12685751  0.97975601  1
  O  O253  1  0.25403152  0.63796480  0.50974353  1
  O  O254  1  0.24224381  0.63461564  0.98980539  1
  O  O255  1  0.73959981  0.13510840  0.50562801  1
  O  O256  1  0.74386627  0.13190356  1.00244037  1
  O  O257  1  0.74866272  0.63539522  0.49490471  1
  O  O258  1  0.74207093  0.63616573  0.99616571  1
  O  O259  1  0.25246587  0.37421333  0.00664268  1
  O  O260  1  0.25079855  0.35702805  0.51259077  1
  O  O261  1  0.24871172  0.86078873  -0.00039615  1
  O  O262  1  0.25592756  0.86566266  0.50318586  1
  O  O263  1  0.75556542  0.36356349  0.00654571  1
  O  O264  1  0.74538383  0.35963537  0.51136967  1
  O  O265  1  0.75629220  0.86940717  0.00735148  1
  O  O266  1  0.75307638  0.86990261  0.50845971  1
  O  O267  1  0.11843419  0.49471815  0.23590409  1
  O  O268  1  0.11702414  0.48701167  0.73914588  1
  O  O269  1  0.11900722  0.98620452  0.23953486  1
  O  O270  1  0.12414226  0.98378010  0.75365583  1
  O  O271  1  0.63425821  0.49125958  0.24614976  1
  O  O272  1  0.62055541  0.49882340  0.73508031  1
  O  O273  1  0.63006005  0.99555992  0.24505649  1
  O  O274  1  0.61880126  0.99211326  0.74216241  1
  O  O275  1  0.38032582  0.00096896  0.26520734  1
  O  O276  1  0.37240295  0.00649743  0.75687131  1
  O  O277  1  0.38373423  0.50651188  0.26635833  1
  O  O278  1  0.37900423  0.51479769  0.76252263  1
  O  O279  1  0.86492664  0.00621176  0.25031791  1
  O  O280  1  0.88427569  0.00899450  0.75894635  1
  O  O281  1  0.86203557  0.49468727  0.25851189  1
  O  O282  1  0.87817472  0.50706685  0.75919250  1
  O  O283  1  0.10570198  0.37700892  0.36112547  1
  O  O284  1  0.11336305  0.38544741  0.86381672  1
  O  O285  1  0.11672312  0.88034956  0.36209533  1
  O  O286  1  0.11880137  0.86850430  0.86744617  1
  O  O287  1  0.63085303  0.36481737  0.36562374  1
  O  O288  1  0.61884045  0.36613089  0.87482286  1
  O  O289  1  0.61759762  0.87367272  0.36818824  1
  O  O290  1  0.61983025  0.87278618  0.86682609  1
  O  O291  1  0.38629223  0.12154523  0.12941068  1
  O  O292  1  0.36720153  0.13469352  0.63281319  1
  O  O293  1  0.37334032  0.63266022  0.13456488  1
  O  O294  1  0.38829663  0.61656923  0.63418620  1
  O  O295  1  0.88177260  0.12882232  0.13184027  1
  O  O296  1  0.87940298  0.13461363  0.63401588  1
  O  O297  1  0.88681864  0.61782951  0.11327027  1
  O  O298  1  0.87910915  0.62998368  0.63247162  1
  O  O299  1  0.25572768  0.25564987  0.13033995  1
  O  O300  1  0.26072862  0.25500523  0.61610189  1
  O  O301  1  0.25584241  0.74670712  0.11652005  1
  O  O302  1  0.24822642  0.76377341  0.61064258  1
  O  O303  1  0.75291613  0.25324460  0.11762896  1
  O  O304  1  0.75904075  0.25595040  0.61782644  1
  O  O305  1  0.74060802  0.76173506  0.11296338  1
  O  O306  1  0.75072216  0.76028670  0.61813660  1
  O  O307  1  0.25997901  0.23882771  0.38914448  1
  O  O308  1  0.25222198  0.23636715  0.86823453  1
  O  O309  1  0.25172392  0.75040809  0.39318992  1
  O  O310  1  0.24399042  0.74102366  0.88189585  1
  O  O311  1  0.74101212  0.25402068  0.38462237  1
  O  O312  1  0.74223661  0.24886196  0.88579910  1
  O  O313  1  0.75117368  0.74312644  0.38403492  1
  O  O314  1  0.73860099  0.75225432  0.88162799  1
  O  O315  1  0.00091441  0.11238746  0.01134096  1
  O  O316  1  0.01236392  0.11666315  0.50112477  1
  O  O317  1  0.00341460  0.61901631  0.00296995  1
  O  O318  1  -0.00720374  0.63012449  0.51600507  1
  O  O319  1  0.50339468  0.12059195  0.00916729  1
  O  O320  1  0.51115729  0.11438847  0.49638928  1
  O  O321  1  0.50860978  0.63574371  0.00854834  1
  O  O322  1  0.50230741  0.61665701  0.50841980  1
  O  O323  1  0.50304697  0.38529638  0.49999159  1
  O  O324  1  0.49799442  0.36933750  0.98643375  1
  O  O325  1  0.49429421  0.88439385  0.49593151  1
  O  O326  1  0.49652238  0.88215037  0.99249027  1
  O  O327  1  1.00505896  0.37188163  0.48226634  1
  O  O328  1  0.99474433  0.37822861  0.99174604  1
  O  O329  1  0.99636413  0.87930581  0.49632191  1
  O  O330  1  0.99107700  0.87928430  0.99606929  1
  O  O331  1  0.49560482  0.50205527  0.38617993  1
  O  O332  1  0.49352308  0.49156586  0.87315763  1
  O  O333  1  0.49408744  0.99560418  0.38450237  1
  O  O334  1  0.48877512  0.99651002  0.87937504  1
  O  O335  1  0.98240116  0.50342880  0.37976785  1
  O  O336  1  0.98886094  0.49038324  0.87873508  1
  O  O337  1  0.99752203  0.98918549  0.38756462  1
  O  O338  1  0.99296543  0.99435534  0.88424611  1
  O  O339  1  0.00454766  0.00516782  0.11891881  1
  O  O340  1  -0.00281292  -0.00003832  0.61145661  1
  O  O341  1  0.00457380  0.50863135  0.11742881  1
  O  O342  1  -0.01036949  0.51434655  0.62094664  1
  O  O343  1  0.50375286  0.00617850  0.12102397  1
  O  O344  1  0.51047463  -0.00525306  0.61439474  1
  O  O345  1  0.51779357  0.49830088  0.13337924  1
  O  O346  1  0.50585158  0.50279469  0.61331142  1
  O  O347  1  0.22857989  0.39777467  0.26004989  1
  O  O348  1  0.24110171  0.36740755  0.73788699  1
  O  O349  1  0.23437222  0.86787316  0.25297998  1
  O  O350  1  0.24131490  0.87274414  0.74096669  1
  O  O351  1  0.74189601  0.38134245  0.24648030  1
  O  O352  1  0.74850722  0.36629360  0.73627786  1
  O  O353  1  0.74371453  0.88327608  0.24223680  1
  O  O354  1  0.74013103  0.87125574  0.73952181  1
  O  O355  1  0.24869248  0.13244825  0.26862167  1
  O  O356  1  0.25764628  0.12159964  0.75840439  1
  O  O357  1  0.25845527  0.60900590  0.24157598  1
  O  O358  1  0.25526436  0.63232717  0.75747755  1
  O  O359  1  0.75782937  0.11208577  0.23986591  1
  O  O360  1  0.76609680  0.13187188  0.75138210  1
  O  O361  1  0.74542621  0.61392386  0.26155596  1
  O  O362  1  0.76231857  0.63155269  0.74874943  1
  O  O363  1  0.36612279  0.11673683  0.37620104  1
  O  O364  1  0.36592572  0.11717150  0.86660194  1
  O  O365  1  0.37879581  0.62675049  0.36152498  1
  O  O366  1  0.36729364  0.62024717  0.86898950  1
  O  O367  1  0.87956629  0.12442229  0.35955059  1
  O  O368  1  0.87395076  0.11348211  0.86520222  1
  O  O369  1  0.86289932  0.61111297  0.38138708  1
  O  O370  1  0.87158995  0.61405784  0.86800666  1
  O  O371  1  0.11754547  0.38614602  0.13718734  1
  O  O372  1  0.14080592  0.37319776  0.63040673  1
  O  O373  1  0.12520050  0.88097157  0.13689123  1
  O  O374  1  0.13006020  0.86727196  0.63520058  1
  O  O375  1  0.63093645  0.38191314  0.13490175  1
  O  O376  1  0.63292332  0.37962720  0.62854023  1
  O  O377  1  0.63161644  0.87966020  0.12951851  1
  O  O378  1  0.63043672  0.88467005  0.63149194  1
  O  O379  1  0.12587640  0.26833573  0.24490072  1
  O  O380  1  0.11429581  0.26015066  0.74123735  1
  O  O381  1  0.11417609  0.76261088  0.24270050  1
  O  O382  1  0.11794678  0.75801607  0.75598520  1
  O  O383  1  0.62203113  0.25433628  0.25761285  1
  O  O384  1  0.62480216  0.24643828  0.76249299  1
  O  O385  1  0.61890717  0.75640757  0.24872764  1
  O  O386  1  0.62330929  0.76255656  0.75796525  1
  O  O387  1  0.38694927  0.24960879  0.25424122  1
  O  O388  1  0.37555229  0.24072577  0.73795355  1
  O  O389  1  0.37608142  0.74317326  0.24368037  1
  O  O390  1  0.37789271  0.73413467  0.75634174  1
  O  O391  1  0.86193688  0.24043357  0.23678621  1
  O  O392  1  0.88770665  0.24281251  0.74279030  1
  O  O393  1  0.86779286  0.75828408  0.23581014  1
  O  O394  1  0.87864633  0.74337189  0.74764545  1
  O  O395  1  0.39095658  0.50003370  0.48722243  1
  O  O396  1  0.37248037  0.50372282  0.98459061  1
  O  O397  1  0.38380534  0.99482506  0.49316456  1
  O  O398  1  0.37818346  0.99861036  0.98902490  1
  O  O399  1  0.87256510  0.49488830  0.48988984  1
  O  O400  1  0.87673028  0.49005092  0.99128213  1
  O  O401  1  0.88300108  0.99705305  0.49985456  1
  O  O402  1  0.88356236  0.99154845  0.99363591  1
  O  O403  1  0.11090556  -0.01268917  0.01099057  1
  O  O404  1  0.11809655  0.00641879  0.49662403  1
  O  O405  1  0.11509758  0.50456152  0.00319119  1
  O  O406  1  0.12178883  0.50110523  0.51574318  1
  O  O407  1  0.61796142  0.00451412  0.00467088  1
  O  O408  1  0.61901383  0.00606980  0.50600327  1
  O  O409  1  0.63369739  0.49676413  0.01826794  1
  O  O410  1  0.61432651  0.49905327  0.50633416  1
  O  O411  1  0.37112711  0.37704071  0.12543290  1
  O  O412  1  0.36431522  0.36081614  0.63581524  1
  O  O413  1  0.36773780  0.86459061  0.12485334  1
  O  O414  1  0.36816938  0.87849692  0.61441298  1
  O  O415  1  0.87182986  0.36682093  0.12167624  1
  O  O416  1  0.86942530  0.36213295  0.62981385  1
  O  O417  1  0.86588801  0.88352179  0.11267670  1
  O  O418  1  0.86570111  0.87122750  0.62278732  1
  O  O419  1  0.13852966  0.11810405  0.38305649  1
  O  O420  1  0.13444746  0.12237065  0.86910293  1
  O  O421  1  0.14941820  0.58022579  0.34930276  1
  O  O422  1  0.12870207  0.62767179  0.87542362  1
  O  O423  1  0.62621154  0.13243195  0.38505823  1
  O  O424  1  0.62627044  0.13111754  0.88190976  1
  O  O425  1  0.63827235  0.62509113  0.37848038  1
  O  O426  1  0.62612274  0.63542149  0.87040457  1
