# generated using pymatgen
data_V85Zn86O256
_symmetry_space_group_name_H-M   'P 1'
_cell_length_a   16.96810895
_cell_length_b   16.96297746
_cell_length_c   16.98428046
_cell_angle_alpha   89.89968719
_cell_angle_beta   89.98663955
_cell_angle_gamma   90.02259725
_symmetry_Int_Tables_number   1
_chemical_formula_structural   V85Zn86O256
_chemical_formula_sum   'V85 Zn86 O256'
_cell_volume   4888.57148831
_cell_formula_units_Z   1
loop_
 _symmetry_equiv_pos_site_id
 _symmetry_equiv_pos_as_xyz
  1  'x, y, z'
loop_
 _atom_site_type_symbol
 _atom_site_label
 _atom_site_symmetry_multiplicity
 _atom_site_fract_x
 _atom_site_fract_y
 _atom_site_fract_z
 _atom_site_occupancy
  V  V0  1  0.24780739  -0.00875468  0.75936059  1
  V  V1  1  0.37422030  0.87724670  0.49865598  1
  V  V2  1  0.61329373  0.12644396  0.01508557  1
  V  V3  1  0.36910193  0.37557718  0.50436824  1
  V  V4  1  0.87216499  0.00008724  0.37551877  1
  V  V5  1  0.01110475  0.75347533  0.74477324  1
  V  V6  1  0.87624828  0.37319218  0.00002565  1
  V  V7  1  0.00291912  0.25113600  0.24895127  1
  V  V8  1  0.75652010  0.76481083  -0.00524741  1
  V  V9  1  0.13078712  0.36510700  0.74217860  1
  V  V10  1  0.49976723  0.50122220  -0.00025809  1
  V  V11  1  0.25076855  0.88086434  0.12787912  1
  V  V12  1  0.87522081  0.24974467  0.12389086  1
  V  V13  1  0.51226920  0.76437712  0.26238269  1
  V  V14  1  0.49890047  0.00505825  0.50134229  1
  V  V15  1  0.50753841  0.75545432  0.74949225  1
  V  V16  1  0.62628307  0.37229851  0.75234623  1
  V  V17  1  0.01500902  0.50398311  0.00122898  1
  V  V18  1  0.77344372  0.11318918  0.89114478  1
  V  V19  1  0.37605496  0.37510355  -0.00120565  1
  V  V20  1  0.12853190  0.88011952  0.24982021  1
  V  V21  1  0.75215098  0.38111515  0.12738712  1
  V  V22  1  -0.00024623  0.87417363  0.37366387  1
  V  V23  1  0.37326517  0.11854976  0.75683419  1
  V  V24  1  0.37138930  0.24921500  0.62665084  1
  V  V25  1  0.12570563  0.37881554  0.24648175  1
  V  V26  1  0.12815338  0.49470324  0.62530918  1
  V  V27  1  0.87150688  0.50025062  0.36825992  1
  V  V28  1  0.37430695  0.12406172  0.25024358  1
  V  V29  1  0.62554845  0.24050399  0.87353489  1
  V  V30  1  0.11978220  0.62458607  0.50606156  1
  V  V31  1  0.24828407  0.37911357  0.12446944  1
  V  V32  1  0.37483207  0.62408926  0.75022097  1
  V  V33  1  0.12564327  0.12340185  0.49998533  1
  V  V34  1  0.49916528  0.49909084  0.50030057  1
  V  V35  1  0.37618994  -0.00130106  0.37373611  1
  V  V36  1  0.24234905  0.24475092  -0.00355110  1
  V  V37  1  0.50123799  0.24913224  0.25196510  1
  V  V38  1  0.75186508  0.87910327  0.13959640  1
  V  V39  1  0.37880138  0.75107489  0.62425212  1
  V  V40  1  0.37921165  0.75187185  0.12473873  1
  V  V41  1  0.24394823  0.25378196  0.50549270  1
  V  V42  1  0.62923566  0.62453181  0.49723931  1
  V  V43  1  0.75045983  0.62361713  0.87672808  1
  V  V44  1  -0.00927906  0.88575766  0.89141892  1
  V  V45  1  0.37402754  0.88021987  -0.00667684  1
  V  V46  1  0.12360546  0.00200754  0.12016691  1
  V  V47  1  0.12798409  -0.00949563  0.62804112  1
  V  V48  1  0.63428230  0.13740032  0.50271514  1
  V  V49  1  0.24945052  0.12212243  0.37349641  1
  V  V50  1  -0.00495401  0.74680488  0.24722867  1
  V  V51  1  0.87013137  0.73833851  0.62366258  1
  V  V52  1  0.87226712  0.87371109  0.51055952  1
  V  V53  1  0.12463219  0.74968133  0.37528083  1
  V  V54  1  0.87347519  0.12255334  0.25204017  1
  V  V55  1  -0.00226770  0.12422576  0.62597025  1
  V  V56  1  0.24268631  0.74629852  -0.00004045  1
  V  V57  1  0.50484877  0.87745950  0.87303766  1
  V  V58  1  0.62531419  -0.01260588  0.63045222  1
  V  V59  1  0.25027927  0.74928091  0.50019089  1
  V  V60  1  0.24783268  0.50200077  0.24693974  1
  V  V61  1  0.24225227  0.62474239  0.87717016  1
  V  V62  1  -0.00312768  0.37718744  0.37481035  1
  V  V63  1  0.50387587  0.37191750  0.37700920  1
  V  V64  1  -0.00438743  0.24570019  0.75321619  1
  V  V65  1  0.01335582  0.62295116  0.11906951  1
  V  V66  1  0.62876053  0.50202917  0.12668506  1
  V  V67  1  0.49430628  0.00296583  0.00151324  1
  V  V68  1  0.62732772  0.37579437  0.25296762  1
  V  V69  1  0.75310369  0.49877642  0.75052675  1
  V  V70  1  0.00135395  -0.00288620  0.50206809  1
  V  V71  1  0.50158847  0.62652124  0.12486478  1
  V  V72  1  0.76325989  0.36491058  0.62279008  1
  V  V73  1  0.50257351  0.37544422  0.87557444  1
  V  V74  1  0.37940500  0.24693611  0.12612107  1
  V  V75  1  0.87076796  0.12342696  0.74178465  1
  V  V76  1  -0.00316105  0.50092051  0.50126604  1
  V  V77  1  0.62647864  0.49691275  0.62554642  1
  V  V78  1  0.37628848  0.62661737  0.25069014  1
  V  V79  1  0.25006929  0.62456917  0.37443491  1
  V  V80  1  0.00274495  0.11965311  0.12256103  1
  V  V81  1  0.74930518  -0.01059520  0.74968343  1
  V  V82  1  0.74836972  0.62929157  0.36827033  1
  V  V83  1  0.00736554  0.36803629  0.87492333  1
  V  V84  1  0.87809278  0.49917166  0.87502432  1
  Zn  Zn85  1  0.88193596  0.75322074  0.11134125  1
  Zn  Zn86  1  0.73593777  0.76301777  0.49871500  1
  Zn  Zn87  1  0.73841002  0.00088973  0.25767065  1
  Zn  Zn88  1  0.24154463  0.12613093  0.87180215  1
  Zn  Zn89  1  0.62899391  0.75372309  0.87002533  1
  Zn  Zn90  1  0.25115854  0.49494977  0.74846019  1
  Zn  Zn91  1  0.37554505  0.50020621  0.87291943  1
  Zn  Zn92  1  0.49678474  0.24906950  0.75123546  1
  Zn  Zn93  1  0.50306828  0.62651527  0.62379767  1
  Zn  Zn94  1  0.12600240  0.25066150  0.37501078  1
  Zn  Zn95  1  0.11452985  0.12281016  -0.01755548  1
  Zn  Zn96  1  0.81969296  0.29496743  0.47944835  1
  Zn  Zn97  1  0.86947737  0.62051648  0.23994162  1
  Zn  Zn98  1  0.37439349  0.49973951  0.37571416  1
  Zn  Zn99  1  0.74634602  0.25026709  0.00182056  1
  Zn  Zn100  1  0.50282444  0.12727686  0.62921629  1
  Zn  Zn101  1  0.61002812  -0.01239272  0.14041070  1
  Zn  Zn102  1  0.88385936  0.62028216  0.74219369  1
  Zn  Zn103  1  0.62556314  0.62874088  -0.00194788  1
  Zn  Zn104  1  0.12501564  0.75886831  0.86861946  1
  Zn  Zn105  1  0.24394252  0.86905397  0.63201924  1
  Zn  Zn106  1  0.74275938  0.14652595  0.37834029  1
  Zn  Zn107  1  0.18935561  0.18991411  0.18724931  1
  Zn  Zn108  1  0.18448126  0.18227922  0.68812312  1
  Zn  Zn109  1  0.18758296  0.69186497  0.18703831  1
  Zn  Zn110  1  0.18914917  0.68261979  0.68595448  1
  Zn  Zn111  1  0.68754918  0.19041119  0.19116174  1
  Zn  Zn112  1  0.68842094  0.18256394  0.68686625  1
  Zn  Zn113  1  0.68774973  0.69388920  0.18328977  1
  Zn  Zn114  1  0.69262168  0.68648706  0.68505418  1
  Zn  Zn115  1  0.31333564  0.31191336  0.31726184  1
  Zn  Zn116  1  0.31304545  0.31123747  0.81429272  1
  Zn  Zn117  1  0.31556290  0.81186817  0.31255043  1
  Zn  Zn118  1  0.31522454  0.80880678  0.81477572  1
  Zn  Zn119  1  0.81390992  0.31307711  0.30561872  1
  Zn  Zn120  1  0.81372997  0.30524043  0.81166044  1
  Zn  Zn121  1  0.81050510  0.81113309  0.31799847  1
  Zn  Zn122  1  0.82128825  0.81090894  0.81136119  1
  Zn  Zn123  1  0.18436960  0.43882597  0.43463857  1
  Zn  Zn124  1  0.19148100  0.43543189  0.93123676  1
  Zn  Zn125  1  0.18980017  0.93709183  0.43830261  1
  Zn  Zn126  1  0.17852156  0.93344814  0.93660055  1
  Zn  Zn127  1  0.69102204  0.43719750  0.43748349  1
  Zn  Zn128  1  0.68759926  0.43670528  0.94028498  1
  Zn  Zn129  1  0.68801724  0.94602392  0.43786205  1
  Zn  Zn130  1  0.68111786  0.94368738  0.93867089  1
  Zn  Zn131  1  0.31188511  0.06214841  0.06499578  1
  Zn  Zn132  1  0.30942925  0.06464294  0.56709554  1
  Zn  Zn133  1  0.31299847  0.56353690  0.06113918  1
  Zn  Zn134  1  0.30944298  0.56214292  0.56487561  1
  Zn  Zn135  1  0.80814088  0.06251470  0.06474030  1
  Zn  Zn136  1  0.80951957  0.05806449  0.56488410  1
  Zn  Zn137  1  0.82134647  0.56715292  0.05908362  1
  Zn  Zn138  1  0.81137404  0.55653279  0.55672050  1
  Zn  Zn139  1  0.43729886  0.43821119  0.18706281  1
  Zn  Zn140  1  0.43884913  0.43598689  0.68703581  1
  Zn  Zn141  1  0.43639964  0.93935328  0.18815335  1
  Zn  Zn142  1  0.43613201  0.93629347  0.68498935  1
  Zn  Zn143  1  0.94011953  0.44234093  0.18446165  1
  Zn  Zn144  1  0.94392729  0.43641475  0.68755497  1
  Zn  Zn145  1  0.93522981  0.93528164  0.18350595  1
  Zn  Zn146  1  0.93674064  0.93417695  0.69560277  1
  Zn  Zn147  1  0.06198070  0.06106805  0.31121691  1
  Zn  Zn148  1  0.06402294  0.05561361  0.81515717  1
  Zn  Zn149  1  0.06219058  0.56425208  0.31118455  1
  Zn  Zn150  1  0.06119920  0.56347364  0.80768409  1
  Zn  Zn151  1  0.56131310  0.06487831  0.31970390  1
  Zn  Zn152  1  0.56030057  0.05832880  0.81488127  1
  Zn  Zn153  1  0.56167032  0.56332132  0.31110590  1
  Zn  Zn154  1  0.56280933  0.56424667  0.81048847  1
  Zn  Zn155  1  0.43810230  0.18796768  0.43891942  1
  Zn  Zn156  1  0.43472026  0.18951499  0.93539476  1
  Zn  Zn157  1  0.44023296  0.68672545  0.43704200  1
  Zn  Zn158  1  0.43661606  0.68969075  0.93567871  1
  Zn  Zn159  1  0.94040273  0.18431798  0.43421565  1
  Zn  Zn160  1  0.93278260  0.17651984  0.94090662  1
  Zn  Zn161  1  0.93431953  0.68564181  0.43612783  1
  Zn  Zn162  1  0.94388100  0.68842739  0.93181848  1
  Zn  Zn163  1  0.06134422  0.31318670  0.06325489  1
  Zn  Zn164  1  0.02225686  0.29683324  0.54752273  1
  Zn  Zn165  1  0.06025683  0.81568494  0.06053626  1
  Zn  Zn166  1  0.05588288  0.80843311  0.56434535  1
  Zn  Zn167  1  0.56271366  0.31407473  0.06364440  1
  Zn  Zn168  1  0.55966958  0.31367543  0.56792738  1
  Zn  Zn169  1  0.56897728  0.81324138  0.05936911  1
  Zn  Zn170  1  0.57959406  0.83201148  0.51866946  1
  O  O171  1  0.11820848  0.11543245  0.13585104  1
  O  O172  1  0.11870288  0.11143361  0.61973537  1
  O  O173  1  0.11361690  0.62921775  0.12742592  1
  O  O174  1  0.12726662  0.61588035  0.61189631  1
  O  O175  1  0.61724290  0.13674141  0.11433053  1
  O  O176  1  0.62146237  0.11777297  0.61769283  1
  O  O177  1  0.62233267  0.61523253  0.12423152  1
  O  O178  1  0.62829464  0.60835350  0.62066042  1
  O  O179  1  0.38328917  0.37640741  0.38686767  1
  O  O180  1  0.38338961  0.37602723  0.88056623  1
  O  O181  1  0.36449664  0.88813139  0.38447477  1
  O  O182  1  0.38360535  0.86777171  0.88865803  1
  O  O183  1  0.88892868  0.38333863  0.36784964  1
  O  O184  1  0.88290998  0.38086125  0.87799275  1
  O  O185  1  0.88128829  0.88329051  0.38045253  1
  O  O186  1  0.89059587  0.87020541  0.87381706  1
  O  O187  1  0.26021167  0.01325691  0.38224773  1
  O  O188  1  0.24581756  -0.00110247  0.86159929  1
  O  O189  1  0.25175948  0.50534969  0.36401020  1
  O  O190  1  0.25569627  0.50919510  0.87099491  1
  O  O191  1  0.76432770  0.00665136  0.37646911  1
  O  O192  1  0.73518324  0.01376297  0.86088348  1
  O  O193  1  0.76315860  0.50720701  0.37935224  1
  O  O194  1  0.75855542  0.50239104  0.87168757  1
  O  O195  1  0.25666367  0.48943925  0.13295402  1
  O  O196  1  0.23431987  0.50026948  0.62732155  1
  O  O197  1  0.24483571  0.98714858  0.12624693  1
  O  O198  1  0.24224201  0.99655130  0.63195422  1
  O  O199  1  0.74362630  0.49101521  0.11797338  1
  O  O200  1  0.74374778  0.49115125  0.63068456  1
  O  O201  1  0.75429266  0.98717128  0.12893779  1
  O  O202  1  0.73602286  1.00037752  0.63651339  1
  O  O203  1  0.00907057  0.37360735  0.25271596  1
  O  O204  1  0.00743981  0.36466335  0.75598147  1
  O  O205  1  0.00832128  0.86703578  0.25278621  1
  O  O206  1  -0.00398712  0.85793119  0.75499212  1
  O  O207  1  0.50449488  0.36977194  0.25777271  1
  O  O208  1  0.50832090  0.37381181  0.75721392  1
  O  O209  1  0.49632904  0.86306126  0.24604717  1
  O  O210  1  0.48774615  0.86679493  0.76128031  1
  O  O211  1  0.48679875  0.14073259  0.26238057  1
  O  O212  1  0.48327062  0.12346817  0.75158190  1
  O  O213  1  0.49446683  0.63264290  0.24343485  1
  O  O214  1  0.49103161  0.63396692  0.74767039  1
  O  O215  1  0.99263029  0.12985751  0.24430401  1
  O  O216  1  0.99317760  0.12602605  0.74324358  1
  O  O217  1  1.00159019  0.63359245  0.24143787  1
  O  O218  1  0.99554307  0.64303765  0.75918996  1
  O  O219  1  0.36890468  0.25453754  0.00967711  1
  O  O220  1  0.36639380  0.25545018  0.50736240  1
  O  O221  1  0.36987271  0.75924890  0.00953185  1
  O  O222  1  0.37237422  0.75679634  0.50515184  1
  O  O223  1  0.87418790  0.25614193  0.00757858  1
  O  O224  1  0.91637104  0.25734157  0.51351231  1
  O  O225  1  0.85856086  0.74379650  -0.00600203  1
  O  O226  1  0.88292957  0.75676719  0.51165376  1
  O  O227  1  0.12910217  0.24317054  0.49930425  1
  O  O228  1  0.14026781  0.24698273  1.01089446  1
  O  O229  1  0.12787252  0.74289649  0.49623399  1
  O  O230  1  0.14201713  0.75306600  1.00535504  1
  O  O231  1  0.61755316  0.23600931  0.50849256  1
  O  O232  1  0.61916274  0.24163777  0.99228285  1
  O  O233  1  0.62406016  0.72583340  0.51939295  1
  O  O234  1  0.64108686  0.74689582  0.99417954  1
  O  O235  1  0.48725281  0.25971149  0.13616522  1
  O  O236  1  0.48555494  0.24837805  0.63091017  1
  O  O237  1  0.49215361  0.74772025  0.12680165  1
  O  O238  1  0.48593535  0.75003972  0.63227703  1
  O  O239  1  0.99565860  0.24360957  0.13193646  1
  O  O240  1  1.01541534  0.23035617  0.63985583  1
  O  O241  1  1.00075842  0.74435061  0.13148408  1
  O  O242  1  0.99004120  0.74962456  0.63635106  1
  O  O243  1  0.00375986  0.26040820  0.36517253  1
  O  O244  1  -0.00561272  0.25896573  0.86801398  1
  O  O245  1  0.00572793  0.75370590  0.36757082  1
  O  O246  1  0.00384358  0.75718238  0.86425043  1
  O  O247  1  0.49355345  0.26308405  0.36725947  1
  O  O248  1  0.50796130  0.25664737  0.87261012  1
  O  O249  1  0.49591848  0.74914503  0.36120480  1
  O  O250  1  0.50243751  0.75688503  0.86620222  1
  O  O251  1  0.24526439  0.13346439  0.49324640  1
  O  O252  1  0.25233097  0.13855352  1.00173137  1
  O  O253  1  0.24166344  0.62984701  0.49433724  1
  O  O254  1  0.26154052  0.63528012  0.98907736  1
  O  O255  1  0.73886322  0.12610240  0.50531894  1
  O  O256  1  0.72192251  0.12867562  0.99946497  1
  O  O257  1  0.74191229  0.62080118  0.48956995  1
  O  O258  1  0.74947046  0.62832411  0.98828961  1
  O  O259  1  0.25383276  0.36738669  0.00731541  1
  O  O260  1  0.25737346  0.36564204  0.49069578  1
  O  O261  1  0.25693005  0.86853059  0.00783837  1
  O  O262  1  0.25879876  0.86790495  0.50234322  1
  O  O263  1  0.75631130  0.37225508  0.00971026  1
  O  O264  1  0.74942156  0.37756299  0.51726282  1
  O  O265  1  0.75157538  0.86631457  -0.00813967  1
  O  O266  1  0.76948494  0.87608641  0.49626421  1
  O  O267  1  0.13702257  0.49214793  0.25262196  1
  O  O268  1  0.12131778  0.48972291  0.74033589  1
  O  O269  1  0.12197848  0.98586099  0.24396125  1
  O  O270  1  0.14076503  1.00339633  0.74002370  1
  O  O271  1  0.61727782  0.48858437  0.23653069  1
  O  O272  1  0.63120907  0.49378849  0.74332084  1
  O  O273  1  0.62983788  1.02538574  0.24283162  1
  O  O274  1  0.63087035  1.00506435  0.73830565  1
  O  O275  1  0.38299552  0.01261783  0.26018705  1
  O  O276  1  0.36311805  0.01192766  0.74216209  1
  O  O277  1  0.36510971  0.50625718  0.25033297  1
  O  O278  1  0.37403560  0.51081403  0.74699222  1
  O  O279  1  0.87529152  0.00724907  0.25949593  1
  O  O280  1  0.85739735  0.00734544  0.74100230  1
  O  O281  1  0.88278830  0.50419622  0.26247165  1
  O  O282  1  0.87466595  0.49916474  0.76025493  1
  O  O283  1  0.11768319  0.37520143  0.36156183  1
  O  O284  1  0.11277796  0.38077401  0.86180874  1
  O  O285  1  0.12165946  0.87121083  0.36841197  1
  O  O286  1  0.10707893  0.87162150  0.87889890  1
  O  O287  1  0.61624361  0.38370262  0.36485597  1
  O  O288  1  0.62456726  0.36307342  0.87281714  1
  O  O289  1  0.62557249  0.85899388  0.42024126  1
  O  O290  1  0.60953426  0.87343041  0.87960184  1
  O  O291  1  0.36693768  0.13595005  0.13749442  1
  O  O292  1  0.37532999  0.13421390  0.63405359  1
  O  O293  1  0.37964935  0.63488578  0.12952707  1
  O  O294  1  0.37533994  0.63328979  0.63152960  1
  O  O295  1  0.88276750  0.12666909  0.13441043  1
  O  O296  1  0.88742249  0.11726337  0.62934758  1
  O  O297  1  0.88643531  0.63245685  0.12625046  1
  O  O298  1  0.87418448  0.63383487  0.61988830  1
  O  O299  1  0.25993619  0.25966876  0.11943790  1
  O  O300  1  0.25575442  0.24330884  0.61329749  1
  O  O301  1  0.26006202  0.75666233  0.11930883  1
  O  O302  1  0.26036746  0.74909701  0.61918171  1
  O  O303  1  0.75652287  0.26104905  0.12405426  1
  O  O304  1  0.74926578  0.26568624  0.63309610  1
  O  O305  1  0.75159762  0.76131305  0.11065988  1
  O  O306  1  0.76500550  0.74767529  0.61829108  1
  O  O307  1  0.24969470  0.24063868  0.38676485  1
  O  O308  1  0.25336518  0.25292941  0.89478946  1
  O  O309  1  0.24454380  0.74497669  0.38012204  1
  O  O310  1  0.24818170  0.74437544  0.88316656  1
  O  O311  1  0.76774745  0.25573670  0.38831157  1
  O  O312  1  0.74590730  0.23343649  0.87974620  1
  O  O313  1  0.75749900  0.73314463  0.38501774  1
  O  O314  1  0.75098990  0.74260727  0.87928326  1
  O  O315  1  0.00475435  0.13358852  0.01924133  1
  O  O316  1  0.00696426  0.11521661  0.50761403  1
  O  O317  1  -0.00287886  0.61576348  0.00558526  1
  O  O318  1  0.01225462  0.61542154  0.48970172  1
  O  O319  1  0.50424766  0.11840291  -0.00555834  1
  O  O320  1  0.50410822  0.11706127  0.50404913  1
  O  O321  1  0.50136865  0.62094661  0.00620809  1
  O  O322  1  0.50832360  0.61614965  0.50042358  1
  O  O323  1  0.49269324  0.37815687  0.49399666  1
  O  O324  1  0.49552474  0.38044667  0.99571613  1
  O  O325  1  0.48086186  0.89036831  0.50726900  1
  O  O326  1  0.49218406  0.88006023  0.99389069  1
  O  O327  1  1.01492725  0.38969674  0.48245186  1
  O  O328  1  0.99684255  0.38013831  0.99311748  1
  O  O329  1  0.99397354  0.87911292  0.49251575  1
  O  O330  1  0.99380631  0.87466472  0.99407312  1
  O  O331  1  0.49672645  0.48952935  0.38064063  1
  O  O332  1  0.50135486  0.49387933  0.88159156  1
  O  O333  1  0.48586604  1.00703050  0.38844011  1
  O  O334  1  0.50188945  0.99076400  0.88849790  1
  O  O335  1  0.99560325  0.49528581  0.37922248  1
  O  O336  1  0.99335940  0.49257852  0.87976019  1
  O  O337  1  0.99226921  0.99454764  0.38053584  1
  O  O338  1  0.99705012  0.98596512  0.87015639  1
  O  O339  1  0.00897686  0.00862083  0.13156916  1
  O  O340  1  0.00779882  0.00521701  0.62412190  1
  O  O341  1  -0.00300998  0.50923742  0.11257666  1
  O  O342  1  0.01084348  0.49280737  0.61128859  1
  O  O343  1  0.49803144  -0.00637499  0.10810532  1
  O  O344  1  0.50756917  0.00379057  0.62082085  1
  O  O345  1  0.50722899  0.50517085  0.11997269  1
  O  O346  1  0.51110148  0.49898093  0.61923891  1
  O  O347  1  0.24633392  0.38092717  0.24498016  1
  O  O348  1  0.23407653  0.37347613  0.75726158  1
  O  O349  1  0.23999819  0.86397444  0.23903896  1
  O  O350  1  0.26037378  0.88772720  0.74968332  1
  O  O351  1  0.74013232  0.37162281  0.23844687  1
  O  O352  1  0.74574913  0.37922570  0.74518725  1
  O  O353  1  0.74853450  0.87405262  0.24265652  1
  O  O354  1  0.75133725  0.89142126  0.76031922  1
  O  O355  1  0.26182012  0.13589027  0.26274833  1
  O  O356  1  0.25866706  0.11541631  0.74895685  1
  O  O357  1  0.25412400  0.61983855  0.25240787  1
  O  O358  1  0.26051644  0.62530872  0.75736098  1
  O  O359  1  0.76527484  0.13037627  0.25450564  1
  O  O360  1  0.75882185  0.11884651  0.75471277  1
  O  O361  1  0.74933515  0.63281646  0.26371364  1
  O  O362  1  0.75596026  0.61718638  0.75939234  1
  O  O363  1  0.36778562  0.11999356  0.37101766  1
  O  O364  1  0.36676447  0.13162492  0.85983238  1
  O  O365  1  0.36724629  0.62351097  0.36959520  1
  O  O366  1  0.36882452  0.62618790  0.86362089  1
  O  O367  1  0.88128895  0.11463148  0.36694482  1
  O  O368  1  0.87612886  0.14012472  0.84571248  1
  O  O369  1  0.86412764  0.61790647  0.37278129  1
  O  O370  1  0.86757377  0.61126394  0.87583224  1
  O  O371  1  0.13653630  0.37031506  0.13524206  1
  O  O372  1  0.11993859  0.37931476  0.63926837  1
  O  O373  1  0.13154623  0.88202580  0.13075816  1
  O  O374  1  0.12484142  0.88623516  0.61728912  1
  O  O375  1  0.63219812  0.38201705  0.13055112  1
  O  O376  1  0.63096728  0.38299250  0.63145962  1
  O  O377  1  0.64576737  0.87839521  0.11491654  1
  O  O378  1  0.61726359  0.88940325  0.61855769  1
  O  O379  1  0.12200793  0.26126323  0.25134319  1
  O  O380  1  0.11866520  0.25984128  0.74786688  1
  O  O381  1  0.11688305  0.75930661  0.25505623  1
  O  O382  1  0.11515553  0.74906207  0.74260963  1
  O  O383  1  0.61289623  0.26326324  0.24361213  1
  O  O384  1  0.62404140  0.25225363  0.75991479  1
  O  O385  1  0.61005249  0.74893200  0.24492254  1
  O  O386  1  0.61108668  0.74417386  0.74536188  1
  O  O387  1  0.38071312  0.24712079  0.24479487  1
  O  O388  1  0.36884225  0.24023767  0.74165167  1
  O  O389  1  0.38108179  0.74691888  0.23990473  1
  O  O390  1  0.38089458  0.74274991  0.74255046  1
  O  O391  1  0.88369537  0.24214316  0.24278043  1
  O  O392  1  0.88922036  0.24616390  0.74146027  1
  O  O393  1  0.88987813  0.75013363  0.25386905  1
  O  O394  1  0.87691907  0.74640586  0.73289705  1
  O  O395  1  0.37834495  0.49101615  0.50255722  1
  O  O396  1  0.38250575  0.49254293  1.00005241  1
  O  O397  1  0.37808528  0.99777318  0.49649679  1
  O  O398  1  0.37844441  0.98976667  1.00477190  1
  O  O399  1  0.88932962  0.50427033  0.48828004  1
  O  O400  1  0.88290078  0.49174663  0.98965038  1
  O  O401  1  0.88120169  0.99388095  0.49531634  1
  O  O402  1  0.84880072  1.07984447  0.96222802  1
  O  O403  1  0.13394145  0.00698324  0.01693156  1
  O  O404  1  0.12112585  0.00373928  0.50616808  1
  O  O405  1  0.11371813  0.49310131  -0.00623888  1
  O  O406  1  0.12069793  0.50679965  0.50441591  1
  O  O407  1  0.61512000  0.01543598  0.00557804  1
  O  O408  1  0.61700002  0.01010204  0.51474529  1
  O  O409  1  0.61856153  0.49945759  0.01149289  1
  O  O410  1  0.62041960  0.50341867  0.50778932  1
  O  O411  1  0.36669164  0.36757296  0.12123489  1
  O  O412  1  0.37799282  0.36549429  0.61385451  1
  O  O413  1  0.36738676  0.86935532  0.11904865  1
  O  O414  1  0.36917069  0.86671144  0.61687886  1
  O  O415  1  0.86939197  0.37207016  0.12212958  1
  O  O416  1  0.86208997  0.37977692  0.63138848  1
  O  O417  1  0.85977660  0.86980268  0.12729193  1
  O  O418  1  0.88252207  0.86673851  0.61538252  1
  O  O419  1  0.13282669  0.12396602  0.37910767  1
  O  O420  1  0.12800394  0.12689259  0.87228857  1
  O  O421  1  0.13130964  0.63015375  0.38212145  1
  O  O422  1  0.14035929  0.62811057  0.86662658  1
  O  O423  1  0.62770297  0.11973226  0.39752013  1
  O  O424  1  0.62182843  0.13446731  0.88091420  1
  O  O425  1  0.63944652  0.61270929  0.38257428  1
  O  O426  1  0.63902986  0.62455050  0.87417979  1
