# generated using pymatgen
data_V85Zn86O256
_symmetry_space_group_name_H-M   'P 1'
_cell_length_a   16.99026038
_cell_length_b   16.99919870
_cell_length_c   16.99046124
_cell_angle_alpha   89.86133095
_cell_angle_beta   89.99740227
_cell_angle_gamma   89.95922081
_symmetry_Int_Tables_number   1
_chemical_formula_structural   V85Zn86O256
_chemical_formula_sum   'V85 Zn86 O256'
_cell_volume   4907.18319345
_cell_formula_units_Z   1
loop_
 _symmetry_equiv_pos_site_id
 _symmetry_equiv_pos_as_xyz
  1  'x, y, z'
loop_
 _atom_site_type_symbol
 _atom_site_label
 _atom_site_symmetry_multiplicity
 _atom_site_fract_x
 _atom_site_fract_y
 _atom_site_fract_z
 _atom_site_occupancy
  V  V0  1  0.73144299  0.48318831  0.23682399  1
  V  V1  1  0.62724739  0.74237263  0.87510605  1
  V  V2  1  0.76574288  0.87204284  0.61955139  1
  V  V3  1  0.62486985  0.00483033  0.62672752  1
  V  V4  1  0.37688703  0.87939355  -0.00300035  1
  V  V5  1  0.00755913  0.49849923  0.50709751  1
  V  V6  1  0.51760936  0.26572065  0.22999754  1
  V  V7  1  0.00873270  0.26257779  0.76504266  1
  V  V8  1  0.62755980  -0.00330385  0.12653459  1
  V  V9  1  -0.00382657  0.75035842  0.74766791  1
  V  V10  1  0.23081250  0.24817412  -0.00609854  1
  V  V11  1  0.88579703  0.12548646  0.74684359  1
  V  V12  1  0.49866530  0.37656895  0.87356939  1
  V  V13  1  0.74998134  0.25041172  0.50152039  1
  V  V14  1  0.50912279  0.86995581  0.37373027  1
  V  V15  1  0.62912560  0.12455333  -0.00001679  1
  V  V16  1  0.24312328  0.13113103  0.87141134  1
  V  V17  1  0.62391297  0.12555039  0.50414075  1
  V  V18  1  0.75138204  0.26570887  0.00330296  1
  V  V19  1  0.87109701  0.26198267  0.12151708  1
  V  V20  1  0.50147993  0.37349544  0.37031200  1
  V  V21  1  0.00523163  0.86957739  0.87662776  1
  V  V22  1  0.87569877  0.61869462  0.24697969  1
  V  V23  1  0.87683042  0.37401811  0.50019062  1
  V  V24  1  0.37357227  0.37401763  0.50222765  1
  V  V25  1  0.88656248  -0.00945668  0.38494655  1
  V  V26  1  0.12289584  0.86984940  0.25705091  1
  V  V27  1  0.87766204  0.12221113  0.24900864  1
  V  V28  1  0.25032776  0.24945508  0.50125427  1
  V  V29  1  0.62505382  0.25011553  0.87511272  1
  V  V30  1  -0.00647149  0.48653332  -0.00267334  1
  V  V31  1  0.50215778  0.00504944  0.50242804  1
  V  V32  1  0.87599361  0.48862494  0.87680794  1
  V  V33  1  0.00017465  0.37671324  0.37511961  1
  V  V34  1  0.62755788  0.87478438  0.74977730  1
  V  V35  1  0.75063366  0.37499890  0.62405538  1
  V  V36  1  0.11556211  0.12207264  0.50153588  1
  V  V37  1  0.87107781  0.62699976  0.74677709  1
  V  V38  1  0.50363746  0.50244344  0.49915205  1
  V  V39  1  0.37983513  0.00147698  0.37297554  1
  V  V40  1  0.75117102  -0.00480245  0.25072053  1
  V  V41  1  0.75298428  0.00335951  0.75136619  1
  V  V42  1  0.12478919  0.37581499  0.24955128  1
  V  V43  1  0.37090431  0.50138067  0.87434091  1
  V  V44  1  0.37472690  0.75041515  0.12001747  1
  V  V45  1  0.11471168  0.63746273  -0.00131188  1
  V  V46  1  0.12784375  0.87297146  0.75500212  1
  V  V47  1  0.36735991  0.62011274  0.74929878  1
  V  V48  1  0.37892402  0.12980056  0.24824747  1
  V  V49  1  0.00555979  0.61979063  0.62696392  1
  V  V50  1  0.25206247  0.12579865  0.37362671  1
  V  V51  1  0.51319523  0.62174150  0.11853994  1
  V  V52  1  0.87444991  0.87436918  0.00540087  1
  V  V53  1  0.74823953  0.74263464  -0.00036928  1
  V  V54  1  0.24893949  0.50049050  0.24678396  1
  V  V55  1  0.62404075  0.49856962  0.62368841  1
  V  V56  1  0.49804784  0.23669084  0.74593474  1
  V  V57  1  0.12874850  0.00176520  0.12595805  1
  V  V58  1  0.24144484  0.38533696  0.63655662  1
  V  V59  1  0.11779351  0.50708225  0.12315329  1
  V  V60  1  0.87657166  0.00271497  0.87560728  1
  V  V61  1  0.37755810  0.87338520  0.49940997  1
  V  V62  1  0.24443785  0.63222495  0.37559128  1
  V  V63  1  0.62417329  0.37350564  0.74878038  1
  V  V64  1  0.26002449  0.00686447  0.75070516  1
  V  V65  1  0.00306647  0.12461173  0.12133144  1
  V  V66  1  0.37470453  0.49938510  0.37205854  1
  V  V67  1  0.36967538  0.25075770  0.11700572  1
  V  V68  1  0.62531502  0.25105911  0.37210636  1
  V  V69  1  0.24741286  0.63185685  0.87722769  1
  V  V70  1  0.00730433  0.00375904  -0.00070352  1
  V  V71  1  0.51196607  0.50487743  0.00010291  1
  V  V72  1  0.73130566  0.62372473  0.37774042  1
  V  V73  1  0.49833896  0.12231707  0.12118518  1
  V  V74  1  0.75042421  0.50214570  0.74838887  1
  V  V75  1  0.50065375  0.75007330  0.74837606  1
  V  V76  1  0.50070617  0.62299773  0.62163403  1
  V  V77  1  0.50866605  0.74840052  0.25093117  1
  V  V78  1  0.75088551  0.12421693  0.37651544  1
  V  V79  1  0.37983542  0.23711317  0.62783173  1
  V  V80  1  0.37349920  0.74959966  0.62343381  1
  V  V81  1  0.25375535  0.87626623  0.62610012  1
  V  V82  1  0.88524013  0.24581246  0.62532999  1
  V  V83  1  0.11738254  0.00693104  0.62306939  1
  V  V84  1  0.37602554  0.62511783  0.24612578  1
  Zn  Zn85  1  0.06241318  0.80520045  0.41821807  1
  Zn  Zn86  1  0.24333927  0.75648076  -0.00411895  1
  Zn  Zn87  1  0.25107158  0.87650545  0.12440563  1
  Zn  Zn88  1  -0.09561176  0.85160448  0.50125327  1
  Zn  Zn89  1  -0.00049031  0.25181610  0.24821920  1
  Zn  Zn90  1  0.12157819  0.62989291  0.50100194  1
  Zn  Zn91  1  0.86491874  0.49684231  0.37383916  1
  Zn  Zn92  1  0.75168394  0.86837899  0.12809185  1
  Zn  Zn93  1  0.24472123  0.75544657  0.49512610  1
  Zn  Zn94  1  0.12375150  0.24734647  0.37329657  1
  Zn  Zn95  1  0.74675444  0.74190999  0.49386451  1
  Zn  Zn96  1  0.74925125  0.62277369  0.87642669  1
  Zn  Zn97  1  0.49950670  0.87626236  0.87432615  1
  Zn  Zn98  1  0.37205696  0.37719769  -0.00228018  1
  Zn  Zn99  1  -0.00034981  0.74267341  0.25122363  1
  Zn  Zn100  1  0.38236577  0.01123836  0.87105068  1
  Zn  Zn101  1  0.50243148  -0.00151529  -0.00365726  1
  Zn  Zn102  1  0.75457084  0.12973134  0.87710114  1
  Zn  Zn103  1  0.63171726  0.86689968  0.25525954  1
  Zn  Zn104  1  0.25445296  -0.00007308  0.24719912  1
  Zn  Zn105  1  0.24708739  0.37763750  0.11762413  1
  Zn  Zn106  1  0.87988268  0.73510089  0.12197734  1
  Zn  Zn107  1  0.18752654  0.18865111  0.18628262  1
  Zn  Zn108  1  0.18813051  0.19244608  0.68682940  1
  Zn  Zn109  1  0.18874081  0.68788773  0.18411722  1
  Zn  Zn110  1  0.18643950  0.68943480  0.68863522  1
  Zn  Zn111  1  0.69241835  0.18544975  0.18471643  1
  Zn  Zn112  1  0.69248255  0.18742031  0.69063416  1
  Zn  Zn113  1  0.69719993  0.68007906  0.18691590  1
  Zn  Zn114  1  0.67836182  0.70119035  0.65814341  1
  Zn  Zn115  1  0.31578396  0.31234128  0.30835267  1
  Zn  Zn116  1  0.31466574  0.30980915  0.81128718  1
  Zn  Zn117  1  0.31586839  0.81614987  0.30636001  1
  Zn  Zn118  1  0.31431264  0.81267054  0.81266451  1
  Zn  Zn119  1  0.81254245  0.31220078  0.31032769  1
  Zn  Zn120  1  0.81332030  0.30979828  0.81078616  1
  Zn  Zn121  1  0.81674045  0.80218371  0.32301980  1
  Zn  Zn122  1  0.81220520  0.81357613  0.81297616  1
  Zn  Zn123  1  0.18765612  0.44014210  0.43666014  1
  Zn  Zn124  1  0.18852728  0.44561661  0.93968296  1
  Zn  Zn125  1  0.19002914  0.94165108  0.43978185  1
  Zn  Zn126  1  0.19305219  0.94216260  0.93710227  1
  Zn  Zn127  1  0.68695398  0.43793103  0.43270224  1
  Zn  Zn128  1  0.68831352  0.43946492  0.93302664  1
  Zn  Zn129  1  0.69188324  0.93910720  0.43885034  1
  Zn  Zn130  1  0.69023515  0.93429705  0.93770751  1
  Zn  Zn131  1  0.31027374  0.06774799  0.05418828  1
  Zn  Zn132  1  0.31035802  0.05906189  0.56052653  1
  Zn  Zn133  1  0.31199133  0.56528227  0.05844174  1
  Zn  Zn134  1  0.31263020  0.56160096  0.55981265  1
  Zn  Zn135  1  0.81371098  0.06402519  0.06274952  1
  Zn  Zn136  1  0.81366507  0.06240440  0.56445345  1
  Zn  Zn137  1  0.80708347  0.55352828  0.06476304  1
  Zn  Zn138  1  0.81863321  0.56318464  0.55980128  1
  Zn  Zn139  1  0.43630471  0.43987039  0.18006127  1
  Zn  Zn140  1  0.43304133  0.43243123  0.68838874  1
  Zn  Zn141  1  0.43967814  0.93602733  0.18715955  1
  Zn  Zn142  1  0.44079732  0.93783064  0.68610635  1
  Zn  Zn143  1  0.93536842  0.44662966  0.18854209  1
  Zn  Zn144  1  0.93791593  0.43714919  0.68902545  1
  Zn  Zn145  1  0.94234924  0.93555479  0.19080258  1
  Zn  Zn146  1  0.94079666  0.93883060  0.68749686  1
  Zn  Zn147  1  0.06546693  0.05905793  0.31151177  1
  Zn  Zn148  1  0.06750145  0.06503218  0.81173990  1
  Zn  Zn149  1  0.05892018  0.56255349  0.31619513  1
  Zn  Zn150  1  0.05752281  0.56723362  0.82179035  1
  Zn  Zn151  1  0.56276834  0.06832942  0.31067340  1
  Zn  Zn152  1  0.56452637  0.06103007  0.81642632  1
  Zn  Zn153  1  0.56252250  0.55842848  0.30488072  1
  Zn  Zn154  1  0.55927397  0.56192984  0.80904193  1
  Zn  Zn155  1  0.43991940  0.19011319  0.43517343  1
  Zn  Zn156  1  0.43369030  0.18721140  0.93362003  1
  Zn  Zn157  1  0.43552674  0.68768580  0.43469119  1
  Zn  Zn158  1  0.44001117  0.68895601  0.93639157  1
  Zn  Zn159  1  0.93605046  0.18886298  0.43370373  1
  Zn  Zn160  1  0.93947169  0.19249455  0.93951035  1
  Zn  Zn161  1  0.92630031  0.68240305  0.43090596  1
  Zn  Zn162  1  0.93259914  0.68568498  0.93312744  1
  Zn  Zn163  1  0.05744365  0.31516433  0.06607120  1
  Zn  Zn164  1  0.06602916  0.31151108  0.56530107  1
  Zn  Zn165  1  0.05682706  0.81456892  0.07467975  1
  Zn  Zn166  1  0.06842856  0.80948283  0.57674606  1
  Zn  Zn167  1  0.55863881  0.31320371  0.05665453  1
  Zn  Zn168  1  0.56096918  0.31219074  0.56276332  1
  Zn  Zn169  1  0.56265995  0.81080268  0.06140246  1
  Zn  Zn170  1  0.56880137  0.81161786  0.55688387  1
  O  O171  1  0.11087176  0.11782212  0.13393654  1
  O  O172  1  0.13420308  0.11334911  0.61738749  1
  O  O173  1  0.12955945  0.61616998  0.11157987  1
  O  O174  1  0.11040407  0.62634607  0.62908068  1
  O  O175  1  0.62181380  0.11840256  0.11751332  1
  O  O176  1  0.63448933  0.11205752  0.62158015  1
  O  O177  1  0.61126750  0.63026215  0.12508802  1
  O  O178  1  0.60594216  0.61164635  0.63810322  1
  O  O179  1  0.37990292  0.37708879  0.38515155  1
  O  O180  1  0.38018051  0.38595533  0.87241256  1
  O  O181  1  0.38638144  0.88171929  0.37893785  1
  O  O182  1  0.37606344  0.87661705  0.88620271  1
  O  O183  1  0.88506325  0.37155175  0.38168474  1
  O  O184  1  0.86845209  0.38950367  0.87157337  1
  O  O185  1  0.87039706  0.88802961  0.38001885  1
  O  O186  1  0.88486704  0.88512627  0.88175271  1
  O  O187  1  0.26094929  0.01354589  0.37659300  1
  O  O188  1  0.25368896  0.01120950  0.86682977  1
  O  O189  1  0.25680610  0.50794880  0.36790566  1
  O  O190  1  0.26311481  0.51521293  0.88193919  1
  O  O191  1  0.75652251  0.00552727  0.36674261  1
  O  O192  1  0.76342097  -0.00009046  0.87135702  1
  O  O193  1  0.74608900  0.50359249  0.36355708  1
  O  O194  1  0.75664657  0.50426765  0.86766646  1
  O  O195  1  0.23877392  0.49911173  0.12727716  1
  O  O196  1  0.25845657  0.48395139  0.62020434  1
  O  O197  1  0.23727648  1.00773712  0.12244980  1
  O  O198  1  0.24721663  0.99515148  0.63353391  1
  O  O199  1  0.74406810  0.49560451  0.13647511  1
  O  O200  1  0.74483848  0.49442244  0.62789675  1
  O  O201  1  0.74427851  1.00046605  0.13448138  1
  O  O202  1  0.74371224  0.99400239  0.63173984  1
  O  O203  1  0.00814180  0.37894084  0.25751493  1
  O  O204  1  -0.00456539  0.36116213  0.74837141  1
  O  O205  1  0.02016044  0.88024199  0.25236831  1
  O  O206  1  0.00570019  0.87037206  0.75699243  1
  O  O207  1  0.48228937  0.37341367  0.26668083  1
  O  O208  1  0.50660242  0.36943782  0.75507058  1
  O  O209  1  0.50320646  0.86669863  0.25754975  1
  O  O210  1  0.51195807  0.86895197  0.74750497  1
  O  O211  1  0.49947657  0.14107381  0.23929343  1
  O  O212  1  0.50663190  0.13788863  0.75371780  1
  O  O213  1  0.49461190  0.62989493  0.24095600  1
  O  O214  1  0.48775559  0.62951915  0.74128843  1
  O  O215  1  0.99155564  0.12578684  0.24214947  1
  O  O216  1  0.98890493  0.13066729  0.75540899  1
  O  O217  1  0.97918640  0.61085137  0.25122182  1
  O  O218  1  0.99565690  0.63097740  0.74840430  1
  O  O219  1  0.36598942  0.25240566  0.00685154  1
  O  O220  1  0.37102377  0.25635348  0.50438730  1
  O  O221  1  0.37758869  0.75933161  0.00705291  1
  O  O222  1  0.37318770  0.75626381  0.50597876  1
  O  O223  1  0.86657279  0.24480051  0.01346164  1
  O  O224  1  0.87009412  0.25224188  0.50716686  1
  O  O225  1  0.86896018  0.75985672  -0.00256568  1
  O  O226  1  0.86022237  0.74962139  0.49178364  1
  O  O227  1  0.13756668  0.24154466  0.49930002  1
  O  O228  1  0.13247010  0.25529815  1.00282404  1
  O  O229  1  0.13066602  0.74553777  0.50081154  1
  O  O230  1  0.12279019  0.74007297  1.00905956  1
  O  O231  1  0.62808689  0.24494192  0.49286238  1
  O  O232  1  0.63191598  0.24356278  0.99697006  1
  O  O233  1  0.64755227  0.73586393  0.54770273  1
  O  O234  1  0.63589888  0.76018407  0.98623856  1
  O  O235  1  0.48213659  0.23799233  0.11628203  1
  O  O236  1  0.49257189  0.25469918  0.63288283  1
  O  O237  1  0.49294573  0.74271517  0.12906929  1
  O  O238  1  0.49347680  0.74033366  0.62809696  1
  O  O239  1  0.98782390  0.24071288  0.12337559  1
  O  O240  1  0.98702606  0.25268124  0.62804578  1
  O  O241  1  0.98941817  0.75596458  0.13931123  1
  O  O242  1  0.99938356  0.74084589  0.64196526  1
  O  O243  1  0.00275755  0.26295299  0.37107137  1
  O  O244  1  -0.00219975  0.25120888  0.86508017  1
  O  O245  1  0.00411420  0.72934591  0.36246687  1
  O  O246  1  -0.00118160  0.76420158  0.86896426  1
  O  O247  1  0.50720649  0.25630662  0.36324706  1
  O  O248  1  0.50467302  0.25597370  0.86780511  1
  O  O249  1  0.49404983  0.75841490  0.36415923  1
  O  O250  1  0.51023464  0.75282297  0.86690217  1
  O  O251  1  0.24695823  0.13281622  0.49101986  1
  O  O252  1  0.24538550  0.14100055  0.99146803  1
  O  O253  1  0.25190225  0.62358393  0.48361004  1
  O  O254  1  0.23872460  0.62977821  0.99352485  1
  O  O255  1  0.74412555  0.13161719  0.49614475  1
  O  O256  1  0.74068182  0.13250901  1.00095549  1
  O  O257  1  0.75305232  0.61292206  0.48118779  1
  O  O258  1  0.75891790  0.63909889  0.99723612  1
  O  O259  1  0.24848932  0.36300789  -0.00468270  1
  O  O260  1  0.25848012  0.36644201  0.49866931  1
  O  O261  1  0.25953940  0.87370460  0.00307003  1
  O  O262  1  0.26039827  0.87666329  0.50656638  1
  O  O263  1  0.74110883  0.36446474  0.00261201  1
  O  O264  1  0.75546799  0.36922363  0.50399507  1
  O  O265  1  0.76116900  0.86683036  -0.00057381  1
  O  O266  1  0.74500193  0.87567158  0.51771426  1
  O  O267  1  0.12715540  0.49588712  0.24140585  1
  O  O268  1  0.12410467  0.47100636  0.78462195  1
  O  O269  1  0.13046516  0.99360565  0.24130707  1
  O  O270  1  0.13562871  0.99633383  0.74047182  1
  O  O271  1  0.63032092  0.49086774  0.24726394  1
  O  O272  1  0.62962080  0.49240585  0.74471829  1
  O  O273  1  0.63546165  1.00417797  0.24268901  1
  O  O274  1  0.63111655  0.99527955  0.74498523  1
  O  O275  1  0.37836624  0.01068796  0.25453024  1
  O  O276  1  0.36358208  -0.00529657  0.74859847  1
  O  O277  1  0.36901711  0.50508061  0.25174402  1
  O  O278  1  0.38225010  0.51091594  0.75998007  1
  O  O279  1  0.86888777  0.00495770  0.25636772  1
  O  O280  1  0.87522812  0.00661525  0.75745083  1
  O  O281  1  0.86074730  0.50401735  0.25090497  1
  O  O282  1  0.87046982  0.50629402  0.75686625  1
  O  O283  1  0.11877904  0.37504993  0.36575097  1
  O  O284  1  0.12842764  0.41583040  0.83770344  1
  O  O285  1  0.13660516  0.87840658  0.36158485  1
  O  O286  1  0.11582702  0.88813286  0.86533530  1
  O  O287  1  0.61236615  0.36173643  0.38233479  1
  O  O288  1  0.61905936  0.36865276  0.86798011  1
  O  O289  1  0.61353772  0.87977219  0.37533045  1
  O  O290  1  0.62912687  0.86875671  0.86079410  1
  O  O291  1  0.37656691  0.13121695  0.12808739  1
  O  O292  1  0.37043252  0.13850245  0.61691005  1
  O  O293  1  0.38050203  0.63343900  0.12783429  1
  O  O294  1  0.37988006  0.62733593  0.63147474  1
  O  O295  1  0.88438693  0.12467564  0.13381165  1
  O  O296  1  0.86953378  0.13409026  0.63522811  1
  O  O297  1  0.86295170  0.61921382  0.14155332  1
  O  O298  1  0.88766642  0.61776697  0.63922141  1
  O  O299  1  0.25276375  0.24944702  0.11094878  1
  O  O300  1  0.25906814  0.25721103  0.61494691  1
  O  O301  1  0.26587101  0.75004252  0.12180242  1
  O  O302  1  0.25702295  0.75822522  0.62555734  1
  O  O303  1  0.76353862  0.24598411  0.11941428  1
  O  O304  1  0.75772880  0.25574638  0.62041455  1
  O  O305  1  0.75427995  0.75199845  0.11406840  1
  O  O306  1  0.76730504  0.77453574  0.64337820  1
  O  O307  1  0.25329221  0.24201510  0.38348094  1
  O  O308  1  0.24926254  0.24315452  0.88270107  1
  O  O309  1  0.26039905  0.73448035  0.37111987  1
  O  O310  1  0.25500046  0.73728821  0.87735480  1
  O  O311  1  0.74424334  0.24493575  0.38160034  1
  O  O312  1  0.74506360  0.25016239  0.88489399  1
  O  O313  1  0.74080788  0.72992487  0.37091422  1
  O  O314  1  0.74367621  0.74882771  0.88020092  1
  O  O315  1  -0.00756621  0.11405241  0.00951487  1
  O  O316  1  0.01729892  0.13295767  0.49280334  1
  O  O317  1  0.01266022  0.62413847  -0.00626665  1
  O  O318  1  -0.00288823  0.61475646  0.51111817  1
  O  O319  1  0.51339601  0.12446605  0.00319713  1
  O  O320  1  0.50601483  0.11229496  0.49249462  1
  O  O321  1  0.49481468  0.61752970  0.00697171  1
  O  O322  1  0.48845244  0.61315079  0.50979526  1
  O  O323  1  0.49050265  0.37922267  0.49153102  1
  O  O324  1  0.49780792  0.38433695  0.99138473  1
  O  O325  1  0.49916899  0.88128907  0.49319846  1
  O  O326  1  0.49133608  0.87696709  0.99811970  1
  O  O327  1  0.99860242  0.37836382  0.49453356  1
  O  O328  1  1.00126292  0.38794427  0.99780941  1
  O  O329  1  1.01386375  0.87084021  0.49954713  1
  O  O330  1  0.99426659  0.88347356  0.99358460  1
  O  O331  1  0.49505868  0.49245304  0.38101748  1
  O  O332  1  0.49181248  0.49795681  0.88012169  1
  O  O333  1  0.49889611  0.99344800  0.38165129  1
  O  O334  1  0.49798073  0.99467922  0.87786222  1
  O  O335  1  0.99762476  0.48727217  0.38412154  1
  O  O336  1  0.99060251  0.50346324  0.88979285  1
  O  O337  1  0.98445689  1.00386667  0.36952167  1
  O  O338  1  0.99472009  0.99441928  0.88101994  1
  O  O339  1  0.00718097  0.00626864  0.11803023  1
  O  O340  1  0.01926745  0.00115283  0.63231976  1
  O  O341  1  0.00713192  0.49852129  0.11108463  1
  O  O342  1  -0.00216274  0.50507818  0.61786024  1
  O  O343  1  0.51240147  0.00577684  0.12541124  1
  O  O344  1  0.51238148  -0.00683367  0.61338870  1
  O  O345  1  0.49398762  0.50957677  0.11260562  1
  O  O346  1  0.50023931  0.50299069  0.61736363  1
  O  O347  1  0.23977270  0.38126887  0.25000244  1
  O  O348  1  0.25547477  0.36949957  0.73466729  1
  O  O349  1  0.24461824  0.88193345  0.24368259  1
  O  O350  1  0.24404757  0.88344317  0.74888714  1
  O  O351  1  0.74982759  0.38402504  0.25349675  1
  O  O352  1  0.74431361  0.38013463  0.74328026  1
  O  O353  1  0.75079183  0.88461567  0.25129729  1
  O  O354  1  0.74781341  0.88547132  0.74437228  1
  O  O355  1  0.25738337  0.12866654  0.26002034  1
  O  O356  1  0.24723845  0.12097339  0.76036480  1
  O  O357  1  0.25530380  0.62027146  0.25683835  1
  O  O358  1  0.26038180  0.63042913  0.75694977  1
  O  O359  1  0.76023161  0.11524645  0.25389672  1
  O  O360  1  0.76333003  0.12060836  0.75584840  1
  O  O361  1  0.74966799  0.60914805  0.25906925  1
  O  O362  1  0.75996422  0.61915771  0.74270956  1
  O  O363  1  0.37132316  0.12310029  0.36916624  1
  O  O364  1  0.35597475  0.12345465  0.88250237  1
  O  O365  1  0.36937812  0.61749418  0.36635300  1
  O  O366  1  0.37032998  0.62091033  0.86725072  1
  O  O367  1  0.87069236  0.12046817  0.36456671  1
  O  O368  1  0.87686094  0.11463143  0.87016927  1
  O  O369  1  0.85999104  0.61494365  0.36109121  1
  O  O370  1  0.87326822  0.61506457  0.86245916  1
  O  O371  1  0.12358312  0.38566306  0.13427734  1
  O  O372  1  0.14306383  0.37210577  0.61925068  1
  O  O373  1  0.12815706  0.88796968  0.13324059  1
  O  O374  1  0.13413755  0.88818734  0.63688806  1
  O  O375  1  0.57951993  0.32169029  0.16998249  1
  O  O376  1  0.63054008  0.37921566  0.62867053  1
  O  O377  1  0.62778360  0.88730309  0.12770514  1
  O  O378  1  0.63564045  0.88674954  0.63658386  1
  O  O379  1  0.12232960  0.26260712  0.24910697  1
  O  O380  1  0.10556068  0.24330850  0.74367161  1
  O  O381  1  0.12972182  0.76782543  0.24090956  1
  O  O382  1  0.11717117  0.76650060  0.74727055  1
  O  O383  1  0.62641197  0.23086221  0.26925173  1
  O  O384  1  0.62001368  0.25440921  0.75416604  1
  O  O385  1  0.61151743  0.74959570  0.24023636  1
  O  O386  1  0.62230038  0.75914868  0.75182709  1
  O  O387  1  0.38405592  0.24897260  0.23548419  1
  O  O388  1  0.38692679  0.25458556  0.73932423  1
  O  O389  1  0.38634923  0.74619759  0.23894363  1
  O  O390  1  0.38073018  0.74241241  0.74383206  1
  O  O391  1  0.87376781  0.23876312  0.23820698  1
  O  O392  1  0.88270290  0.24301006  0.74412757  1
  O  O393  1  0.86739025  0.72954062  0.24967435  1
  O  O394  1  0.88655714  0.74073865  0.76102266  1
  O  O395  1  0.38410412  0.49038487  0.49394617  1
  O  O396  1  0.38178089  0.49940963  0.98840201  1
  O  O397  1  0.38580079  0.99471011  0.49546633  1
  O  O398  1  0.37758588  0.98971979  1.00250562  1
  O  O399  1  0.88747142  0.48900643  0.49847415  1
  O  O400  1  0.88682977  0.50573910  0.99462425  1
  O  O401  1  0.87185782  1.00788605  0.48389139  1
  O  O402  1  0.88303424  0.99498422  0.99272943  1
  O  O403  1  0.11351048  -0.00609326  0.00837905  1
  O  O404  1  0.13340515  0.00771537  0.51503049  1
  O  O405  1  0.11232013  0.50712486  0.00483470  1
  O  O406  1  0.11169053  0.50562888  0.49362328  1
  O  O407  1  0.63014728  0.00744461  0.00885385  1
  O  O408  1  0.62046859  0.00481079  0.50789431  1
  O  O409  1  0.61131978  0.50004745  -0.00956854  1
  O  O410  1  0.60885492  0.48947625  0.50615711  1
  O  O411  1  0.36912268  0.36418723  0.12136346  1
  O  O412  1  0.36888486  0.36687105  0.61336757  1
  O  O413  1  0.37692661  0.86729701  0.11713404  1
  O  O414  1  0.37321200  0.86947571  0.61959489  1
  O  O415  1  0.88292617  0.35886394  0.12970271  1
  O  O416  1  0.86911126  0.36568520  0.61967317  1
  O  O417  1  0.87458292  0.88385133  0.11091112  1
  O  O418  1  0.86803296  0.89260769  0.61458347  1
  O  O419  1  0.13634848  0.12422405  0.38073992  1
  O  O420  1  0.14238552  0.11855063  0.87761742  1
  O  O421  1  0.14287534  0.62036527  0.37038419  1
  O  O422  1  0.13332184  0.62189574  0.88930594  1
  O  O423  1  0.63062672  0.13003417  0.38534166  1
  O  O424  1  0.62947703  0.13084252  0.88535697  1
  O  O425  1  0.63087553  0.61684559  0.37452378  1
  O  O426  1  0.62766582  0.63913810  0.86343120  1
