# generated using pymatgen
data_V85Zn86O256
_symmetry_space_group_name_H-M   'P 1'
_cell_length_a   16.96561573
_cell_length_b   16.96486440
_cell_length_c   16.97469458
_cell_angle_alpha   90.04962039
_cell_angle_beta   89.80627034
_cell_angle_gamma   90.09962552
_symmetry_Int_Tables_number   1
_chemical_formula_structural   V85Zn86O256
_chemical_formula_sum   'V85 Zn86 O256'
_cell_volume   4885.60878426
_cell_formula_units_Z   1
loop_
 _symmetry_equiv_pos_site_id
 _symmetry_equiv_pos_as_xyz
  1  'x, y, z'
loop_
 _atom_site_type_symbol
 _atom_site_label
 _atom_site_symmetry_multiplicity
 _atom_site_fract_x
 _atom_site_fract_y
 _atom_site_fract_z
 _atom_site_occupancy
  V  V0  1  0.62615814  0.49601680  0.62270432  1
  V  V1  1  -0.00543809  0.50248728  0.50766573  1
  V  V2  1  0.87587063  0.12857784  0.75060009  1
  V  V3  1  0.36733268  0.25909693  0.12333732  1
  V  V4  1  0.51534285  0.37342874  0.36874875  1
  V  V5  1  0.38308209  0.13185604  0.74910460  1
  V  V6  1  0.62756446  0.25051594  0.88324849  1
  V  V7  1  0.86241024  0.74462674  0.63258329  1
  V  V8  1  0.00023145  0.49779685  0.01017013  1
  V  V9  1  0.50822826  0.25575914  0.25048513  1
  V  V10  1  0.87050773  0.00163545  0.37781068  1
  V  V11  1  0.25237856  0.00044580  0.75033770  1
  V  V12  1  0.12580662  0.37387645  0.74889826  1
  V  V13  1  0.12174467  0.62508454  0.50904219  1
  V  V14  1  0.24969054  0.37161962  0.61476544  1
  V  V15  1  0.74999545  0.87137735  0.12594672  1
  V  V16  1  -0.00287931  0.37599617  0.37945039  1
  V  V17  1  0.74659501  0.74948768  0.48079651  1
  V  V18  1  0.62548124  0.62606641  -0.00446025  1
  V  V19  1  0.50687046  0.87017458  0.86649062  1
  V  V20  1  0.50151476  0.62787290  0.62597568  1
  V  V21  1  0.87621237  0.51508584  0.37230320  1
  V  V22  1  0.11949017  0.75471585  0.87634680  1
  V  V23  1  0.87474522  0.12011982  0.25519238  1
  V  V24  1  0.51040966  0.12936040  0.62371089  1
  V  V25  1  0.37102731  0.62789061  0.24023124  1
  V  V26  1  0.25003588  0.74928399  0.50023652  1
  V  V27  1  0.00134502  -0.00604587  -0.00531382  1
  V  V28  1  0.75355549  0.36744324  0.61353966  1
  V  V29  1  0.37955560  -0.00106319  0.37705899  1
  V  V30  1  0.12304995  0.74795404  0.37752481  1
  V  V31  1  0.24760505  0.12978262  0.39040768  1
  V  V32  1  0.49284348  0.75342329  0.25546373  1
  V  V33  1  0.12466803  0.87621448  0.25221346  1
  V  V34  1  -0.00790066  0.62814042  0.12669051  1
  V  V35  1  0.62529531  0.49470810  0.12562653  1
  V  V36  1  0.11485295  0.87691444  0.75388728  1
  V  V37  1  -0.00070137  0.72959647  0.74363078  1
  V  V38  1  0.87353893  0.50421222  0.87312202  1
  V  V39  1  0.38352372  0.87488623  0.49503568  1
  V  V40  1  0.00126722  -0.00366594  0.50167360  1
  V  V41  1  0.87706242  -0.00582546  0.87479561  1
  V  V42  1  0.49787708  0.50024803  -0.00259132  1
  V  V43  1  0.49830444  0.12475996  0.12707497  1
  V  V44  1  -0.00043939  0.37209233  0.87319804  1
  V  V45  1  0.37785714  0.00027737  0.87425080  1
  V  V46  1  0.24473410  0.49756129  0.23588681  1
  V  V47  1  0.63537907  0.13544231  0.47841936  1
  V  V48  1  0.25492517  0.86841276  0.12664282  1
  V  V49  1  0.12650899  0.00511738  0.62177915  1
  V  V50  1  0.75103970  0.12976726  0.88365298  1
  V  V51  1  -0.00554276  0.74865581  0.24697192  1
  V  V52  1  0.49893537  0.49780241  0.49609928  1
  V  V53  1  0.37027892  0.49679085  0.37220515  1
  V  V54  1  0.25288473  0.87599802  0.62640077  1
  V  V55  1  0.62482345  0.00033578  0.12591327  1
  V  V56  1  0.25032186  0.50036852  0.74719635  1
  V  V57  1  0.37486769  0.50066247  0.87109978  1
  V  V58  1  0.86701506  0.36737995  0.00078084  1
  V  V59  1  0.12574093  0.38016156  0.23553135  1
  V  V60  1  0.74436552  -0.00685063  0.74592389  1
  V  V61  1  0.75482366  0.49982372  0.74974798  1
  V  V62  1  0.12840914  0.12351185  -0.00163322  1
  V  V63  1  0.12321935  0.62146121  0.00462514  1
  V  V64  1  0.00208010  0.25008892  0.25256860  1
  V  V65  1  0.62922203  0.62433167  0.48543459  1
  V  V66  1  0.62008074  0.86782576  0.26317379  1
  V  V67  1  0.37614039  0.86770369  0.00425652  1
  V  V68  1  0.00293096  0.12232191  0.12477204  1
  V  V69  1  0.50271120  0.00025817  0.00119422  1
  V  V70  1  0.37400067  0.24992480  0.61728215  1
  V  V71  1  0.37826844  0.62920880  0.74696691  1
  V  V72  1  0.24878828  0.00132625  0.25282840  1
  V  V73  1  0.87237242  0.24969423  0.60605445  1
  V  V74  1  0.75078278  0.74944019  -0.00069523  1
  V  V75  1  0.87754413  0.87034178  0.00445159  1
  V  V76  1  0.25267637  0.12873444  0.87653875  1
  V  V77  1  0.24898460  0.62692193  0.87297698  1
  V  V78  1  0.37251132  0.12661003  0.25167632  1
  V  V79  1  0.37925390  0.75016259  0.62597349  1
  V  V80  1  0.62266644  0.36689249  0.74826416  1
  V  V81  1  0.49763441  0.36907394  0.86874811  1
  V  V82  1  0.12860303  0.24893466  0.38721468  1
  V  V83  1  0.00228162  0.12499008  0.61893785  1
  V  V84  1  0.86858276  0.24687794  0.12159791  1
  Zn  Zn85  1  0.85631198  0.63888467  0.24839509  1
  Zn  Zn86  1  0.86289935  0.87778852  0.50892890  1
  Zn  Zn87  1  0.00118800  0.24960683  0.74646614  1
  Zn  Zn88  1  0.24824310  0.62203348  0.37366629  1
  Zn  Zn89  1  0.62344707  0.74785237  0.86852628  1
  Zn  Zn90  1  0.63724442  0.84974376  0.72245096  1
  Zn  Zn91  1  0.12730810  -0.00156211  0.12532253  1
  Zn  Zn92  1  0.73663127  0.36525288  0.12867012  1
  Zn  Zn93  1  0.36596692  0.37925340  -0.00011538  1
  Zn  Zn94  1  -0.00310612  0.87391295  0.37830126  1
  Zn  Zn95  1  0.74314191  0.00076250  0.25706226  1
  Zn  Zn96  1  0.49305240  0.63757941  0.11666362  1
  Zn  Zn97  1  0.75410061  0.63023215  0.86660826  1
  Zn  Zn98  1  0.24171427  0.26200925  0.00819565  1
  Zn  Zn99  1  0.12091395  0.50309799  0.62706514  1
  Zn  Zn100  1  0.25134159  0.74725280  0.00362059  1
  Zn  Zn101  1  0.12581047  0.25021171  0.87494320  1
  Zn  Zn102  1  0.63356662  0.13442573  0.01024329  1
  Zn  Zn103  1  0.73874700  0.50677923  0.25711314  1
  Zn  Zn104  1  0.63168810  -0.00358270  0.61685626  1
  Zn  Zn105  1  0.50739118  -0.00151456  0.49658458  1
  Zn  Zn106  1  0.37203062  0.36839735  0.49244380  1
  Zn  Zn107  1  0.18729717  0.18673715  0.19290768  1
  Zn  Zn108  1  0.19134755  0.18930856  0.68722518  1
  Zn  Zn109  1  0.18358310  0.68519492  0.18831478  1
  Zn  Zn110  1  0.18964404  0.69082063  0.68852890  1
  Zn  Zn111  1  0.70965483  0.21018489  0.25645861  1
  Zn  Zn112  1  0.69223719  0.18795029  0.69267957  1
  Zn  Zn113  1  0.67971298  0.68586026  0.18565438  1
  Zn  Zn114  1  0.68469126  0.67951529  0.68480492  1
  Zn  Zn115  1  0.30972192  0.31333569  0.30784904  1
  Zn  Zn116  1  0.31217299  0.31225740  0.80866947  1
  Zn  Zn117  1  0.31125309  0.81189577  0.31435369  1
  Zn  Zn118  1  0.31325181  0.81276760  0.81346438  1
  Zn  Zn119  1  0.80758245  0.33942474  0.31146876  1
  Zn  Zn120  1  0.81010517  0.31377707  0.80977536  1
  Zn  Zn121  1  0.81303211  0.82099860  0.31491971  1
  Zn  Zn122  1  0.81624763  0.81125225  0.81308309  1
  Zn  Zn123  1  0.18165593  0.43890811  0.43202323  1
  Zn  Zn124  1  0.18675939  0.43964555  0.93755451  1
  Zn  Zn125  1  0.19192605  0.93756094  0.43901540  1
  Zn  Zn126  1  0.19142534  0.93710890  0.93725601  1
  Zn  Zn127  1  0.69144308  0.43950555  0.43708606  1
  Zn  Zn128  1  0.68750847  0.43599837  0.93832425  1
  Zn  Zn129  1  0.68784983  0.93982470  0.44398072  1
  Zn  Zn130  1  0.68988092  0.93877158  0.93589034  1
  Zn  Zn131  1  0.31388079  0.05895288  0.06561197  1
  Zn  Zn132  1  0.31753729  0.06173381  0.56425731  1
  Zn  Zn133  1  0.30928335  0.56128826  0.05898770  1
  Zn  Zn134  1  0.31032889  0.56108731  0.56054052  1
  Zn  Zn135  1  0.81360892  0.05880150  0.06700242  1
  Zn  Zn136  1  0.81244493  0.06512763  0.56250128  1
  Zn  Zn137  1  0.81277126  0.56272571  0.05991122  1
  Zn  Zn138  1  0.81254303  0.56740710  0.56534443  1
  Zn  Zn139  1  0.43840098  0.43970126  0.18838098  1
  Zn  Zn140  1  0.43661089  0.43785730  0.68480991  1
  Zn  Zn141  1  0.43670913  0.93600697  0.19058223  1
  Zn  Zn142  1  0.44549630  0.93984693  0.68120372  1
  Zn  Zn143  1  0.91483524  0.43152797  0.19569094  1
  Zn  Zn144  1  0.93360857  0.43335289  0.68576717  1
  Zn  Zn145  1  0.93932183  0.93581217  0.18683327  1
  Zn  Zn146  1  0.93277950  0.93283503  0.68545015  1
  Zn  Zn147  1  0.06199572  0.06461828  0.31992091  1
  Zn  Zn148  1  0.06301951  0.06235559  0.81018286  1
  Zn  Zn149  1  0.05963397  0.56265230  0.31334688  1
  Zn  Zn150  1  0.06430126  0.55833127  0.81860467  1
  Zn  Zn151  1  0.56079789  0.06342454  0.30813482  1
  Zn  Zn152  1  0.56411229  0.06485844  0.81443877  1
  Zn  Zn153  1  0.55367575  0.56398293  0.30701063  1
  Zn  Zn154  1  0.56555219  0.55899599  0.80893474  1
  Zn  Zn155  1  0.44338485  0.18751155  0.43639596  1
  Zn  Zn156  1  0.43966344  0.18849328  0.94125532  1
  Zn  Zn157  1  0.43915218  0.68433861  0.43466595  1
  Zn  Zn158  1  0.43708626  0.68862363  0.93319141  1
  Zn  Zn159  1  0.80664985  0.19241540  0.42451961  1
  Zn  Zn160  1  0.93848601  0.18543139  0.93743792  1
  Zn  Zn161  1  0.93648157  0.68979790  0.44638317  1
  Zn  Zn162  1  0.94013026  0.68868587  0.93580448  1
  Zn  Zn163  1  0.05659041  0.31015011  0.05998333  1
  Zn  Zn164  1  0.05767096  0.31469644  0.56368350  1
  Zn  Zn165  1  0.06482913  0.81061934  0.06633219  1
  Zn  Zn166  1  0.06137209  0.81478041  0.56881704  1
  Zn  Zn167  1  0.55340688  0.31346498  0.06122448  1
  Zn  Zn168  1  0.56147476  0.30972479  0.55693646  1
  Zn  Zn169  1  0.56196549  0.81091126  0.06611800  1
  Zn  Zn170  1  0.56835115  0.81072966  0.55554101  1
  O  O171  1  0.11918800  0.12236322  0.11762318  1
  O  O172  1  0.11752515  0.11403949  0.63730423  1
  O  O173  1  0.11533106  0.62949311  0.11074661  1
  O  O174  1  0.13119037  0.62387381  0.61352254  1
  O  O175  1  0.61743289  0.10836515  0.12591517  1
  O  O176  1  0.61528495  0.12560919  0.63001553  1
  O  O177  1  0.61714446  0.61610386  0.10744380  1
  O  O178  1  0.61672543  0.61486666  0.61613929  1
  O  O179  1  0.37482316  0.38554475  0.37292983  1
  O  O180  1  0.38422265  0.38148107  0.86766759  1
  O  O181  1  0.36387276  0.88721876  0.38376123  1
  O  O182  1  0.38315036  0.88108482  0.88363897  1
  O  O183  1  0.89334173  0.38790715  0.37134832  1
  O  O184  1  0.88157372  0.37780259  0.88189352  1
  O  O185  1  0.88023740  0.88636495  0.38222116  1
  O  O186  1  0.87082874  0.88752155  0.88671137  1
  O  O187  1  0.25553959  0.00996980  0.37206553  1
  O  O188  1  0.25741621  0.00974693  0.87112126  1
  O  O189  1  0.25583197  0.49967653  0.36384434  1
  O  O190  1  0.25499129  0.50779456  0.86686435  1
  O  O191  1  0.76548089  -0.00571367  0.37414495  1
  O  O192  1  0.75880807  0.00828610  0.86813609  1
  O  O193  1  0.77324719  0.49104091  0.37481965  1
  O  O194  1  0.75827850  0.49543235  0.86776432  1
  O  O195  1  0.25044762  0.50022191  0.13641527  1
  O  O196  1  0.24883678  0.49006512  0.63096924  1
  O  O197  1  0.24761151  0.99060329  0.13428621  1
  O  O198  1  0.24417677  0.99762216  0.63023120  1
  O  O199  1  0.72752400  0.50222340  0.10984903  1
  O  O200  1  0.74866029  0.48971678  0.63030910  1
  O  O201  1  0.74133547  0.98908031  0.12632057  1
  O  O202  1  0.75244581  1.00564039  0.64236163  1
  O  O203  1  0.00760443  0.36914299  0.25571481  1
  O  O204  1  0.00787671  0.37556939  0.75704750  1
  O  O205  1  0.01016858  0.86728888  0.24933464  1
  O  O206  1  0.01349606  0.87502950  0.75019098  1
  O  O207  1  0.49383429  0.36766971  0.25714586  1
  O  O208  1  0.51087232  0.38321030  0.75815078  1
  O  O209  1  0.50832672  0.86616418  0.24917629  1
  O  O210  1  0.49619833  0.88391789  0.76734984  1
  O  O211  1  0.49135899  0.13402941  0.24596176  1
  O  O212  1  0.49226046  0.11981406  0.73988946  1
  O  O213  1  0.48904117  0.63497183  0.24379478  1
  O  O214  1  0.49491853  0.61447695  0.73471315  1
  O  O215  1  0.99854830  0.12875304  0.24233700  1
  O  O216  1  0.99079127  0.12319588  0.74204562  1
  O  O217  1  1.00785547  0.63507459  0.24006591  1
  O  O218  1  1.00597526  0.63075761  0.75009393  1
  O  O219  1  0.37410985  0.24877558  0.01536999  1
  O  O220  1  0.37792772  0.24978147  0.51204252  1
  O  O221  1  0.37238684  0.76311096  -0.00411139  1
  O  O222  1  0.37042382  0.75547159  0.50241544  1
  O  O223  1  0.88099560  0.25388319  0.00870554  1
  O  O224  1  0.87287919  0.23999173  0.50783122  1
  O  O225  1  0.86921560  0.76207236  -0.00636722  1
  O  O226  1  0.85947989  0.74942257  0.50937194  1
  O  O227  1  0.11977046  0.25556000  0.48512313  1
  O  O228  1  0.12410649  0.23561325  0.99792057  1
  O  O229  1  0.12691269  0.74588926  0.49592625  1
  O  O230  1  0.12297989  0.74291523  0.99087582  1
  O  O231  1  0.62442351  0.23351721  0.49958181  1
  O  O232  1  0.62243386  0.25160558  0.98917522  1
  O  O233  1  0.63732229  0.73910905  0.50013694  1
  O  O234  1  0.63161583  0.74286608  0.99550903  1
  O  O235  1  0.48758083  0.24470479  0.12958601  1
  O  O236  1  0.49153027  0.23751880  0.62325269  1
  O  O237  1  0.50297856  0.75014977  0.14152796  1
  O  O238  1  0.49529932  0.73420459  0.61401567  1
  O  O239  1  0.99686027  0.23665316  0.13056803  1
  O  O240  1  0.99142275  0.24257189  0.62601630  1
  O  O241  1  1.00337954  0.74216417  0.13545681  1
  O  O242  1  1.00292207  0.74746856  0.64162313  1
  O  O243  1  0.01367551  0.25748862  0.36319422  1
  O  O244  1  0.00105979  0.26114413  0.87262786  1
  O  O245  1  0.01001629  0.75154872  0.37118751  1
  O  O246  1  0.01097356  0.74525709  0.86216889  1
  O  O247  1  0.49232412  0.26152949  0.36274507  1
  O  O248  1  0.50748474  0.26140361  0.87912266  1
  O  O249  1  0.49932431  0.74390920  0.35645653  1
  O  O250  1  0.50089692  0.76700781  0.87924804  1
  O  O251  1  0.25215873  0.12210821  0.48948600  1
  O  O252  1  0.24277379  0.12048801  0.99283659  1
  O  O253  1  0.24111257  0.63084700  0.49600350  1
  O  O254  1  0.24007181  0.62606472  0.99377225  1
  O  O255  1  0.74066225  0.12493481  0.49577692  1
  O  O256  1  0.75052107  0.11640231  0.98843356  1
  O  O257  1  0.74047319  0.63647208  0.50566459  1
  O  O258  1  0.74375221  0.63505080  0.99898776  1
  O  O259  1  0.25382761  0.37237285  -0.00798767  1
  O  O260  1  0.24868303  0.38236242  0.51155511  1
  O  O261  1  0.25848176  0.87591681  0.00886365  1
  O  O262  1  0.25784351  0.86908582  0.50748670  1
  O  O263  1  0.76386599  0.37677856  0.00547427  1
  O  O264  1  0.74369012  0.37437610  0.51479707  1
  O  O265  1  0.75658076  0.86994260  0.00572354  1
  O  O266  1  0.74396151  0.85538608  0.49890481  1
  O  O267  1  0.12811414  0.48724131  0.25486638  1
  O  O268  1  0.12975041  0.49022147  0.74901103  1
  O  O269  1  0.12805759  0.99009344  0.25444136  1
  O  O270  1  0.13123134  0.99368737  0.74491229  1
  O  O271  1  0.61789127  0.50634252  0.22839589  1
  O  O272  1  0.63351213  0.48737098  0.74349735  1
  O  O273  1  0.62167023  0.98807807  0.24231868  1
  O  O274  1  0.64180547  1.00504466  0.75278506  1
  O  O275  1  0.36939605  0.00469525  0.25869413  1
  O  O276  1  0.37122424  0.01027340  0.75386665  1
  O  O277  1  0.36582467  0.50607132  0.25340629  1
  O  O278  1  0.36967669  0.50769753  0.75253535  1
  O  O279  1  0.88203097  0.00486867  0.25999289  1
  O  O280  1  0.86950143  0.00607542  0.75720103  1
  O  O281  1  0.89458138  0.51666252  0.26836020  1
  O  O282  1  0.86663607  0.48799128  0.76135954  1
  O  O283  1  0.11793304  0.36483740  0.36625127  1
  O  O284  1  0.11608836  0.37520852  0.86585276  1
  O  O285  1  0.12561177  0.86712710  0.36782025  1
  O  O286  1  0.13280228  0.86584154  0.86690348  1
  O  O287  1  0.61429760  0.38573666  0.37078922  1
  O  O288  1  0.61912236  0.36933501  0.86906933  1
  O  O289  1  0.62762046  0.88207620  0.36041730  1
  O  O290  1  0.61136089  0.87763486  0.87698142  1
  O  O291  1  0.38019291  0.12910721  0.13181390  1
  O  O292  1  0.38126381  0.13225843  0.63094832  1
  O  O293  1  0.37345057  0.62072505  0.13581505  1
  O  O294  1  0.38252117  0.62862382  0.62640642  1
  O  O295  1  0.88673063  0.12703761  0.12861911  1
  O  O296  1  0.88173307  0.13110351  0.63298630  1
  O  O297  1  0.88831205  0.62174787  0.12588422  1
  O  O298  1  0.87733247  0.64429270  0.62188493  1
  O  O299  1  0.26387228  0.24298635  0.12655621  1
  O  O300  1  0.25938399  0.26026845  0.62887748  1
  O  O301  1  0.24295986  0.76414636  0.12488877  1
  O  O302  1  0.25739798  0.75658398  0.61930375  1
  O  O303  1  0.76802391  0.25079819  0.14205372  1
  O  O304  1  0.76105397  0.25558852  0.63222906  1
  O  O305  1  0.74118825  0.76185232  0.11225219  1
  O  O306  1  0.76131588  0.75122718  0.63512233  1
  O  O307  1  0.23659565  0.24612606  0.37060855  1
  O  O308  1  0.25138045  0.23615153  0.87681829  1
  O  O309  1  0.23786744  0.74904399  0.38080643  1
  O  O310  1  0.23849767  0.74424314  0.87521283  1
  O  O311  1  0.75101100  0.25520049  0.35129892  1
  O  O312  1  0.74258988  0.24038164  0.87147765  1
  O  O313  1  0.75549122  0.74588579  0.38262679  1
  O  O314  1  0.75046978  0.74933823  0.88701437  1
  O  O315  1  0.00834761  0.11583331  0.00544583  1
  O  O316  1  0.00117043  0.11028287  0.51750129  1
  O  O317  1  0.00357836  0.61882175  0.00639115  1
  O  O318  1  0.00972164  0.61372352  0.49761666  1
  O  O319  1  0.50316652  0.11360739  0.00620184  1
  O  O320  1  0.51323048  0.12570012  0.50843788  1
  O  O321  1  0.50508245  0.61738598  -0.00456237  1
  O  O322  1  0.50710123  0.61731073  0.50501892  1
  O  O323  1  0.49721647  0.38000338  0.48776178  1
  O  O324  1  0.49283475  0.38490391  0.98731318  1
  O  O325  1  0.48618104  0.87505802  0.49750765  1
  O  O326  1  0.49395778  0.88387706  0.99612625  1
  O  O327  1  1.00852349  0.39093486  0.49079162  1
  O  O328  1  0.99631876  0.38081332  0.98994871  1
  O  O329  1  1.00087878  0.88760747  0.50203626  1
  O  O330  1  0.99308897  0.88516660  1.01021985  1
  O  O331  1  0.48920492  0.49137044  0.37431238  1
  O  O332  1  0.49589394  0.49236705  0.87975454  1
  O  O333  1  0.48284639  1.00895765  0.37597792  1
  O  O334  1  0.49809354  0.99445480  0.88469840  1
  O  O335  1  0.99592051  0.49597541  0.38595745  1
  O  O336  1  0.99144586  0.48984233  0.88156545  1
  O  O337  1  0.99472115  1.00043873  0.38758532  1
  O  O338  1  0.99088594  1.00678646  0.88520438  1
  O  O339  1  0.00202285  0.00860747  0.11564578  1
  O  O340  1  0.00693655  0.00442754  0.62296158  1
  O  O341  1  -0.00635911  0.50488413  0.11281386  1
  O  O342  1  -0.00063555  0.49258182  0.61109765  1
  O  O343  1  0.50458268  0.00194967  0.11938008  1
  O  O344  1  0.49541769  0.02106954  0.61746723  1
  O  O345  1  0.50486673  0.50020269  0.11031285  1
  O  O346  1  0.50461466  0.50441856  0.61546931  1
  O  O347  1  0.23280588  0.38031906  0.24985091  1
  O  O348  1  0.24202295  0.38005971  0.74354068  1
  O  O349  1  0.24330565  0.87929119  0.24563898  1
  O  O350  1  0.24475742  0.88145929  0.74520512  1
  O  O351  1  0.78608174  0.40612177  0.22459940  1
  O  O352  1  0.74083121  0.38096040  0.74263016  1
  O  O353  1  0.73818402  0.87397954  0.24234549  1
  O  O354  1  0.74929422  0.89005267  0.75816468  1
  O  O355  1  0.25411093  0.11968444  0.26002697  1
  O  O356  1  0.25883015  0.12031064  0.75860217  1
  O  O357  1  0.25274084  0.61763487  0.25141634  1
  O  O358  1  0.25545837  0.62000176  0.75324856  1
  O  O359  1  0.77037140  0.11466881  0.23947283  1
  O  O360  1  0.76010846  0.11631595  0.76124038  1
  O  O361  1  0.74775434  0.61780121  0.23966481  1
  O  O362  1  0.74558708  0.60364519  0.75029714  1
  O  O363  1  0.36628910  0.12106474  0.37182382  1
  O  O364  1  0.37269141  0.12202915  0.86939751  1
  O  O365  1  0.37342522  0.61295690  0.36268200  1
  O  O366  1  0.37001822  0.62126995  0.86707406  1
  O  O367  1  0.87763127  0.11614556  0.36453343  1
  O  O368  1  0.87069051  0.11655581  0.87019815  1
  O  O369  1  0.87903247  0.61744413  0.37659394  1
  O  O370  1  0.87354262  0.60839414  0.88311331  1
  O  O371  1  0.11570024  0.37259830  0.13713766  1
  O  O372  1  0.13116041  0.37526021  0.63372799  1
  O  O373  1  0.13288735  0.87748128  0.13647028  1
  O  O374  1  0.13235413  0.88423000  0.63544020  1
  O  O375  1  0.62179957  0.38883206  0.11499909  1
  O  O376  1  0.62946280  0.37479308  0.63125835  1
  O  O377  1  0.63165256  0.88361808  0.13070270  1
  O  O378  1  0.59483052  0.89016930  0.62946929  1
  O  O379  1  0.11773825  0.26062957  0.25113161  1
  O  O380  1  0.12376439  0.26124817  0.75253843  1
  O  O381  1  0.11871512  0.75724545  0.25914420  1
  O  O382  1  0.11615306  0.75566731  0.75526432  1
  O  O383  1  0.60664942  0.24770085  0.23577940  1
  O  O384  1  0.62912685  0.26104227  0.76169872  1
  O  O385  1  0.61636403  0.76264805  0.24917225  1
  O  O386  1  0.63173547  0.74554924  0.75689756  1
  O  O387  1  0.37882793  0.24606113  0.23866392  1
  O  O388  1  0.37207792  0.23788071  0.74047192  1
  O  O389  1  0.38170430  0.74339222  0.25362594  1
  O  O390  1  0.36977506  0.74225507  0.73974783  1
  O  O391  1  0.89167972  0.23980935  0.24181554  1
  O  O392  1  0.87711581  0.23638542  0.75060166  1
  O  O393  1  0.89050558  0.75157666  0.26008101  1
  O  O394  1  0.89045247  0.75230729  0.74605044  1
  O  O395  1  0.37951467  0.50053427  0.48713441  1
  O  O396  1  0.38292572  0.50283276  0.99051937  1
  O  O397  1  0.37513791  0.99125837  0.49288556  1
  O  O398  1  0.38504645  0.99309307  0.99579851  1
  O  O399  1  0.88934017  0.50950225  0.49247568  1
  O  O400  1  0.88208812  0.48869850  0.99322499  1
  O  O401  1  0.88229905  0.99949627  0.49591818  1
  O  O402  1  0.88264268  0.99288447  0.99424844  1
  O  O403  1  0.11801407  0.00655798  -0.00131799  1
  O  O404  1  0.12020570  -0.00623070  0.51468824  1
  O  O405  1  0.11161341  0.51186961  -0.01108433  1
  O  O406  1  0.11544039  0.50940469  0.49979682  1
  O  O407  1  0.61642805  -0.00244808  0.00871885  1
  O  O408  1  0.62473288  0.01673363  0.50062596  1
  O  O409  1  0.61424149  0.50564484  0.00019588  1
  O  O410  1  0.62087727  0.50469949  0.50492673  1
  O  O411  1  0.37731104  0.36171322  0.12469244  1
  O  O412  1  0.36803880  0.36702861  0.62375972  1
  O  O413  1  0.36608933  0.88198868  0.11680707  1
  O  O414  1  0.37281802  0.87108318  0.61662519  1
  O  O415  1  0.89072416  0.35958762  0.11061096  1
  O  O416  1  0.86653677  0.36061990  0.62866259  1
  O  O417  1  0.86309115  0.88276239  0.11572155  1
  O  O418  1  0.88405149  0.85486748  0.62121086  1
  O  O419  1  0.13169882  0.14097437  0.37059939  1
  O  O420  1  0.13420280  0.12407399  0.88102563  1
  O  O421  1  0.12436471  0.63543127  0.38354127  1
  O  O422  1  0.12866749  0.63334537  0.88324831  1
  O  O423  1  0.62575401  0.12607855  0.37830689  1
  O  O424  1  0.63257335  0.13452903  0.87781577  1
  O  O425  1  0.62098734  0.61195883  0.38666317  1
  O  O426  1  0.62872822  0.62151429  0.88551601  1
