# generated using pymatgen
data_V85Zn86O256
_symmetry_space_group_name_H-M   'P 1'
_cell_length_a   16.96978943
_cell_length_b   16.94529962
_cell_length_c   16.97202311
_cell_angle_alpha   89.99081621
_cell_angle_beta   89.97457062
_cell_angle_gamma   89.93275505
_symmetry_Int_Tables_number   1
_chemical_formula_structural   V85Zn86O256
_chemical_formula_sum   'V85 Zn86 O256'
_cell_volume   4880.43994222
_cell_formula_units_Z   1
loop_
 _symmetry_equiv_pos_site_id
 _symmetry_equiv_pos_as_xyz
  1  'x, y, z'
loop_
 _atom_site_type_symbol
 _atom_site_label
 _atom_site_symmetry_multiplicity
 _atom_site_fract_x
 _atom_site_fract_y
 _atom_site_fract_z
 _atom_site_occupancy
  V  V0  1  0.62735490  0.25189387  0.37415764  1
  V  V1  1  0.61468420  0.87532220  0.75730105  1
  V  V2  1  0.13017866  0.49950330  0.62365611  1
  V  V3  1  0.12368211  -0.00252141  0.62131356  1
  V  V4  1  0.37413261  -0.00053137  0.87315952  1
  V  V5  1  0.49724634  0.12918076  0.62299542  1
  V  V6  1  0.50056723  -0.00722419  -0.00425339  1
  V  V7  1  0.74984249  0.74689665  -0.00186179  1
  V  V8  1  0.49858225  0.37865432  0.37581017  1
  V  V9  1  -0.00064196  0.13103672  0.12952193  1
  V  V10  1  -0.00580391  0.74025684  0.24601433  1
  V  V11  1  0.75584618  0.12323670  0.37662755  1
  V  V12  1  0.51252387  0.50723766  0.00467176  1
  V  V13  1  0.62471820  0.12445308  -0.00028674  1
  V  V14  1  0.38975008  -0.01267281  0.38645089  1
  V  V15  1  0.62497659  0.61568921  0.50298830  1
  V  V16  1  0.12542055  0.37455669  0.74851049  1
  V  V17  1  0.87500260  0.62881471  0.74503896  1
  V  V18  1  0.74892595  0.25373498  0.00183014  1
  V  V19  1  0.37494978  0.12132703  0.25200719  1
  V  V20  1  0.37166757  0.35999785  0.50333659  1
  V  V21  1  0.37768745  0.74553194  0.12715770  1
  V  V22  1  0.12343806  0.24960814  0.87480454  1
  V  V23  1  0.50184847  0.25055508  0.24837725  1
  V  V24  1  0.87232431  0.12715598  0.74784096  1
  V  V25  1  0.75383492  -0.00026456  0.25078087  1
  V  V26  1  0.50099211  0.12416633  0.12443314  1
  V  V27  1  0.75257100  0.87248365  0.12736754  1
  V  V28  1  0.49881652  0.75577623  0.25866428  1
  V  V29  1  0.49988978  0.37549485  0.87618595  1
  V  V30  1  0.87318953  0.49957121  0.87395188  1
  V  V31  1  0.37754788  0.62960336  0.75199470  1
  V  V32  1  -0.00351607  0.25097784  0.74878409  1
  V  V33  1  -0.00001704  -0.00023445  0.00113251  1
  V  V34  1  0.37868153  0.75090009  0.62688521  1
  V  V35  1  0.49344913  0.25029986  0.74561628  1
  V  V36  1  0.12429538  0.87710893  0.25256944  1
  V  V37  1  0.25090713  0.25042952  -0.00052572  1
  V  V38  1  0.87236514  0.37607809  0.00531891  1
  V  V39  1  0.25580862  0.75036901  0.49867797  1
  V  V40  1  0.24650453  0.37533829  0.12891325  1
  V  V41  1  0.12252107  0.51599317  0.12054055  1
  V  V42  1  0.36832637  0.62395990  0.25613376  1
  V  V43  1  0.13100646  0.74693369  0.37550342  1
  V  V44  1  -0.00061933  0.37552238  0.87567534  1
  V  V45  1  0.36486931  0.50147496  0.37815330  1
  V  V46  1  0.50316328  0.61812483  0.62918930  1
  V  V47  1  0.13277160  0.62233206  0.49691309  1
  V  V48  1  -0.01176801  0.87852746  0.37986001  1
  V  V49  1  -0.01338878  -0.00183361  0.49664806  1
  V  V50  1  0.76397067  0.61710121  0.37243261  1
  V  V51  1  0.87460550  -0.00003056  0.87432021  1
  V  V52  1  0.24657922  0.74310005  -0.00055585  1
  V  V53  1  0.74448816  0.49737912  0.73633758  1
  V  V54  1  0.75938647  0.75101190  0.49996279  1
  V  V55  1  0.62483421  0.12640120  0.50548596  1
  V  V56  1  0.75527730  0.26378936  0.50289338  1
  V  V57  1  0.74485490  -0.00038293  0.74628254  1
  V  V58  1  0.76023598  0.87534341  0.62273106  1
  V  V59  1  0.00254837  0.87341612  0.87205568  1
  V  V60  1  0.62602010  0.37973974  0.73624040  1
  V  V61  1  0.61310339  0.75045243  0.87285954  1
  V  V62  1  0.12509404  0.74210869  0.87759253  1
  V  V63  1  0.38054771  0.87316576  -0.00373578  1
  V  V64  1  0.12446221  0.12550498  -0.00000993  1
  V  V65  1  0.74537485  0.62566592  0.87519907  1
  V  V66  1  0.12911725  0.13376065  0.49947336  1
  V  V67  1  0.62500214  0.38965456  0.23975278  1
  V  V68  1  -0.00841549  0.49285406  0.49481665  1
  V  V69  1  0.87511209  0.87538733  0.00129774  1
  V  V70  1  0.86976032  0.26813381  0.62368603  1
  V  V71  1  0.00056241  0.51292953  0.00218652  1
  V  V72  1  0.87642311  0.12848048  0.25242822  1
  V  V73  1  -0.01488606  0.37065084  0.36974028  1
  V  V74  1  0.62284288  0.75344114  0.37541747  1
  V  V75  1  0.24917920  0.87582098  0.12542578  1
  V  V76  1  0.57580485  -0.04967878  0.57122931  1
  V  V77  1  0.25409825  0.87623154  0.62075154  1
  V  V78  1  0.87378330  0.25376209  0.12599952  1
  V  V79  1  0.12484492  0.00036416  0.12685935  1
  V  V80  1  0.62426552  0.24979311  0.87427809  1
  V  V81  1  0.76385120  0.50049371  0.24061505  1
  V  V82  1  0.12825780  0.25368664  0.36452978  1
  V  V83  1  0.37327058  0.50136943  0.87702470  1
  V  V84  1  0.25362804  0.35774587  0.62241970  1
  Zn  Zn85  1  0.24823296  0.00063728  0.75038989  1
  Zn  Zn86  1  0.50021041  0.49532012  0.50718067  1
  Zn  Zn87  1  0.37574799  0.37604946  0.00371257  1
  Zn  Zn88  1  0.11339199  0.37613268  0.24404940  1
  Zn  Zn89  1  0.24514402  0.62102434  0.87595431  1
  Zn  Zn90  1  0.00173338  0.62724207  0.62119165  1
  Zn  Zn91  1  0.25215729  0.00020080  0.25657035  1
  Zn  Zn92  1  0.24937849  0.12385770  0.87090176  1
  Zn  Zn93  1  0.25062605  0.49885227  0.75079412  1
  Zn  Zn94  1  0.37400931  0.25144399  0.12583509  1
  Zn  Zn95  1  0.62415509  -0.00735301  0.12407976  1
  Zn  Zn96  1  0.88288208  0.75330904  0.61961500  1
  Zn  Zn97  1  0.00445908  0.74849368  0.74439817  1
  Zn  Zn98  1  0.25733075  0.12577074  0.38128144  1
  Zn  Zn99  1  0.37059737  0.12725767  0.74404319  1
  Zn  Zn100  1  0.52075163  0.61163485  0.13407936  1
  Zn  Zn101  1  0.12712502  0.87354258  0.74883409  1
  Zn  Zn102  1  0.87912013  0.73477565  0.12368483  1
  Zn  Zn103  1  0.74760714  0.12310320  0.87531959  1
  Zn  Zn104  1  0.24400827  0.50233791  0.25380971  1
  Zn  Zn105  1  0.62157299  0.87813924  0.25627360  1
  Zn  Zn106  1  -0.00385217  0.12655295  0.61959046  1
  Zn  Zn107  1  0.18907319  0.18753031  0.18820481  1
  Zn  Zn108  1  0.18450979  0.18187915  0.68858924  1
  Zn  Zn109  1  0.18893942  0.69101943  0.19024619  1
  Zn  Zn110  1  0.18972593  0.68682816  0.68972479  1
  Zn  Zn111  1  0.68683541  0.19089639  0.18706840  1
  Zn  Zn112  1  0.68581922  0.19269493  0.68575649  1
  Zn  Zn113  1  0.69068107  0.68009585  0.18997165  1
  Zn  Zn114  1  0.68856105  0.68944010  0.68910982  1
  Zn  Zn115  1  0.31050602  0.31010672  0.31367372  1
  Zn  Zn116  1  0.31021657  0.31447678  0.81206944  1
  Zn  Zn117  1  0.31359025  0.81530239  0.31483618  1
  Zn  Zn118  1  0.31005015  0.81458789  0.81100840  1
  Zn  Zn119  1  0.80825575  0.31480784  0.30907064  1
  Zn  Zn120  1  0.80882434  0.31494442  0.81340407  1
  Zn  Zn121  1  0.81110630  0.80751182  0.31422072  1
  Zn  Zn122  1  0.81070180  0.81398410  0.81032577  1
  Zn  Zn123  1  0.18806341  0.43010861  0.44212692  1
  Zn  Zn124  1  0.18549541  0.43745525  0.94080664  1
  Zn  Zn125  1  0.19141946  0.94118795  0.43635500  1
  Zn  Zn126  1  0.18961237  0.93422904  0.93924854  1
  Zn  Zn127  1  0.68808938  0.43967961  0.43123591  1
  Zn  Zn128  1  0.68776491  0.43673313  0.93184123  1
  Zn  Zn129  1  0.69954819  0.93575157  0.43411307  1
  Zn  Zn130  1  0.68674554  0.93492389  0.93710967  1
  Zn  Zn131  1  0.31203844  0.06189041  0.06341012  1
  Zn  Zn132  1  0.31403152  0.06121222  0.55854331  1
  Zn  Zn133  1  0.31612886  0.56082504  0.06477906  1
  Zn  Zn134  1  0.31549815  0.55933122  0.56234976  1
  Zn  Zn135  1  0.81109040  0.06324740  0.06382319  1
  Zn  Zn136  1  0.80816305  0.06764944  0.56584475  1
  Zn  Zn137  1  0.80531568  0.56118324  0.06117290  1
  Zn  Zn138  1  0.81245650  0.56313652  0.56035012  1
  Zn  Zn139  1  0.43390391  0.43862578  0.18777291  1
  Zn  Zn140  1  0.43403223  0.43629171  0.68820126  1
  Zn  Zn141  1  0.43653124  0.93666443  0.18716217  1
  Zn  Zn142  1  0.43310115  0.93668133  0.68727921  1
  Zn  Zn143  1  0.93896560  0.56156596  0.18805923  1
  Zn  Zn144  1  0.93990432  0.44461864  0.68743691  1
  Zn  Zn145  1  0.93687159  0.93756622  0.18986800  1
  Zn  Zn146  1  0.93864190  0.94095034  0.68723533  1
  Zn  Zn147  1  0.06001548  0.06358439  0.31620418  1
  Zn  Zn148  1  0.06112430  0.06347226  0.81020079  1
  Zn  Zn149  1  0.06663905  0.55728951  0.31643742  1
  Zn  Zn150  1  0.05969993  0.56153426  0.81175717  1
  Zn  Zn151  1  0.56608904  0.06070562  0.31440501  1
  Zn  Zn152  1  0.55969893  0.06302039  0.81253025  1
  Zn  Zn153  1  0.55898628  0.56912400  0.31775526  1
  Zn  Zn154  1  0.56155855  0.56231762  0.81221319  1
  Zn  Zn155  1  0.44163244  0.18314171  0.43406151  1
  Zn  Zn156  1  0.43582788  0.18494262  0.93565772  1
  Zn  Zn157  1  0.43894534  0.68479507  0.44016796  1
  Zn  Zn158  1  0.43566579  0.68463613  0.94083440  1
  Zn  Zn159  1  0.94064317  0.19197407  0.44079517  1
  Zn  Zn160  1  0.93670457  0.18648362  0.93719411  1
  Zn  Zn161  1  0.94518307  0.68417957  0.43477310  1
  Zn  Zn162  1  0.93216080  0.68954111  0.93200449  1
  Zn  Zn163  1  0.06058927  0.31754732  0.06237228  1
  Zn  Zn164  1  0.05847561  0.31350409  0.56391865  1
  Zn  Zn165  1  0.06298314  0.81001446  0.06229271  1
  Zn  Zn166  1  0.06397898  0.81298426  0.56062363  1
  Zn  Zn167  1  0.56228381  0.31474886  0.06204827  1
  Zn  Zn168  1  0.56143694  0.30904480  0.55913324  1
  Zn  Zn169  1  0.58583126  0.77464519  0.08283356  1
  Zn  Zn170  1  0.57189119  0.78759788  0.57033825  1
  O  O171  1  0.11630547  0.12179887  0.12197539  1
  O  O172  1  0.12023914  0.11755228  0.61328670  1
  O  O173  1  0.13390671  0.61448732  0.12403571  1
  O  O174  1  0.12569290  0.61626703  0.61702785  1
  O  O175  1  0.61486937  0.12438786  0.11982905  1
  O  O176  1  0.61908521  0.12719715  0.61433542  1
  O  O177  1  0.61554966  0.66540000  0.11153694  1
  O  O178  1  0.61443115  0.63824009  0.61693865  1
  O  O179  1  0.38109397  0.37941339  0.38045950  1
  O  O180  1  0.38519160  0.38343169  0.87367257  1
  O  O181  1  0.37589559  0.88762061  0.37239234  1
  O  O182  1  0.37035229  0.88123957  0.88759456  1
  O  O183  1  0.88589861  0.36340662  0.37598042  1
  O  O184  1  0.87973674  0.37936764  0.88286879  1
  O  O185  1  0.88980873  0.87069453  0.37245887  1
  O  O186  1  0.88307727  0.87942876  0.87989850  1
  O  O187  1  0.26212825  0.00576444  0.37323475  1
  O  O188  1  0.25941678  0.00025498  0.87570121  1
  O  O189  1  0.26083959  0.49108221  0.37315636  1
  O  O190  1  0.25947765  0.49986364  0.87656639  1
  O  O191  1  0.74978836  0.01315752  0.36638861  1
  O  O192  1  0.75666226  -0.00162803  0.86499135  1
  O  O193  1  0.74953391  0.51294439  0.36901700  1
  O  O194  1  0.75394898  0.51047826  0.87006427  1
  O  O195  1  0.23886961  0.49187826  0.12034981  1
  O  O196  1  0.23911270  0.49346093  0.62526578  1
  O  O197  1  0.24250146  0.99353960  0.12786424  1
  O  O198  1  0.24243400  0.99109095  0.61982938  1
  O  O199  1  0.74398325  0.50798547  0.14266917  1
  O  O200  1  0.75079485  0.50496289  0.63739975  1
  O  O201  1  0.74822054  0.99127828  0.13159908  1
  O  O202  1  0.75258623  0.99259849  0.63688463  1
  O  O203  1  0.00091951  0.37952344  0.27136472  1
  O  O204  1  0.00487021  0.37127242  0.75562924  1
  O  O205  1  0.00762590  0.86957708  0.26048528  1
  O  O206  1  -0.00041220  0.87480803  0.76316652  1
  O  O207  1  0.50692848  0.37239737  0.25657084  1
  O  O208  1  0.50500967  0.37046169  0.75735315  1
  O  O209  1  0.50254404  0.86028719  0.24495150  1
  O  O210  1  0.51655198  0.87861355  0.74390176  1
  O  O211  1  0.49707330  0.12926442  0.24189950  1
  O  O212  1  0.50287378  0.13383189  0.74058892  1
  O  O213  1  0.48956238  0.63493081  0.24834136  1
  O  O214  1  0.48827802  0.62172170  0.74397494  1
  O  O215  1  0.98938775  0.11877882  0.24026039  1
  O  O216  1  0.98841652  0.13181982  0.74828028  1
  O  O217  1  1.00222090  0.63605543  0.25728283  1
  O  O218  1  0.98701886  0.62401948  0.74769459  1
  O  O219  1  0.36306839  0.25091802  0.00033575  1
  O  O220  1  0.37944195  0.26090620  0.49239130  1
  O  O221  1  0.37069751  0.75570783  0.00778286  1
  O  O222  1  0.36393164  0.74031261  0.50996934  1
  O  O223  1  0.86796363  0.25468587  0.00403753  1
  O  O224  1  0.86660539  0.24292605  0.51296907  1
  O  O225  1  0.86485549  0.75720305  -0.00169876  1
  O  O226  1  0.86290359  0.74175987  0.49849493  1
  O  O227  1  0.11932947  0.23643369  0.49846944  1
  O  O228  1  0.13044587  0.24613266  0.99493352  1
  O  O229  1  0.13252084  0.74187116  0.49359215  1
  O  O230  1  0.13578799  0.75666313  0.99188940  1
  O  O231  1  0.63502625  0.24355958  0.49482522  1
  O  O232  1  0.63150516  0.24711068  0.99596324  1
  O  O233  1  0.63871755  0.73797504  0.49294803  1
  O  O234  1  0.64039412  0.76291654  0.97967669  1
  O  O235  1  0.49805797  0.24030041  0.12788094  1
  O  O236  1  0.50348259  0.24196312  0.63468672  1
  O  O237  1  0.48298982  0.75215789  0.13478320  1
  O  O238  1  0.48618627  0.73740522  0.62267322  1
  O  O239  1  0.99004866  0.23937301  0.11789027  1
  O  O240  1  0.98829400  0.24899115  0.63109472  1
  O  O241  1  1.00207397  0.75419409  0.14258247  1
  O  O242  1  0.99903440  0.74693776  0.62583404  1
  O  O243  1  0.01280002  0.26294668  0.38462495  1
  O  O244  1  0.00321110  0.25570971  0.87008391  1
  O  O245  1  0.00988172  0.75982303  0.36872355  1
  O  O246  1  0.00778846  0.75889663  0.87668363  1
  O  O247  1  0.50659198  0.25955062  0.36860123  1
  O  O248  1  0.50409977  0.25745587  0.86967337  1
  O  O249  1  0.50883624  0.74502226  0.36991889  1
  O  O250  1  0.51510362  0.74514941  0.88166543  1
  O  O251  1  0.23226597  0.12152857  0.50049142  1
  O  O252  1  0.24278216  0.13503703  1.00219039  1
  O  O253  1  0.24074350  0.63411534  0.50562915  1
  O  O254  1  0.25954625  0.63982974  0.99809115  1
  O  O255  1  0.74306619  0.12995514  0.49257736  1
  O  O256  1  0.74396533  0.13303751  0.99759578  1
  O  O257  1  0.74497933  0.62823578  0.49037879  1
  O  O258  1  0.75329920  0.63408556  0.98539571  1
  O  O259  1  0.24892673  0.36470351  0.00810911  1
  O  O260  1  0.25969501  0.37467585  0.51081003  1
  O  O261  1  0.25957489  0.86559054  0.00677922  1
  O  O262  1  0.24302344  0.86268885  0.51027343  1
  O  O263  1  0.75905896  0.36542858  -0.00809826  1
  O  O264  1  0.74659659  0.36235301  0.49030943  1
  O  O265  1  0.75591833  0.86932997  0.00718901  1
  O  O266  1  0.74524445  0.86503635  0.51121677  1
  O  O267  1  0.12657075  0.49942730  0.23556006  1
  O  O268  1  0.12373161  0.49381088  0.74014410  1
  O  O269  1  0.12401731  0.99146290  0.24673882  1
  O  O270  1  0.12289981  1.00041344  0.73353317  1
  O  O271  1  0.62015329  0.49169163  0.25293220  1
  O  O272  1  0.63268800  0.49203781  0.75661685  1
  O  O273  1  0.63916239  0.99779543  0.24750426  1
  O  O274  1  0.63430894  0.98792692  0.76093596  1
  O  O275  1  0.37604143  0.00838080  0.25544817  1
  O  O276  1  0.37628370  -0.00045805  0.76282905  1
  O  O277  1  0.37235442  0.50752974  0.25831685  1
  O  O278  1  0.37510269  0.50708551  0.76238583  1
  O  O279  1  0.86403692  0.01447088  0.24297109  1
  O  O280  1  0.86705912  0.00819992  0.75408755  1
  O  O281  1  0.86253594  0.49625003  0.24720466  1
  O  O282  1  0.86635211  0.50686801  0.75489089  1
  O  O283  1  0.12513700  0.36118272  0.37397832  1
  O  O284  1  0.11942972  0.37008886  0.86918649  1
  O  O285  1  0.12013361  0.86722194  0.36773380  1
  O  O286  1  0.11597795  0.86883196  0.87470088  1
  O  O287  1  0.61392234  0.37224531  0.36836564  1
  O  O288  1  0.61285651  0.36971738  0.86858792  1
  O  O289  1  0.63781158  0.85836250  0.37449633  1
  O  O290  1  0.62671412  0.86559066  0.86475096  1
  O  O291  1  0.38607268  0.12403095  0.13214908  1
  O  O292  1  0.39318619  0.11513363  0.62394066  1
  O  O293  1  0.37549580  0.63396320  0.13512949  1
  O  O294  1  0.38049139  0.62982039  0.63267787  1
  O  O295  1  0.88127763  0.13292433  0.13013836  1
  O  O296  1  0.87432483  0.13089313  0.63912929  1
  O  O297  1  0.87572018  0.62354459  0.12075257  1
  O  O298  1  0.87616356  0.62706375  0.63475330  1
  O  O299  1  0.24853999  0.25725141  0.11617114  1
  O  O300  1  0.24644095  0.25881034  0.62945600  1
  O  O301  1  0.25761061  0.75527545  0.11932663  1
  O  O302  1  0.25655697  0.75606441  0.61803600  1
  O  O303  1  0.75864494  0.24436205  0.11143844  1
  O  O304  1  0.75743498  0.24779818  0.61528753  1
  O  O305  1  0.75601202  0.75703424  0.11663759  1
  O  O306  1  0.75098520  0.75784628  0.61663647  1
  O  O307  1  0.23383908  0.24461978  0.37388166  1
  O  O308  1  0.24274750  0.25044556  0.88384287  1
  O  O309  1  0.24016481  0.75732299  0.38476202  1
  O  O310  1  0.24187302  0.75099135  0.88314990  1
  O  O311  1  0.74666823  0.24110083  0.38095260  1
  O  O312  1  0.74353125  0.24746883  0.88504702  1
  O  O313  1  0.74488197  0.73755922  0.37959245  1
  O  O314  1  0.74770847  0.74332950  0.87999164  1
  O  O315  1  0.00350849  0.11979513  0.00884280  1
  O  O316  1  0.00957131  0.11537660  0.49869270  1
  O  O317  1  -0.00698706  0.61153871  -0.00927581  1
  O  O318  1  0.01356552  0.61297525  0.49795582  1
  O  O319  1  0.50347416  0.11719708  0.00755209  1
  O  O320  1  0.51542868  0.13260684  0.50717101  1
  O  O321  1  0.49787070  0.60918440  0.00011035  1
  O  O322  1  0.50895287  0.62224526  0.50900918  1
  O  O323  1  0.49356218  0.37496680  0.49144658  1
  O  O324  1  0.49783149  0.38168515  0.99028662  1
  O  O325  1  0.52363560  0.88514251  0.51916360  1
  O  O326  1  0.48825628  0.88463333  1.00971591  1
  O  O327  1  1.00554820  0.38730781  0.49326141  1
  O  O328  1  0.99051979  0.38294977  0.99423300  1
  O  O329  1  1.00435596  0.88025655  0.48581667  1
  O  O330  1  0.99565496  0.87961778  0.99301746  1
  O  O331  1  0.49081499  0.48842471  0.37554868  1
  O  O332  1  0.49393619  0.49381134  0.88299084  1
  O  O333  1  0.49011699  1.00145979  0.37121111  1
  O  O334  1  0.49087690  1.00387701  0.88791699  1
  O  O335  1  1.00662961  0.48772369  0.38720833  1
  O  O336  1  0.99390013  0.49398628  0.88148162  1
  O  O337  1  1.00268694  0.98588728  0.38032635  1
  O  O338  1  0.99606829  0.99257334  0.88052721  1
  O  O339  1  0.00401307  0.00862791  0.12081461  1
  O  O340  1  0.00782488  -0.00129435  0.61504645  1
  O  O341  1  0.01481367  0.50458179  0.11858735  1
  O  O342  1  0.01394539  0.49822662  0.61277143  1
  O  O343  1  0.50204652  0.00748857  0.11657570  1
  O  O344  1  0.51021879  0.00643256  0.62778449  1
  O  O345  1  0.49490519  0.49842437  0.10976428  1
  O  O346  1  0.49507177  0.51307779  0.62520972  1
  O  O347  1  0.24655914  0.37513409  0.23825671  1
  O  O348  1  0.24406180  0.37736373  0.74094224  1
  O  O349  1  0.23725747  0.87267829  0.24461395  1
  O  O350  1  0.24761169  0.87914987  0.73569135  1
  O  O351  1  0.73490753  0.39062862  0.25959484  1
  O  O352  1  0.73785620  0.38542875  0.75819190  1
  O  O353  1  0.75632154  0.88306186  0.24419986  1
  O  O354  1  0.74177089  0.88110020  0.74177276  1
  O  O355  1  0.26427204  0.12413601  0.24828605  1
  O  O356  1  0.25418819  0.11907679  0.75162407  1
  O  O357  1  0.26360965  0.62573936  0.24997198  1
  O  O358  1  0.26293162  0.61967720  0.75213841  1
  O  O359  1  0.75510425  0.12039785  0.25615744  1
  O  O360  1  0.75379015  0.11744528  0.75091588  1
  O  O361  1  0.74649102  0.61433150  0.26364441  1
  O  O362  1  0.75484218  0.61875828  0.75593764  1
  O  O363  1  0.37781475  0.11849047  0.36487890  1
  O  O364  1  0.37215834  0.11239232  0.87378660  1
  O  O365  1  0.38143126  0.61294051  0.36881627  1
  O  O366  1  0.37484757  0.61853503  0.86772953  1
  O  O367  1  0.86690573  0.13650919  0.36424434  1
  O  O368  1  0.87335957  0.12062847  0.86360881  1
  O  O369  1  0.86259919  0.62687737  0.37665190  1
  O  O370  1  0.86462397  0.62018364  0.86482033  1
  O  O371  1  0.13176611  0.38043719  0.12663689  1
  O  O372  1  0.13289631  0.37983809  0.62783561  1
  O  O373  1  0.12720640  0.87962189  0.13394038  1
  O  O374  1  0.13304848  0.88265602  0.62409349  1
  O  O375  1  0.62020570  0.37413000  0.14141542  1
  O  O376  1  0.61671516  0.37319211  0.63737366  1
  O  O377  1  0.64151925  0.86923763  0.13046156  1
  O  O378  1  0.63263579  0.87967253  0.63401863  1
  O  O379  1  0.12068057  0.24728369  0.26196175  1
  O  O380  1  0.11655495  0.25416910  0.75451791  1
  O  O381  1  0.11749072  0.75645483  0.25717965  1
  O  O382  1  0.12448610  0.75325050  0.76109183  1
  O  O383  1  0.62266744  0.26115659  0.25540232  1
  O  O384  1  0.61674600  0.25871896  0.75544913  1
  O  O385  1  0.61613545  0.74791201  0.26147597  1
  O  O386  1  0.63080176  0.76433570  0.76034401  1
  O  O387  1  0.38298464  0.24008064  0.24994203  1
  O  O388  1  0.39011939  0.24887981  0.75791242  1
  O  O389  1  0.37888569  0.74452354  0.24794425  1
  O  O390  1  0.36812775  0.74113694  0.74039183  1
  O  O391  1  0.86316399  0.24054588  0.23629695  1
  O  O392  1  0.87491854  0.24556298  0.74471998  1
  O  O393  1  0.89227983  0.75230192  0.25157915  1
  O  O394  1  0.87545356  0.73869398  0.75017057  1
  O  O395  1  0.37781707  0.49179731  0.49117911  1
  O  O396  1  0.38212169  0.49810928  0.98894712  1
  O  O397  1  0.37853107  1.00365630  0.48574017  1
  O  O398  1  0.38020243  0.99270502  0.99512805  1
  O  O399  1  0.89358178  0.50460055  0.50479168  1
  O  O400  1  0.87820907  0.49173252  0.99488654  1
  O  O401  1  0.88746091  1.00807057  0.50594005  1
  O  O402  1  0.87991336  0.99650883  0.99491463  1
  O  O403  1  0.11987423  0.00443706  0.00682477  1
  O  O404  1  0.11674573  0.00693969  0.50598749  1
  O  O405  1  0.11508045  0.49627204  0.01128368  1
  O  O406  1  0.12387153  0.50636556  0.50525705  1
  O  O407  1  0.61674251  0.00328670  0.00013566  1
  O  O408  1  0.63253467  0.00676706  0.50352351  1
  O  O409  1  0.61151518  0.49587452  -0.00642979  1
  O  O410  1  0.62419183  0.51203464  0.49601255  1
  O  O411  1  0.36246273  0.37305757  0.12332449  1
  O  O412  1  0.36614374  0.37898897  0.61613030  1
  O  O413  1  0.36807276  0.86696131  0.11885049  1
  O  O414  1  0.36652714  0.86421628  0.62832137  1
  O  O415  1  0.87843665  0.36263661  0.10991647  1
  O  O416  1  0.87612634  0.36712225  0.63107055  1
  O  O417  1  0.86745949  0.87326341  0.11977017  1
  O  O418  1  0.86380127  0.87187722  0.63248313  1
  O  O419  1  0.12094693  0.13483669  0.38503749  1
  O  O420  1  0.12382425  0.13098791  0.88210451  1
  O  O421  1  0.12312946  0.63606505  0.38318920  1
  O  O422  1  0.12527821  0.63675492  0.87132817  1
  O  O423  1  0.63402338  0.13086251  0.38304578  1
  O  O424  1  0.62362632  0.13226487  0.88207653  1
  O  O425  1  0.63053471  0.63337326  0.38504079  1
  O  O426  1  0.63423656  0.64069695  0.86296633  1
