# generated using pymatgen
data_V85Zn86O256
_symmetry_space_group_name_H-M   'P 1'
_cell_length_a   16.94500466
_cell_length_b   16.95814330
_cell_length_c   16.95170943
_cell_angle_alpha   90.01489768
_cell_angle_beta   90.06702291
_cell_angle_gamma   89.90064876
_symmetry_Int_Tables_number   1
_chemical_formula_structural   V85Zn86O256
_chemical_formula_sum   'V85 Zn86 O256'
_cell_volume   4871.16149712
_cell_formula_units_Z   1
loop_
 _symmetry_equiv_pos_site_id
 _symmetry_equiv_pos_as_xyz
  1  'x, y, z'
loop_
 _atom_site_type_symbol
 _atom_site_label
 _atom_site_symmetry_multiplicity
 _atom_site_fract_x
 _atom_site_fract_y
 _atom_site_fract_z
 _atom_site_occupancy
  V  V0  1  0.49322732  0.74326459  0.74953570  1
  V  V1  1  0.11848648  0.37131424  0.74922747  1
  V  V2  1  0.62421772  0.74985985  0.37639471  1
  V  V3  1  0.00080560  0.37370300  0.37718134  1
  V  V4  1  0.00091762  0.12427442  0.12509222  1
  V  V5  1  0.61848940  0.61801573  0.50568606  1
  V  V6  1  0.37341302  0.49458811  0.88238596  1
  V  V7  1  0.12924581  0.12868447  0.50114015  1
  V  V8  1  0.87422714  0.87453599  0.50145861  1
  V  V9  1  0.61706005  0.00009733  0.62251600  1
  V  V10  1  0.74839263  0.61726543  0.37101077  1
  V  V11  1  0.12899101  0.12507894  0.00050161  1
  V  V12  1  0.74586635  0.13669156  0.88081242  1
  V  V13  1  0.50284336  0.51624259  0.00515719  1
  V  V14  1  0.74890707  0.00056290  0.75158308  1
  V  V15  1  0.62609576  0.51349308  0.12916211  1
  V  V16  1  0.37457481  0.50112301  0.37962787  1
  V  V17  1  0.74196226  0.74148369  -0.00949210  1
  V  V18  1  0.25008682  -0.00079523  0.74534004  1
  V  V19  1  0.37134131  0.35752556  0.50035171  1
  V  V20  1  0.87506895  -0.00040243  0.37478643  1
  V  V21  1  0.25184047  0.25936681  0.00056337  1
  V  V22  1  0.49749555  0.88774993  0.37775891  1
  V  V23  1  0.00049619  -0.00717982  -0.00375414  1
  V  V24  1  0.87292444  0.51510366  0.87012922  1
  V  V25  1  -0.00120835  0.75302281  0.75494910  1
  V  V26  1  0.87262269  0.75094091  0.12299793  1
  V  V27  1  0.37310377  0.87411485  -0.00026287  1
  V  V28  1  0.86854095  0.37380410  -0.00337054  1
  V  V29  1  0.87773025  0.12946793  0.75209018  1
  V  V30  1  0.37278889  0.12142887  0.24970097  1
  V  V31  1  0.00137699  0.62437444  0.12400146  1
  V  V32  1  0.50821325  0.24737734  0.24982691  1
  V  V33  1  0.12675950  0.50042450  0.12490653  1
  V  V34  1  0.00690028  -0.00078199  0.50520691  1
  V  V35  1  0.12750282  0.62498837  0.49400920  1
  V  V36  1  0.62076591  0.00185609  0.11985568  1
  V  V37  1  0.49334195  0.25183672  0.74728517  1
  V  V38  1  0.49993671  0.74579638  0.24554573  1
  V  V39  1  0.87580797  0.12463595  0.24967153  1
  V  V40  1  0.13308435  0.62868278  -0.00092377  1
  V  V41  1  0.25479165  0.50208462  0.74762998  1
  V  V42  1  0.37372592  0.74161810  0.62607940  1
  V  V43  1  0.50541556  0.37162980  0.37392668  1
  V  V44  1  0.11871006  0.25087280  0.87244659  1
  V  V45  1  0.62272454  0.87381845  0.75146005  1
  V  V46  1  0.12686871  0.37464661  0.24924610  1
  V  V47  1  0.00163961  0.12281844  0.62758271  1
  V  V48  1  0.49484052  0.12969154  0.62518873  1
  V  V49  1  0.87766095  0.25003913  0.62872730  1
  V  V50  1  0.00167393  0.87050550  0.37557668  1
  V  V51  1  0.37449844  0.62487156  0.25266046  1
  V  V52  1  -0.00233930  0.62450090  0.62970877  1
  V  V53  1  0.87504256  0.37525822  0.50064174  1
  V  V54  1  0.25199832  0.74451756  0.49342552  1
  V  V55  1  0.38219354  0.25400984  0.12004437  1
  V  V56  1  0.12616653  0.87645030  0.25037674  1
  V  V57  1  0.50173726  0.87646299  0.87624230  1
  V  V58  1  0.62284994  0.13783231  -0.00004932  1
  V  V59  1  -0.00154104  0.50009577  0.50053967  1
  V  V60  1  0.87119000  0.61850634  0.25035929  1
  V  V61  1  0.87349483  0.74649380  0.63024547  1
  V  V62  1  0.87751613  -0.00679871  0.87556437  1
  V  V63  1  0.62174546  0.37136607  0.75354759  1
  V  V64  1  0.62550976  0.87682206  0.24936281  1
  V  V65  1  0.74226242  0.37870013  0.62697491  1
  V  V66  1  0.37466426  0.74635310  0.12228801  1
  V  V67  1  0.74776404  0.12672000  0.37506072  1
  V  V68  1  0.00193097  0.24854083  0.25090955  1
  V  V69  1  0.12639421  0.75509981  0.87541854  1
  V  V70  1  0.25388843  0.62752165  0.86983048  1
  V  V71  1  0.74890851  0.87552683  0.62480473  1
  V  V72  1  0.25472152  0.35897868  0.62206966  1
  V  V73  1  0.37802514  0.88587973  0.49725284  1
  V  V74  1  0.74907143  0.37929834  0.13031795  1
  V  V75  1  0.50196175  0.36852690  0.88671294  1
  V  V76  1  0.74547895  0.51076367  0.75148119  1
  V  V77  1  0.13670073  0.24784021  0.37805608  1
  V  V78  1  0.12222858  0.87866643  0.74412553  1
  V  V79  1  0.62210456  0.12319109  0.49763268  1
  V  V80  1  0.25007227  0.50385020  0.25534358  1
  V  V81  1  0.74529856  0.24929887  0.49616547  1
  V  V82  1  0.25039221  0.87341500  0.12232053  1
  V  V83  1  0.87010140  0.25076575  0.11904770  1
  V  V84  1  0.75035531  -0.00103710  0.24803089  1
  Zn  Zn85  1  0.12847476  0.00023427  0.12420851  1
  Zn  Zn86  1  0.37350108  0.12776071  0.75016589  1
  Zn  Zn87  1  0.63273922  0.37906479  0.25484676  1
  Zn  Zn88  1  0.62252791  0.73224804  0.87386818  1
  Zn  Zn89  1  0.24599886  0.87617797  0.61987625  1
  Zn  Zn90  1  0.25415924  0.12501849  0.87530844  1
  Zn  Zn91  1  0.50137446  0.49018850  0.51297704  1
  Zn  Zn92  1  0.37378817  0.00318376  0.87782051  1
  Zn  Zn93  1  0.74940008  0.74815863  0.50113163  1
  Zn  Zn94  1  0.87691065  0.86971530  -0.00538196  1
  Zn  Zn95  1  -0.00637556  0.37219892  0.87039268  1
  Zn  Zn96  1  0.00001573  0.74949446  0.25059845  1
  Zn  Zn97  1  0.26154158  0.11745724  0.38658412  1
  Zn  Zn98  1  0.49954976  0.00542087  0.00161830  1
  Zn  Zn99  1  0.13184370  0.74526629  0.37108323  1
  Zn  Zn100  1  0.25519977  0.37998661  0.12158253  1
  Zn  Zn101  1  0.12714057  0.49874677  0.62495578  1
  Zn  Zn102  1  0.87081165  0.49523947  0.37030719  1
  Zn  Zn103  1  0.25754242  -0.00284769  0.25736735  1
  Zn  Zn104  1  0.74993116  0.87500430  0.11927462  1
  Zn  Zn105  1  0.49734540  0.61530897  0.63394127  1
  Zn  Zn106  1  0.00063692  0.49829373  -0.00709749  1
  Zn  Zn107  1  0.19214585  0.18949802  0.18587353  1
  Zn  Zn108  1  0.18513408  0.18498297  0.68896610  1
  Zn  Zn109  1  0.19056737  0.68947933  0.18895172  1
  Zn  Zn110  1  0.18603925  0.68892743  0.68405415  1
  Zn  Zn111  1  0.68939076  0.18587610  0.18248035  1
  Zn  Zn112  1  0.68493919  0.18978593  0.68927463  1
  Zn  Zn113  1  0.69000089  0.68955496  0.18702720  1
  Zn  Zn114  1  0.68252561  0.69113300  0.68823745  1
  Zn  Zn115  1  0.31743028  0.31332795  0.30850959  1
  Zn  Zn116  1  0.31153545  0.31415373  0.81408648  1
  Zn  Zn117  1  0.31386938  0.81484643  0.31368799  1
  Zn  Zn118  1  0.31045835  0.81438339  0.81205992  1
  Zn  Zn119  1  0.81381738  0.31114075  0.31098384  1
  Zn  Zn120  1  0.80870645  0.31709729  0.81378405  1
  Zn  Zn121  1  0.81215916  0.80939742  0.31092113  1
  Zn  Zn122  1  0.81041174  0.81042621  0.81182279  1
  Zn  Zn123  1  0.18780038  0.43665210  0.43973753  1
  Zn  Zn124  1  0.18367912  0.43918479  0.93499251  1
  Zn  Zn125  1  0.19203583  0.93787660  0.43570255  1
  Zn  Zn126  1  0.18989652  0.93789411  0.93387419  1
  Zn  Zn127  1  0.68751624  0.43775440  0.43926429  1
  Zn  Zn128  1  0.68651841  0.55863791  0.93887285  1
  Zn  Zn129  1  0.68664052  0.93842850  0.43762652  1
  Zn  Zn130  1  0.69120260  0.93511615  0.93861875  1
  Zn  Zn131  1  0.31648255  0.06293450  0.06984406  1
  Zn  Zn132  1  0.31049823  0.06231075  0.56829317  1
  Zn  Zn133  1  0.31460358  0.56273684  0.06297318  1
  Zn  Zn134  1  0.31196288  0.55809648  0.56230848  1
  Zn  Zn135  1  0.81090024  0.06187756  0.06087056  1
  Zn  Zn136  1  0.81214097  0.06058633  0.56288880  1
  Zn  Zn137  1  0.81369559  0.56004741  0.06303267  1
  Zn  Zn138  1  0.80918885  0.56313112  0.56135229  1
  Zn  Zn139  1  0.44003936  0.43592241  0.18667312  1
  Zn  Zn140  1  0.43253591  0.43732868  0.68819710  1
  Zn  Zn141  1  0.44163751  0.93499223  0.18680932  1
  Zn  Zn142  1  0.43401250  0.93298612  0.68588954  1
  Zn  Zn143  1  0.94048677  0.43603554  0.18664856  1
  Zn  Zn144  1  0.93268432  0.44070017  0.68737527  1
  Zn  Zn145  1  0.93997819  0.93753393  0.18527661  1
  Zn  Zn146  1  0.93712215  0.93680682  0.69006015  1
  Zn  Zn147  1  0.06601558  0.06053024  0.31595598  1
  Zn  Zn148  1  0.06425634  0.06269786  0.81438585  1
  Zn  Zn149  1  0.05841633  0.56083171  0.31231260  1
  Zn  Zn150  1  0.06436766  0.56074826  0.81123201  1
  Zn  Zn151  1  0.56344894  0.06626639  0.30861145  1
  Zn  Zn152  1  0.56241026  0.06381386  0.81321111  1
  Zn  Zn153  1  0.55909007  0.56057416  0.31370003  1
  Zn  Zn154  1  0.55916855  0.55498654  0.80931755  1
  Zn  Zn155  1  0.44343631  0.18365654  0.43229366  1
  Zn  Zn156  1  0.43708101  0.18663530  0.93523392  1
  Zn  Zn157  1  0.43673483  0.69067677  0.43591005  1
  Zn  Zn158  1  0.43476982  0.68926755  0.93437346  1
  Zn  Zn159  1  0.93835877  0.18845557  0.43879508  1
  Zn  Zn160  1  0.93862669  0.18412742  0.93830978  1
  Zn  Zn161  1  0.93538120  0.68554635  0.44075272  1
  Zn  Zn162  1  0.94059197  0.68771200  0.93987550  1
  Zn  Zn163  1  0.05867154  0.31482569  0.06060077  1
  Zn  Zn164  1  0.06444539  0.31068582  0.56428180  1
  Zn  Zn165  1  0.06379976  0.81051488  0.06199751  1
  Zn  Zn166  1  0.06342602  0.80875648  0.56347502  1
  Zn  Zn167  1  0.56777762  0.31830098  0.06506479  1
  Zn  Zn168  1  0.56019436  0.31061760  0.56282674  1
  Zn  Zn169  1  0.56312788  0.81330831  0.06223301  1
  Zn  Zn170  1  0.55813337  0.81010228  0.56322514  1
  O  O171  1  0.12073256  0.12512822  0.11635196  1
  O  O172  1  0.10902058  0.13525700  0.61751651  1
  O  O173  1  0.12081787  0.62373749  0.11905133  1
  O  O174  1  0.11390535  0.62487589  0.61450374  1
  O  O175  1  0.63517280  0.11629678  0.10794725  1
  O  O176  1  0.61969993  0.11784589  0.61938925  1
  O  O177  1  0.62678616  0.61294424  0.12991895  1
  O  O178  1  0.62285537  0.63333957  0.60716920  1
  O  O179  1  0.38159506  0.38043216  0.38123625  1
  O  O180  1  0.38684019  0.38485682  0.87251310  1
  O  O181  1  0.38355091  0.86979663  0.38755866  1
  O  O182  1  0.38111921  0.87246854  0.88596617  1
  O  O183  1  0.88139101  0.37399551  0.38223515  1
  O  O184  1  0.87510745  0.37724026  0.88244514  1
  O  O185  1  0.88187783  0.87879998  0.37942073  1
  O  O186  1  0.87290181  0.88975423  0.87179196  1
  O  O187  1  0.24791791  0.00592113  0.36941166  1
  O  O188  1  0.25293947  0.00219580  0.86346105  1
  O  O189  1  0.26080488  0.49277062  0.36559735  1
  O  O190  1  0.25544758  0.50453591  0.87001775  1
  O  O191  1  0.75581834  0.00535785  0.36912795  1
  O  O192  1  0.75934178  0.00759914  0.86976828  1
  O  O193  1  0.75078180  0.51228852  0.37685309  1
  O  O194  1  0.76034632  0.50362675  0.86326719  1
  O  O195  1  0.24561499  0.49982028  0.13495430  1
  O  O196  1  0.24920706  0.49378537  0.63524420  1
  O  O197  1  0.24973556  0.98639428  0.13199768  1
  O  O198  1  0.24835241  0.99564097  0.64017563  1
  O  O199  1  0.73513215  0.49500415  0.11950777  1
  O  O200  1  0.76157341  0.48718612  0.63817949  1
  O  O201  1  0.74362570  0.99731934  0.13079932  1
  O  O202  1  0.74220712  0.99561778  0.63180411  1
  O  O203  1  0.00703924  0.36945574  0.25641226  1
  O  O204  1  0.01474885  0.37908359  0.74466467  1
  O  O205  1  0.00653775  0.87325904  0.25851377  1
  O  O206  1  0.00738146  0.86419999  0.74655526  1
  O  O207  1  0.49891423  0.36383599  0.25758216  1
  O  O208  1  0.50402932  0.36890390  0.75136745  1
  O  O209  1  0.50428626  0.86589063  0.25887071  1
  O  O210  1  0.50306432  0.86699704  0.75706232  1
  O  O211  1  0.49296211  0.14077414  0.25391356  1
  O  O212  1  0.50340365  0.13505575  0.74330457  1
  O  O213  1  0.49010625  0.63678032  0.25445302  1
  O  O214  1  0.50079588  0.63941881  0.75238386  1
  O  O215  1  0.99583543  0.12731246  0.24558375  1
  O  O216  1  0.98864303  0.11808044  0.74139882  1
  O  O217  1  0.99362705  0.62882305  0.24097537  1
  O  O218  1  1.00924031  0.63544052  0.73753815  1
  O  O219  1  0.36849288  0.24307323  0.01265572  1
  O  O220  1  0.37435495  0.25890503  0.49097961  1
  O  O221  1  0.38251701  0.75996781  0.01235707  1
  O  O222  1  0.36802637  0.75316626  0.50574191  1
  O  O223  1  0.88357714  0.25601763  0.01186309  1
  O  O224  1  0.86549172  0.25360058  0.50885993  1
  O  O225  1  0.86860393  0.74850214  0.00660625  1
  O  O226  1  0.87393626  0.75649836  0.51206344  1
  O  O227  1  0.11795982  0.24036873  0.48963075  1
  O  O228  1  0.13174072  0.24393396  0.99514054  1
  O  O229  1  0.13399267  0.74334638  0.49902862  1
  O  O230  1  0.11843032  0.73927283  0.98883590  1
  O  O231  1  0.63808900  0.23966719  0.50813466  1
  O  O232  1  0.62460413  0.23638925  1.00633597  1
  O  O233  1  0.62362920  0.74318440  0.48876083  1
  O  O234  1  0.63870476  0.75197681  0.99969601  1
  O  O235  1  0.49017434  0.25802311  0.13383373  1
  O  O236  1  0.50335237  0.24037247  0.63391192  1
  O  O237  1  0.49077346  0.75858802  0.13776554  1
  O  O238  1  0.49201872  0.74643475  0.63333654  1
  O  O239  1  0.99341843  0.24418427  0.13166451  1
  O  O240  1  0.98502518  0.23978415  0.61792108  1
  O  O241  1  0.99178155  0.73911002  0.12297550  1
  O  O242  1  0.99226376  0.74398818  0.63246376  1
  O  O243  1  0.00664873  0.25472691  0.36954377  1
  O  O244  1  0.01403144  0.25042889  0.87994474  1
  O  O245  1  -0.00159348  0.76303835  0.37722606  1
  O  O246  1  0.00976952  0.74093730  0.86319798  1
  O  O247  1  0.49763343  0.25923406  0.35990270  1
  O  O248  1  0.49559230  0.26470118  0.86918348  1
  O  O249  1  0.50863467  0.75675225  0.36571825  1
  O  O250  1  0.49828104  0.75978688  0.86768881  1
  O  O251  1  0.23351122  0.11928223  0.50594801  1
  O  O252  1  0.24010631  0.13212253  1.00343614  1
  O  O253  1  0.23848761  0.63119224  0.50617453  1
  O  O254  1  0.23970309  0.62085100  0.99120178  1
  O  O255  1  0.74449679  0.13104048  0.49700083  1
  O  O256  1  0.74427039  0.12323198  0.98683222  1
  O  O257  1  0.73822726  0.62768760  0.49131048  1
  O  O258  1  0.75222865  0.63607553  1.00085849  1
  O  O259  1  0.24456345  0.36380170  0.00018524  1
  O  O260  1  0.25433960  0.37680187  0.51431928  1
  O  O261  1  0.26029973  0.87889775  0.00952578  1
  O  O262  1  0.26085656  0.86625267  0.50005090  1
  O  O263  1  0.76710834  0.37452654  0.01715207  1
  O  O264  1  0.75276194  0.36882946  0.50711888  1
  O  O265  1  0.75657039  0.86052974  0.00087720  1
  O  O266  1  0.75574311  0.87329898  0.50635432  1
  O  O267  1  0.13271763  0.49734544  0.24720038  1
  O  O268  1  0.13623431  0.48877564  0.75029472  1
  O  O269  1  0.12235406  0.98559699  0.24616098  1
  O  O270  1  0.13382786  0.98932653  0.75894454  1
  O  O271  1  0.61060871  0.49609809  0.23315855  1
  O  O272  1  0.63878193  0.48816516  0.75193270  1
  O  O273  1  0.63096399  0.99821461  0.24123782  1
  O  O274  1  0.62987601  0.99470018  0.74236708  1
  O  O275  1  0.38229725  0.01853649  0.23906082  1
  O  O276  1  0.36025800  -0.00510230  0.75140009  1
  O  O277  1  0.37029081  0.50615173  0.25480141  1
  O  O278  1  0.36197762  0.49538550  0.76366485  1
  O  O279  1  0.87140508  0.00517768  0.25415275  1
  O  O280  1  0.87043291  0.00961487  0.75603313  1
  O  O281  1  0.88059158  0.51398013  0.25003696  1
  O  O282  1  0.86148865  0.49230197  0.76221397  1
  O  O283  1  0.12100647  0.36657269  0.37126732  1
  O  O284  1  0.12227285  0.36831697  0.86649343  1
  O  O285  1  0.11638985  0.87269614  0.36854230  1
  O  O286  1  0.13038209  0.86126893  0.86766040  1
  O  O287  1  0.61139379  0.38264054  0.37317007  1
  O  O288  1  0.60436083  0.38111650  0.86177332  1
  O  O289  1  0.61904733  0.86768843  0.37177276  1
  O  O290  1  0.61572448  0.87367528  0.86912298  1
  O  O291  1  0.37452397  0.14102124  0.13558354  1
  O  O292  1  0.39118010  0.11691032  0.62806501  1
  O  O293  1  0.36931704  0.63579242  0.13691957  1
  O  O294  1  0.37607368  0.63797381  0.61773969  1
  O  O295  1  0.87891909  0.13196709  0.12882293  1
  O  O296  1  0.87866504  0.13054766  0.63241399  1
  O  O297  1  0.88212023  0.62937552  0.13009815  1
  O  O298  1  0.88384448  0.63580098  0.61817568  1
  O  O299  1  0.25919090  0.25471232  0.11697469  1
  O  O300  1  0.25051687  0.26044346  0.62985307  1
  O  O301  1  0.26224613  0.76125962  0.13059654  1
  O  O302  1  0.25740994  0.75280028  0.61654210  1
  O  O303  1  0.76435026  0.25756092  0.12993374  1
  O  O304  1  0.75832028  0.25612129  0.61827575  1
  O  O305  1  0.75889855  0.74889435  0.11485139  1
  O  O306  1  0.75823465  0.75602821  0.62640456  1
  O  O307  1  0.23873981  0.24742076  0.36918642  1
  O  O308  1  0.24260678  0.24873996  0.88445186  1
  O  O309  1  0.25171266  0.75096679  0.38826747  1
  O  O310  1  0.23971577  0.73825775  0.86575531  1
  O  O311  1  0.75644498  0.24408715  0.38783424  1
  O  O312  1  0.75226038  0.23496403  0.87174047  1
  O  O313  1  0.73829511  0.74237725  0.37552106  1
  O  O314  1  0.74915483  0.74988200  0.88649786  1
  O  O315  1  0.01041813  0.11833540  0.00557693  1
  O  O316  1  0.00416520  0.11713430  0.50704893  1
  O  O317  1  0.00958751  0.62126351  0.00943662  1
  O  O318  1  0.00545137  0.62098321  0.50915902  1
  O  O319  1  0.51892541  0.12188410  -0.01268534  1
  O  O320  1  0.51292172  0.13444764  0.50906946  1
  O  O321  1  0.49518613  0.61486198  0.00025928  1
  O  O322  1  0.51299193  0.62520177  0.49496127  1
  O  O323  1  0.49157338  0.37144614  0.49220016  1
  O  O324  1  0.50448729  0.37765669  0.98817335  1
  O  O325  1  0.48748325  0.86963020  0.49237880  1
  O  O326  1  0.49321967  0.87547247  0.99151749  1
  O  O327  1  0.99507525  0.37942752  0.49804709  1
  O  O328  1  0.98692962  0.38071330  0.99861129  1
  O  O329  1  0.99683344  0.88112957  0.49579239  1
  O  O330  1  0.99963298  0.88841381  1.00380579  1
  O  O331  1  0.48804681  0.48940659  0.37491196  1
  O  O332  1  0.49168174  0.49281757  0.88601665  1
  O  O333  1  0.50571120  0.98658435  0.36921547  1
  O  O334  1  0.49710793  0.98614653  0.87284574  1
  O  O335  1  0.99692506  0.49114601  0.38216242  1
  O  O336  1  0.98568101  0.49683507  0.86965987  1
  O  O337  1  0.99488873  0.99006557  0.38351184  1
  O  O338  1  0.98919878  1.01032566  0.88520923  1
  O  O339  1  0.00156163  0.00697297  0.11475553  1
  O  O340  1  -0.00880748  0.01018238  0.61579617  1
  O  O341  1  0.00719796  0.51212218  0.12580881  1
  O  O342  1  -0.00069471  0.50935735  0.62075645  1
  O  O343  1  0.51636711  -0.00310915  0.12403131  1
  O  O344  1  0.51208040  0.00760114  0.63352836  1
  O  O345  1  0.50685709  0.49324026  0.11113435  1
  O  O346  1  0.49458681  0.50381869  0.62502537  1
  O  O347  1  0.24471060  0.38620222  0.24838745  1
  O  O348  1  0.24479443  0.38029151  0.73934069  1
  O  O349  1  0.24326420  0.87475520  0.24363775  1
  O  O350  1  0.24134721  0.88356136  0.74849071  1
  O  O351  1  0.75143131  0.37371792  0.23863159  1
  O  O352  1  0.74001045  0.37659505  0.74354984  1
  O  O353  1  0.74310165  0.88105815  0.24997142  1
  O  O354  1  0.74294149  0.87982008  0.74450589  1
  O  O355  1  0.26420822  0.12435928  0.24870045  1
  O  O356  1  0.24883526  0.11078506  0.74867956  1
  O  O357  1  0.25834218  0.61456199  0.24973322  1
  O  O358  1  0.23972067  0.61382470  0.75864394  1
  O  O359  1  0.75533798  0.12042047  0.25514522  1
  O  O360  1  0.75615504  0.12091553  0.75863496  1
  O  O361  1  0.75910362  0.63043469  0.25921656  1
  O  O362  1  0.74460198  0.60874195  0.73839878  1
  O  O363  1  0.37462205  0.13383445  0.35705825  1
  O  O364  1  0.37247033  0.12105309  0.86909795  1
  O  O365  1  0.37987331  0.61478463  0.36468316  1
  O  O366  1  0.36105111  0.61588857  0.88070846  1
  O  O367  1  0.87032101  0.11963779  0.37010087  1
  O  O368  1  0.86619145  0.11983135  0.86945933  1
  O  O369  1  0.86643274  0.62607877  0.36812366  1
  O  O370  1  0.87895877  0.61364045  0.87454495  1
  O  O371  1  0.12442918  0.38262212  0.13189550  1
  O  O372  1  0.13684687  0.37401054  0.63017180  1
  O  O373  1  0.13360696  0.87236792  0.13139225  1
  O  O374  1  0.12625902  0.86965691  0.63847595  1
  O  O375  1  0.63632218  0.38191335  0.12809700  1
  O  O376  1  0.63625367  0.37129966  0.63028184  1
  O  O377  1  0.62785048  0.88234866  0.13216039  1
  O  O378  1  0.62718356  0.88157875  0.62866875  1
  O  O379  1  0.12096006  0.25339237  0.25697293  1
  O  O380  1  0.13339058  0.25857544  0.76185232  1
  O  O381  1  0.12291672  0.76079398  0.25241656  1
  O  O382  1  0.11813187  0.75718878  0.75570348  1
  O  O383  1  0.61090188  0.25056417  0.23984340  1
  O  O384  1  0.61393315  0.26123639  0.74788962  1
  O  O385  1  0.61852609  0.75430550  0.25615633  1
  O  O386  1  0.61399973  0.75780846  0.75129386  1
  O  O387  1  0.38287064  0.24372955  0.23925366  1
  O  O388  1  0.38811109  0.25044000  0.75280813  1
  O  O389  1  0.38079239  0.74403229  0.24580895  1
  O  O390  1  0.38201885  0.75983389  0.73836591  1
  O  O391  1  0.88250450  0.24329988  0.24232105  1
  O  O392  1  0.86773586  0.23968448  0.74142889  1
  O  O393  1  0.87609709  0.73948941  0.23991138  1
  O  O394  1  0.88377848  0.75602001  0.73995558  1
  O  O395  1  0.37444332  0.49149345  0.48938241  1
  O  O396  1  0.38547038  0.50081309  0.99380055  1
  O  O397  1  0.37028196  0.98408257  0.50544338  1
  O  O398  1  0.38025877  0.98857197  1.00346079  1
  O  O399  1  0.87984454  0.49274248  0.49883800  1
  O  O400  1  0.87317975  0.49492980  0.98475497  1
  O  O401  1  0.88323861  0.99496438  0.49487024  1
  O  O402  1  0.88282884  1.00015229  0.99239597  1
  O  O403  1  0.11916243  0.00853181  -0.00175078  1
  O  O404  1  0.11160345  0.00764017  0.49608521  1
  O  O405  1  0.12305831  0.51045967  0.00524430  1
  O  O406  1  0.11841709  0.50728772  0.50218668  1
  O  O407  1  0.62618623  0.00356578  0.00718557  1
  O  O408  1  0.63157839  0.00983817  0.51232316  1
  O  O409  1  0.61108756  0.50367043  0.01076374  1
  O  O410  1  0.62203621  0.51443175  0.49610132  1
  O  O411  1  0.37214447  0.35971946  0.13051443  1
  O  O412  1  0.36169678  0.37479562  0.61694572  1
  O  O413  1  0.37014370  0.86772324  0.12069666  1
  O  O414  1  0.37635856  0.86412290  0.60981559  1
  O  O415  1  0.87233766  0.36961552  0.12147148  1
  O  O416  1  0.86723460  0.36602881  0.62198740  1
  O  O417  1  0.87590206  0.86078723  0.12534941  1
  O  O418  1  0.86968787  0.86797535  0.62156707  1
  O  O419  1  0.12344806  0.13347093  0.38464924  1
  O  O420  1  0.12741546  0.13341002  0.88452087  1
  O  O421  1  0.11404729  0.62805921  0.38879439  1
  O  O422  1  0.13233024  0.62979219  0.88132998  1
  O  O423  1  0.63191086  0.11754311  0.38790160  1
  O  O424  1  0.63882390  0.11998761  0.88306581  1
  O  O425  1  0.62943341  0.63166142  0.37848756  1
  O  O426  1  0.62153441  0.62077967  0.87314729  1
