# generated using pymatgen
data_V85Zn86O256
_symmetry_space_group_name_H-M   'P 1'
_cell_length_a   16.95554469
_cell_length_b   16.95474485
_cell_length_c   16.95172567
_cell_angle_alpha   89.77401672
_cell_angle_beta   90.02959532
_cell_angle_gamma   89.85871544
_symmetry_Int_Tables_number   1
_chemical_formula_structural   V85Zn86O256
_chemical_formula_sum   'V85 Zn86 O256'
_cell_volume   4873.17672838
_cell_formula_units_Z   1
loop_
 _symmetry_equiv_pos_site_id
 _symmetry_equiv_pos_as_xyz
  1  'x, y, z'
loop_
 _atom_site_type_symbol
 _atom_site_label
 _atom_site_symmetry_multiplicity
 _atom_site_fract_x
 _atom_site_fract_y
 _atom_site_fract_z
 _atom_site_occupancy
  V  V0  1  0.24495587  -0.00011219  0.24397114  1
  V  V1  1  0.24846916  0.24917703  0.49831650  1
  V  V2  1  0.37648415  -0.00904011  0.37875373  1
  V  V3  1  0.37442351  0.37416304  -0.00117403  1
  V  V4  1  0.24868706  0.87764648  0.11941598  1
  V  V5  1  0.24947010  0.50069858  0.75028884  1
  V  V6  1  0.13137251  0.13986650  -0.00207546  1
  V  V7  1  0.87690165  0.37398415  0.50037864  1
  V  V8  1  0.37964713  0.12441525  0.24360600  1
  V  V9  1  0.87741286  0.63229730  0.74920131  1
  V  V10  1  0.63173846  0.49654357  0.12523281  1
  V  V11  1  0.12522238  0.50270558  0.62281231  1
  V  V12  1  0.75248125  0.25503056  0.01202574  1
  V  V13  1  0.87109944  -0.00176225  0.37814612  1
  V  V14  1  0.24996747  0.37412320  0.62432163  1
  V  V15  1  0.00161457  0.37296191  0.37422357  1
  V  V16  1  -0.00279227  0.75027075  0.24214062  1
  V  V17  1  0.24347214  0.62727609  0.87838198  1
  V  V18  1  0.37444271  0.12182912  0.75088664  1
  V  V19  1  0.11684261  0.75091970  0.86924058  1
  V  V20  1  0.00645119  0.11957230  0.62377435  1
  V  V21  1  0.50544628  0.86803576  0.88580757  1
  V  V22  1  0.24367191  0.75171830  -0.00163193  1
  V  V23  1  0.37977235  0.25030630  0.12420515  1
  V  V24  1  0.12497529  0.50754092  0.11849924  1
  V  V25  1  0.50786931  0.37733669  0.86935892  1
  V  V26  1  0.25154184  0.37142925  0.12120026  1
  V  V27  1  0.75442188  0.86743515  0.61606990  1
  V  V28  1  0.62770904  0.62655142  0.50113165  1
  V  V29  1  0.12374215  0.87562025  0.24723688  1
  V  V30  1  0.87525839  0.12966881  0.24280601  1
  V  V31  1  0.61792695  0.00730894  0.12302663  1
  V  V32  1  0.37140105  -0.00938969  0.87702164  1
  V  V33  1  0.00547074  0.50443192  0.50006148  1
  V  V34  1  0.49896406  0.75145255  0.25035794  1
  V  V35  1  0.87794809  0.49039004  0.87143501  1
  V  V36  1  0.00399112  0.25173765  0.76045258  1
  V  V37  1  0.49360251  0.01164601  0.00073396  1
  V  V38  1  0.00259863  0.12814634  0.12435661  1
  V  V39  1  0.37541698  0.50360369  0.87491651  1
  V  V40  1  0.00619388  0.00074323  0.00174548  1
  V  V41  1  0.25193668  0.50091174  0.24911569  1
  V  V42  1  0.00165110  0.62966265  0.62909285  1
  V  V43  1  0.26482049  0.87598762  0.61889176  1
  V  V44  1  0.00109235  0.50351974  -0.00408594  1
  V  V45  1  0.50159389  0.50167359  -0.00077578  1
  V  V46  1  0.62638926  -0.00295075  0.63022866  1
  V  V47  1  0.12010548  0.87530351  0.74056678  1
  V  V48  1  0.62971396  0.75158365  0.37778656  1
  V  V49  1  -0.00513682  0.87280492  0.37834044  1
  V  V50  1  0.50226586  0.50057070  0.50088022  1
  V  V51  1  0.87104162  0.87503605  0.00907281  1
  V  V52  1  0.24371632  -0.00160003  0.74754471  1
  V  V53  1  0.62902002  0.12560339  0.49514510  1
  V  V54  1  0.37383092  0.63371018  0.74352006  1
  V  V55  1  0.75367081  -0.00098288  0.75639161  1
  V  V56  1  0.63177572  0.37394031  0.24769767  1
  V  V57  1  0.37578966  0.37328937  0.49919982  1
  V  V58  1  0.24351060  0.62489877  0.37810210  1
  V  V59  1  0.50446810  0.75185705  0.74436161  1
  V  V60  1  0.75162032  -0.00366355  0.24036966  1
  V  V61  1  0.62628127  0.63475157  -0.00488380  1
  V  V62  1  0.24817880  0.12530656  0.37290486  1
  V  V63  1  0.50077794  0.12244560  0.62612338  1
  V  V64  1  0.37564999  0.50011854  0.37301548  1
  V  V65  1  0.00336424  -0.00227970  0.50064166  1
  V  V66  1  0.87671638  0.37292227  0.01693763  1
  V  V67  1  0.75287677  0.62613581  0.37689688  1
  V  V68  1  0.50843147  0.36864501  0.37581483  1
  V  V69  1  0.87645093  0.12203452  0.75600796  1
  V  V70  1  0.87559235  0.24892814  0.62213566  1
  V  V71  1  0.50623501  0.24782313  0.25135510  1
  V  V72  1  0.74967991  0.63458715  0.87522506  1
  V  V73  1  0.87540803  0.62828748  0.24178381  1
  V  V74  1  0.50601380  0.25302828  0.75058129  1
  V  V75  1  0.25770383  0.74495643  0.50581354  1
  V  V76  1  -0.00560459  0.88207002  0.87144758  1
  V  V77  1  0.74498753  0.37848948  0.63196516  1
  V  V78  1  0.87665167  0.50012682  0.37410080  1
  V  V79  1  0.12561120  0.37033514  0.24829606  1
  V  V80  1  0.63053801  0.87371940  0.24409182  1
  V  V81  1  0.37367646  0.75449044  0.11795690  1
  V  V82  1  0.49898661  0.62586028  0.12312291  1
  V  V83  1  0.74851482  0.12683254  0.87787316  1
  V  V84  1  0.12206894  0.37023628  0.76209531  1
  Zn  Zn85  1  0.74631959  0.12912996  0.36891198  1
  Zn  Zn86  1  0.61271509  0.13433180  0.00283375  1
  Zn  Zn87  1  0.12111419  0.24730233  0.37406755  1
  Zn  Zn88  1  0.62031639  0.49716304  0.63261220  1
  Zn  Zn89  1  0.75524383  0.49447785  0.24653502  1
  Zn  Zn90  1  0.74215938  0.49772889  0.75709422  1
  Zn  Zn91  1  0.37449602  0.62576375  0.24991596  1
  Zn  Zn92  1  0.37573057  0.24856890  0.62366447  1
  Zn  Zn93  1  0.49211522  -0.00899250  0.50882373  1
  Zn  Zn94  1  0.88156122  0.75267784  0.61405205  1
  Zn  Zn95  1  0.63483897  0.86128514  0.75880767  1
  Zn  Zn96  1  0.75335312  0.75517650  0.01016082  1
  Zn  Zn97  1  0.23231801  0.15463985  0.86815908  1
  Zn  Zn98  1  0.62793107  0.25547121  0.87318720  1
  Zn  Zn99  1  0.81361295  0.81043059  0.18538855  1
  Zn  Zn100  1  0.00017462  0.63096506  0.11730592  1
  Zn  Zn101  1  0.12710163  0.12016100  0.50359932  1
  Zn  Zn102  1  0.12238406  0.74427842  0.37927609  1
  Zn  Zn103  1  0.49632306  0.63158278  0.62007455  1
  Zn  Zn104  1  0.49593503  0.86881179  0.38398731  1
  Zn  Zn105  1  -0.00786217  0.25289900  0.24449433  1
  Zn  Zn106  1  0.74138570  0.25554279  0.49443575  1
  Zn  Zn107  1  0.18764849  0.18572153  0.17924235  1
  Zn  Zn108  1  0.18667628  0.18850498  0.68668811  1
  Zn  Zn109  1  0.18646705  0.68978503  0.19131425  1
  Zn  Zn110  1  0.18628532  0.69097841  0.68701768  1
  Zn  Zn111  1  0.68724603  0.18462200  0.18808652  1
  Zn  Zn112  1  0.68907083  0.18805751  0.68488486  1
  Zn  Zn113  1  0.68616813  0.68144957  0.18595249  1
  Zn  Zn114  1  0.68612142  0.68213214  0.69032625  1
  Zn  Zn115  1  0.31548155  0.31288895  0.31185466  1
  Zn  Zn116  1  0.31515403  0.31426129  0.80919878  1
  Zn  Zn117  1  0.30995883  0.80838117  0.31091574  1
  Zn  Zn118  1  0.31238614  0.81399202  0.81025562  1
  Zn  Zn119  1  0.81083596  0.30785041  0.31768035  1
  Zn  Zn120  1  0.81553613  0.30798089  0.81387807  1
  Zn  Zn121  1  0.81391416  0.81270534  0.43792507  1
  Zn  Zn122  1  0.81760775  0.81203226  0.81154816  1
  Zn  Zn123  1  0.18730173  0.43679542  0.43582304  1
  Zn  Zn124  1  0.18851032  0.43761252  0.93857272  1
  Zn  Zn125  1  0.18559327  0.93325648  0.43650446  1
  Zn  Zn126  1  0.18252795  0.93995939  0.93396146  1
  Zn  Zn127  1  0.69102912  0.43888666  0.43890027  1
  Zn  Zn128  1  0.69203988  0.44203944  0.93957143  1
  Zn  Zn129  1  0.68048642  0.94281255  0.43641235  1
  Zn  Zn130  1  0.68446943  0.94130303  0.93984759  1
  Zn  Zn131  1  0.31142211  0.06312014  0.05895341  1
  Zn  Zn132  1  0.30968420  0.05941105  0.56338694  1
  Zn  Zn133  1  0.31245860  0.56442696  0.06188626  1
  Zn  Zn134  1  0.31382956  0.56175757  0.56162091  1
  Zn  Zn135  1  0.81708394  0.05834970  0.05967095  1
  Zn  Zn136  1  0.81513127  0.05766465  0.56560365  1
  Zn  Zn137  1  0.81200320  0.56204254  0.05767307  1
  Zn  Zn138  1  0.81616692  0.56268409  0.56193837  1
  Zn  Zn139  1  0.44216408  0.43728417  0.18816199  1
  Zn  Zn140  1  0.43479463  0.43962718  0.68738783  1
  Zn  Zn141  1  0.43656323  0.93603513  0.18680009  1
  Zn  Zn142  1  0.43847510  0.93362610  0.69376589  1
  Zn  Zn143  1  0.94069652  0.44212770  0.18696832  1
  Zn  Zn144  1  0.93709236  0.43771100  0.69049295  1
  Zn  Zn145  1  0.94284813  0.94585764  0.18478924  1
  Zn  Zn146  1  0.93556187  0.93638479  0.68610026  1
  Zn  Zn147  1  0.06017797  0.06034804  0.31192429  1
  Zn  Zn148  1  0.06236957  0.06258815  0.81619055  1
  Zn  Zn149  1  0.06291932  0.55976163  0.30748830  1
  Zn  Zn150  1  0.06148130  0.55990080  0.81104299  1
  Zn  Zn151  1  0.56082949  0.05872463  0.31064267  1
  Zn  Zn152  1  0.56335897  0.06139136  0.81802318  1
  Zn  Zn153  1  0.56369084  0.56166996  0.31212564  1
  Zn  Zn154  1  0.56468115  0.56552968  0.81098036  1
  Zn  Zn155  1  0.43758657  0.18243629  0.43630255  1
  Zn  Zn156  1  0.41136319  0.19859103  0.92187766  1
  Zn  Zn157  1  0.43411426  0.68857112  0.43696369  1
  Zn  Zn158  1  0.43360915  0.68900057  0.93620749  1
  Zn  Zn159  1  0.93581978  0.18452187  0.43338971  1
  Zn  Zn160  1  0.93572811  0.18772756  0.94215407  1
  Zn  Zn161  1  0.94158478  0.68555794  0.43656503  1
  Zn  Zn162  1  0.93330599  0.68980681  0.93665634  1
  Zn  Zn163  1  0.05956460  0.31344777  0.06005695  1
  Zn  Zn164  1  0.06313988  0.31210550  0.56781924  1
  Zn  Zn165  1  0.06420715  0.81559957  0.05872204  1
  Zn  Zn166  1  0.07151996  0.80974265  0.55619137  1
  Zn  Zn167  1  0.56259081  0.31309194  0.06243991  1
  Zn  Zn168  1  0.56235997  0.30914212  0.56377376  1
  Zn  Zn169  1  0.56397059  0.81617437  0.06455649  1
  Zn  Zn170  1  0.56392614  0.81553652  0.56357504  1
  O  O171  1  0.11804519  0.12646715  0.11095017  1
  O  O172  1  0.11060571  0.12603418  0.62519541  1
  O  O173  1  0.12774121  0.61050654  0.12899742  1
  O  O174  1  0.11901209  0.60984144  0.63576775  1
  O  O175  1  0.62117991  0.11247554  0.12372479  1
  O  O176  1  0.61775768  0.11656772  0.62104297  1
  O  O177  1  0.61704875  0.61609998  0.11689771  1
  O  O178  1  0.62239693  0.62479104  0.61079854  1
  O  O179  1  0.38554089  0.38007312  0.37924471  1
  O  O180  1  0.38368869  0.38490325  0.88247309  1
  O  O181  1  0.37121820  0.88869757  0.36678615  1
  O  O182  1  0.38741367  0.88379060  0.86681549  1
  O  O183  1  0.88213660  0.38059673  0.37921681  1
  O  O184  1  0.87024655  0.38722842  0.87778032  1
  O  O185  1  0.88368292  0.88437609  0.37395853  1
  O  O186  1  0.89002813  0.87013888  0.88000961  1
  O  O187  1  0.25788654  0.00558217  0.36558474  1
  O  O188  1  0.25830851  -0.00743010  0.86274250  1
  O  O189  1  0.25578349  0.50452766  0.37108260  1
  O  O190  1  0.25347856  0.50963540  0.87087246  1
  O  O191  1  0.75631358  0.00118880  0.36459326  1
  O  O192  1  0.74419131  0.01105146  0.86457469  1
  O  O193  1  0.75777168  0.50880350  0.37231256  1
  O  O194  1  0.76193114  0.51063495  0.87721519  1
  O  O195  1  0.24543940  0.49158956  0.12692900  1
  O  O196  1  0.24324482  0.49553939  0.62898726  1
  O  O197  1  0.25993996  0.99033921  0.13528303  1
  O  O198  1  0.25199956  0.98736964  0.63328534  1
  O  O199  1  0.73569769  0.50518758  0.12674893  1
  O  O200  1  0.75318977  0.48486877  0.62425660  1
  O  O201  1  0.73944959  1.00435501  0.13342418  1
  O  O202  1  0.74486394  0.99108886  0.63460806  1
  O  O203  1  0.00947344  0.37462316  0.25314769  1
  O  O204  1  0.01012867  0.36426844  0.74191984  1
  O  O205  1  0.00487400  0.87083207  0.25468104  1
  O  O206  1  0.00840455  0.88467041  0.75776955  1
  O  O207  1  0.50776117  0.36789014  0.25854245  1
  O  O208  1  0.48950175  0.36596405  0.75810993  1
  O  O209  1  0.50767384  0.86426047  0.25220505  1
  O  O210  1  0.50323286  0.86243888  0.75842713  1
  O  O211  1  0.48922365  0.13371302  0.25713200  1
  O  O212  1  0.49515412  0.12840142  0.74324634  1
  O  O213  1  0.50161104  0.63649515  0.24380736  1
  O  O214  1  0.49114937  0.63785554  0.75336705  1
  O  O215  1  0.99405007  0.12346718  0.24188871  1
  O  O216  1  0.99394843  0.12736119  0.74360930  1
  O  O217  1  0.99281675  0.63328250  0.25025179  1
  O  O218  1  0.99101463  0.61736687  0.73967398  1
  O  O219  1  0.38974446  0.26415999  0.01573069  1
  O  O220  1  0.36529381  0.25260419  0.49970348  1
  O  O221  1  0.36231397  0.74898030  0.00941598  1
  O  O222  1  0.35855913  0.75399658  0.49264054  1
  O  O223  1  0.86705239  0.26444110  -0.00332221  1
  O  O224  1  0.87986183  0.25348265  0.51153874  1
  O  O225  1  0.87843194  0.76914115  0.00023707  1
  O  O226  1  0.87081153  0.74122690  0.50170797  1
  O  O227  1  0.13801574  0.24915479  0.49803280  1
  O  O228  1  0.12261710  0.24019349  0.99870228  1
  O  O229  1  0.14710701  0.75651840  0.49111073  1
  O  O230  1  0.13629775  0.75299208  0.98902171  1
  O  O231  1  0.62202014  0.22952919  0.50591028  1
  O  O232  1  0.63806634  0.25105175  0.99884483  1
  O  O233  1  0.61607885  0.73852250  0.48809705  1
  O  O234  1  0.62349135  0.73742105  1.00443147  1
  O  O235  1  0.49016387  0.25770108  0.13847913  1
  O  O236  1  0.49782366  0.23927767  0.63128114  1
  O  O237  1  0.49216672  0.74812219  0.12987903  1
  O  O238  1  0.50163489  0.75157670  0.64037774  1
  O  O239  1  1.00159642  0.23581392  0.12619487  1
  O  O240  1  0.99244218  0.24008115  0.63120226  1
  O  O241  1  1.01118509  0.74774448  0.13720489  1
  O  O242  1  1.00586445  0.73239350  0.61456394  1
  O  O243  1  0.00259316  0.25703573  0.36981163  1
  O  O244  1  -0.00794249  0.24484223  0.85888688  1
  O  O245  1  0.00138419  0.75780064  0.36491577  1
  O  O246  1  0.01213188  0.75801967  0.88153478  1
  O  O247  1  0.49380418  0.25865868  0.36575079  1
  O  O248  1  0.49912346  0.26014634  0.86705008  1
  O  O249  1  0.50778140  0.74760211  0.36496559  1
  O  O250  1  0.49432987  0.76390833  0.87221558  1
  O  O251  1  0.24928637  0.13060743  0.49178274  1
  O  O252  1  0.23345825  0.12183836  1.00045006  1
  O  O253  1  0.25424692  0.63553532  0.49510937  1
  O  O254  1  0.25377623  0.63406496  0.98703013  1
  O  O255  1  0.73483184  0.12030531  0.50600144  1
  O  O256  1  0.75943733  0.13742851  0.99109914  1
  O  O257  1  0.74011673  0.61586719  0.48848910  1
  O  O258  1  0.74357637  0.62829373  0.99275404  1
  O  O259  1  0.26382388  0.38220253  0.00859679  1
  O  O260  1  0.25547276  0.36722585  0.50210879  1
  O  O261  1  0.24196932  0.86891419  0.01081202  1
  O  O262  1  0.24904365  0.87311773  0.51365058  1
  O  O263  1  0.75980507  0.36405689  -0.00254499  1
  O  O264  1  0.75957466  0.37431962  0.50885717  1
  O  O265  1  0.76794952  0.88019157  -0.00911290  1
  O  O266  1  0.74626943  0.87906131  0.51108311  1
  O  O267  1  0.13041962  0.48853534  0.23938176  1
  O  O268  1  0.12988517  0.49053483  0.74306631  1
  O  O269  1  0.13711232  0.99240413  0.25399919  1
  O  O270  1  0.13633338  0.99158605  0.75643902  1
  O  O271  1  0.62456170  0.49204985  0.24236131  1
  O  O272  1  0.62892943  0.50494836  0.74420899  1
  O  O273  1  0.63001748  0.99370827  0.24431202  1
  O  O274  1  0.63551309  1.00302779  0.74227158  1
  O  O275  1  0.36721969  0.00741033  0.25530939  1
  O  O276  1  0.36519106  0.00312269  0.75368137  1
  O  O277  1  0.37080805  0.50018282  0.25480453  1
  O  O278  1  0.36860895  0.50900252  0.75596516  1
  O  O279  1  0.86728487  0.00355856  0.25532436  1
  O  O280  1  0.86473644  0.01175683  0.74359601  1
  O  O281  1  0.87593175  0.50781774  0.25702919  1
  O  O282  1  0.87233496  0.50713791  0.75783495  1
  O  O283  1  0.12141026  0.37495506  0.36335771  1
  O  O284  1  0.13181837  0.37739040  0.86134304  1
  O  O285  1  0.11510509  0.87618216  0.36165338  1
  O  O286  1  0.11707121  0.86841584  0.86563452  1
  O  O287  1  0.61421895  0.38080330  0.36821634  1
  O  O288  1  0.61098434  0.37845175  0.88121910  1
  O  O289  1  0.62600499  0.86730424  0.36309750  1
  O  O290  1  0.60998501  0.88077168  0.87313440  1
  O  O291  1  0.36655164  0.13572660  0.13483195  1
  O  O292  1  0.38439247  0.11860879  0.63368299  1
  O  O293  1  0.37962240  0.63597039  0.12593213  1
  O  O294  1  0.37766154  0.61943850  0.63860187  1
  O  O295  1  0.88453431  0.11690700  0.13473988  1
  O  O296  1  0.88083630  0.13183872  0.63347099  1
  O  O297  1  0.87542715  0.61626464  0.13868398  1
  O  O298  1  0.88401923  0.62295027  0.63238711  1
  O  O299  1  0.26314909  0.26398896  0.13144512  1
  O  O300  1  0.25257002  0.25358940  0.61467120  1
  O  O301  1  0.25370627  0.75535315  0.11840275  1
  O  O302  1  0.24869091  0.75949446  0.61485484  1
  O  O303  1  0.74993413  0.24399777  0.11023553  1
  O  O304  1  0.75991775  0.25726718  0.62138095  1
  O  O305  1  0.74180617  0.75327862  0.12314192  1
  O  O306  1  0.74257457  0.76721729  0.63109755  1
  O  O307  1  0.25153861  0.24197622  0.38072339  1
  O  O308  1  0.30137577  0.23726854  0.88699582  1
  O  O309  1  0.25008221  0.73990095  0.38058312  1
  O  O310  1  0.24375970  0.74735044  0.88054934  1
  O  O311  1  0.75426123  0.23980982  0.38457442  1
  O  O312  1  0.74726806  0.24275491  0.88025298  1
  O  O313  1  0.73866931  0.74131749  0.37642207  1
  O  O314  1  0.75655327  0.73789253  0.87911554  1
  O  O315  1  0.00554127  0.12064231  0.00440485  1
  O  O316  1  0.00170347  0.11819712  0.50652555  1
  O  O317  1  -0.01237380  0.60963223  0.00254164  1
  O  O318  1  -0.00107575  0.60920036  0.50702839  1
  O  O319  1  0.49469735  0.11426910  -0.01290789  1
  O  O320  1  0.50540559  0.11873992  0.51101207  1
  O  O321  1  0.50563932  0.62136350  0.00153600  1
  O  O322  1  0.50628112  0.61647375  0.49739654  1
  O  O323  1  0.49801852  0.37904976  0.49358928  1
  O  O324  1  0.49251783  0.38190160  0.99247587  1
  O  O325  1  0.50608013  0.88078423  0.49526498  1
  O  O326  1  0.50119191  0.88144955  0.98920670  1
  O  O327  1  0.99700539  0.38255270  0.49649089  1
  O  O328  1  0.98433618  0.38311044  1.00411916  1
  O  O329  1  1.00637966  0.88049633  0.48694291  1
  O  O330  1  0.99563848  0.88242460  0.99394330  1
  O  O331  1  0.49661725  0.49214373  0.38297453  1
  O  O332  1  0.49444480  0.49621234  0.87868827  1
  O  O333  1  0.48209885  0.99831430  0.37020533  1
  O  O334  1  0.49328833  0.98850282  0.88027519  1
  O  O335  1  0.99844574  0.49441639  0.38211467  1
  O  O336  1  0.99030434  0.50451273  0.88336746  1
  O  O337  1  0.99120022  0.99159853  0.37812263  1
  O  O338  1  1.00204238  0.99005707  0.88315184  1
  O  O339  1  0.00271590  0.01359007  0.11562398  1
  O  O340  1  -0.01102142  0.00848262  0.61268881  1
  O  O341  1  0.01006678  0.50207435  0.11645715  1
  O  O342  1  0.00695517  0.50442317  0.61844527  1
  O  O343  1  0.50242320  -0.00466300  0.11284966  1
  O  O344  1  0.50799189  0.00614612  0.63237738  1
  O  O345  1  0.50633600  0.50620542  0.11909387  1
  O  O346  1  0.49954431  0.49945655  0.61049258  1
  O  O347  1  0.24572352  0.38077510  0.24216522  1
  O  O348  1  0.24578189  0.37961256  0.74409612  1
  O  O349  1  0.24240452  0.88012642  0.24358338  1
  O  O350  1  0.24358169  0.87902971  0.73846825  1
  O  O351  1  0.73572193  0.37458822  0.25770467  1
  O  O352  1  0.75604683  0.37200084  0.73474855  1
  O  O353  1  0.74168385  0.88446803  0.24718303  1
  O  O354  1  0.75045652  0.88409265  0.74770278  1
  O  O355  1  0.25651698  0.11929217  0.25305550  1
  O  O356  1  0.25657629  0.11704698  0.74849301  1
  O  O357  1  0.25259481  0.61885563  0.25801814  1
  O  O358  1  0.25631494  0.62278150  0.75660000  1
  O  O359  1  0.75682308  0.11433278  0.24898218  1
  O  O360  1  0.75689290  0.12081436  0.75544363  1
  O  O361  1  0.75717896  0.62341377  0.26156138  1
  O  O362  1  0.75931280  0.62269036  0.75754503  1
  O  O363  1  0.36484862  0.11825526  0.36370390  1
  O  O364  1  0.38317018  0.10490927  0.85748789  1
  O  O365  1  0.36504523  0.61683756  0.37297927  1
  O  O366  1  0.36445302  0.62260153  0.86692605  1
  O  O367  1  0.87733906  0.11137875  0.36261089  1
  O  O368  1  0.86590375  0.13125639  0.86267425  1
  O  O369  1  0.86931658  0.62027324  0.36634202  1
  O  O370  1  0.86956688  0.61858106  0.86779057  1
  O  O371  1  0.13411326  0.38089590  0.12851917  1
  O  O372  1  0.13149599  0.38406395  0.63286736  1
  O  O373  1  0.13492453  0.87091088  0.13714448  1
  O  O374  1  0.12867987  0.87105512  0.63700399  1
  O  O375  1  0.61708362  0.38568028  0.13499909  1
  O  O376  1  0.64186960  0.37303120  0.61727612  1
  O  O377  1  0.61864270  0.88738159  0.13690946  1
  O  O378  1  0.63554714  0.88309683  0.63258229  1
  O  O379  1  0.12814709  0.26304319  0.24746510  1
  O  O380  1  0.11749251  0.25767376  0.74524280  1
  O  O381  1  0.11804311  0.75873432  0.25589607  1
  O  O382  1  0.13056810  0.76156519  0.75979075  1
  O  O383  1  0.61472996  0.25693000  0.24234632  1
  O  O384  1  0.61030375  0.24346195  0.75041310  1
  O  O385  1  0.61843201  0.75520286  0.25665282  1
  O  O386  1  0.60914002  0.74374535  0.75487292  1
  O  O387  1  0.38317341  0.24442886  0.24395358  1
  O  O388  1  0.38632453  0.23701780  0.74389375  1
  O  O389  1  0.38378030  0.74896045  0.24113705  1
  O  O390  1  0.38493807  0.74197320  0.75554310  1
  O  O391  1  0.87312680  0.23386925  0.25288336  1
  O  O392  1  0.88237466  0.24200331  0.74010512  1
  O  O393  1  0.88572358  0.74227853  0.24796510  1
  O  O394  1  0.87421638  0.73589966  0.74288675  1
  O  O395  1  0.38359650  0.49401121  0.49392125  1
  O  O396  1  0.38119585  0.49428265  0.99613091  1
  O  O397  1  0.37277602  1.00659549  0.48197758  1
  O  O398  1  0.37887692  1.00371428  0.98769581  1
  O  O399  1  0.88609541  0.49431636  0.49414114  1
  O  O400  1  0.87846957  0.48795971  0.99433703  1
  O  O401  1  0.88419218  1.00601455  0.48730429  1
  O  O402  1  0.88899782  0.98746701  1.00068940  1
  O  O403  1  0.11225826  0.00626775  -0.00320833  1
  O  O404  1  0.10900208  0.00255472  0.49053163  1
  O  O405  1  0.11393655  0.49122568  0.00699559  1
  O  O406  1  0.11771607  0.49108148  0.51150502  1
  O  O407  1  0.61464765  0.00391701  0.00829001  1
  O  O408  1  0.62201304  0.00822291  0.51561892  1
  O  O409  1  0.62030462  0.50675190  0.00803712  1
  O  O410  1  0.61619840  0.50803203  0.49929926  1
  O  O411  1  0.37048859  0.37209313  0.11954265  1
  O  O412  1  0.36774723  0.37387945  0.61708693  1
  O  O413  1  0.36225023  0.86374418  0.13202496  1
  O  O414  1  0.36339580  0.87416161  0.62885499  1
  O  O415  1  0.87169713  0.38025476  0.11598001  1
  O  O416  1  0.87008930  0.36630823  0.62092997  1
  O  O417  1  0.87820934  0.87891021  0.11514898  1
  O  O418  1  0.85919006  0.87223975  0.62878962  1
  O  O419  1  0.13878594  0.12565894  0.37190665  1
  O  O420  1  0.12474026  0.12514710  0.88848824  1
  O  O421  1  0.13903157  0.62011785  0.37072865  1
  O  O422  1  0.13600078  0.63414233  0.86368471  1
  O  O423  1  0.62273128  0.11103685  0.39256651  1
  O  O424  1  0.63620528  0.12836212  0.88048373  1
  O  O425  1  0.63267151  0.63087385  0.37893417  1
  O  O426  1  0.63618544  0.61800335  0.88659756  1
