# generated using pymatgen
data_V85Zn86O256
_symmetry_space_group_name_H-M   'P 1'
_cell_length_a   16.95550109
_cell_length_b   16.98881143
_cell_length_c   16.98640544
_cell_angle_alpha   89.96567622
_cell_angle_beta   89.89238144
_cell_angle_gamma   89.98345861
_symmetry_Int_Tables_number   1
_chemical_formula_structural   V85Zn86O256
_chemical_formula_sum   'V85 Zn86 O256'
_cell_volume   4892.98910798
_cell_formula_units_Z   1
loop_
 _symmetry_equiv_pos_site_id
 _symmetry_equiv_pos_as_xyz
  1  'x, y, z'
loop_
 _atom_site_type_symbol
 _atom_site_label
 _atom_site_symmetry_multiplicity
 _atom_site_fract_x
 _atom_site_fract_y
 _atom_site_fract_z
 _atom_site_occupancy
  V  V0  1  0.12605629  0.88022393  0.75358229  1
  V  V1  1  0.12850257  0.87515385  0.23679591  1
  V  V2  1  0.24796508  0.37604930  0.12283112  1
  V  V3  1  0.86577908  0.37599169  -0.00047339  1
  V  V4  1  0.37430097  0.37788041  -0.00214120  1
  V  V5  1  0.50168668  0.25132269  0.74839325  1
  V  V6  1  0.74504848  0.62726658  0.87722590  1
  V  V7  1  0.87585935  0.74701650  0.13020711  1
  V  V8  1  0.12618998  0.74659459  0.37447005  1
  V  V9  1  0.50937653  0.50412049  -0.00300847  1
  V  V10  1  0.50304402  0.37605154  0.87115664  1
  V  V11  1  0.00773623  0.24802653  0.25170434  1
  V  V12  1  0.87561275  0.12320993  0.75039522  1
  V  V13  1  0.12749125  0.12605397  0.49232549  1
  V  V14  1  0.50254563  0.87197496  0.87481439  1
  V  V15  1  0.37732196  0.12871100  0.24687440  1
  V  V16  1  0.74504448  0.37633216  0.14296860  1
  V  V17  1  -0.00237631  0.37652467  0.87516535  1
  V  V18  1  0.88826249  0.64650114  0.75100372  1
  V  V19  1  0.73632920  0.74627817  -0.00315858  1
  V  V20  1  0.25148452  0.87934325  0.63065899  1
  V  V21  1  0.75034423  0.00302705  0.75360047  1
  V  V22  1  0.00019646  0.87347837  0.87400802  1
  V  V23  1  0.24512509  0.37393502  0.63364223  1
  V  V24  1  0.00657470  0.12289526  0.12075499  1
  V  V25  1  0.12154429  0.75194001  0.87581242  1
  V  V26  1  0.87691901  0.24650988  0.62461408  1
  V  V27  1  0.62676162  0.74615930  0.37940698  1
  V  V28  1  0.85512412  0.61754653  0.25122621  1
  V  V29  1  0.87428640  0.87153686  0.00118515  1
  V  V30  1  0.24478613  0.24942400  -0.00169836  1
  V  V31  1  0.00640731  0.00664760  0.00416980  1
  V  V32  1  0.49920141  0.49291047  0.50022349  1
  V  V33  1  0.62521591  -0.00180113  0.62567436  1
  V  V34  1  0.13027713  0.62505574  -0.00230081  1
  V  V35  1  0.13105062  0.00298376  0.63067869  1
  V  V36  1  0.12389028  0.49928913  0.12464757  1
  V  V37  1  0.62608096  0.49813772  0.14039063  1
  V  V38  1  0.76300972  0.50223669  0.75267363  1
  V  V39  1  0.63755190  0.24363432  0.87861164  1
  V  V40  1  0.74865375  0.74573546  0.49965995  1
  V  V41  1  0.37100385  0.87622926  0.00671069  1
  V  V42  1  0.24687939  0.74360286  0.49993032  1
  V  V43  1  0.87071084  0.25034380  0.12707046  1
  V  V44  1  0.00425829  0.50367111  0.49547661  1
  V  V45  1  0.74968112  0.37539736  0.62675628  1
  V  V46  1  -0.00650316  0.50018052  -0.00372678  1
  V  V47  1  -0.00196044  0.62563575  0.13199427  1
  V  V48  1  0.87154491  0.00128259  0.87625076  1
  V  V49  1  0.24969438  0.50027371  0.25063062  1
  V  V50  1  0.50629727  0.12704599  0.11472598  1
  V  V51  1  0.61980455  0.25125010  0.37109236  1
  V  V52  1  0.24721474  -0.00180604  0.22887049  1
  V  V53  1  0.75197684  0.24139747  0.49574704  1
  V  V54  1  0.74596393  0.87155038  0.12840947  1
  V  V55  1  0.24651629  0.12600394  0.87445321  1
  V  V56  1  0.00324392  0.87098972  0.36995779  1
  V  V57  1  0.36808865  0.00177155  0.37351672  1
  V  V58  1  0.00398358  0.37089917  0.37174890  1
  V  V59  1  0.87891478  0.86838881  0.50342837  1
  V  V60  1  0.87587125  0.37587865  0.49691424  1
  V  V61  1  0.75723023  0.86822620  0.62730674  1
  V  V62  1  0.49571195  0.74435736  0.75135475  1
  V  V63  1  0.75047142  0.00311166  0.25509610  1
  V  V64  1  0.87230195  0.00216019  0.37593295  1
  V  V65  1  0.37495881  0.25778617  0.61969436  1
  V  V66  1  0.37143207  0.74291056  0.63063421  1
  V  V67  1  0.12368959  0.25443464  0.87263425  1
  V  V68  1  0.49852192  0.74958085  0.25176035  1
  V  V69  1  0.37082766  0.12237673  0.74796924  1
  V  V70  1  0.37296047  0.62213770  0.25608419  1
  V  V71  1  0.49968497  0.12426464  0.62387021  1
  V  V72  1  0.00397602  0.12476458  0.62612287  1
  V  V73  1  0.00578134  0.25615582  0.75027122  1
  V  V74  1  0.50081161  0.62475062  0.12166894  1
  V  V75  1  0.37258248  0.00033469  0.87068659  1
  V  V76  1  0.50865730  0.62908861  0.61774378  1
  V  V77  1  0.62557810  0.86807397  0.75409649  1
  V  V78  1  0.24993852  0.25523928  0.49088768  1
  V  V79  1  0.49996732  -0.00086452  0.49836621  1
  V  V80  1  0.37421167  0.87531829  0.50104670  1
  V  V81  1  0.11706991  0.49785547  0.63120351  1
  V  V82  1  0.49780669  0.87396006  0.37409850  1
  V  V83  1  0.37022020  0.50852969  0.86454623  1
  V  V84  1  0.62944700  0.12059856  0.49403567  1
  Zn  Zn85  1  0.49605812  0.38002126  0.36043714  1
  Zn  Zn86  1  -0.00299698  0.64725300  0.61039413  1
  Zn  Zn87  1  0.24057145  0.61937286  0.38187383  1
  Zn  Zn88  1  0.37683004  0.25224164  0.12392057  1
  Zn  Zn89  1  0.62793159  0.00216763  0.12276351  1
  Zn  Zn90  1  0.68597642  0.58259443  0.44737599  1
  Zn  Zn91  1  0.62934232  0.37863027  0.74965956  1
  Zn  Zn92  1  0.36409050  0.48680228  0.39236984  1
  Zn  Zn93  1  0.62226282  0.87703300  0.25102925  1
  Zn  Zn94  1  0.24428015  0.51179053  0.74454056  1
  Zn  Zn95  1  0.63216713  0.50944374  0.62216134  1
  Zn  Zn96  1  0.24519148  0.76045220  0.00711868  1
  Zn  Zn97  1  0.66297405  0.12347002  -0.00983256  1
  Zn  Zn98  1  0.00239208  -0.00103392  0.50044896  1
  Zn  Zn99  1  0.50939561  0.00220126  -0.00471244  1
  Zn  Zn100  1  0.25740867  0.64219955  0.85467372  1
  Zn  Zn101  1  0.12823675  0.37034892  0.25255385  1
  Zn  Zn102  1  0.24162825  0.13082032  0.36651213  1
  Zn  Zn103  1  0.36939225  0.75641401  0.13057916  1
  Zn  Zn104  1  0.50863419  0.25648610  0.24125924  1
  Zn  Zn105  1  0.87484247  0.12670384  0.25654787  1
  Zn  Zn106  1  0.85758536  0.50078123  0.36840686  1
  Zn  Zn107  1  0.18872812  0.18432090  0.18311022  1
  Zn  Zn108  1  0.18898426  0.19018107  0.68668825  1
  Zn  Zn109  1  0.18764450  0.69063417  0.18657439  1
  Zn  Zn110  1  0.16117970  0.68963246  0.68050565  1
  Zn  Zn111  1  0.69165481  0.18556438  0.18552903  1
  Zn  Zn112  1  0.68615742  0.18805316  0.68783182  1
  Zn  Zn113  1  0.68069202  0.68906058  0.18652408  1
  Zn  Zn114  1  0.69112854  0.68653169  0.69199794  1
  Zn  Zn115  1  0.32013806  0.31823639  0.31194587  1
  Zn  Zn116  1  0.31486339  0.31428929  0.80984837  1
  Zn  Zn117  1  0.30822608  0.81328018  0.31003712  1
  Zn  Zn118  1  0.30982611  0.81344855  0.81580957  1
  Zn  Zn119  1  0.81282317  0.31028384  0.31488561  1
  Zn  Zn120  1  0.81866628  0.31349540  0.81157937  1
  Zn  Zn121  1  0.81338200  0.81083272  0.31416939  1
  Zn  Zn122  1  0.81281533  0.81079625  0.81526062  1
  Zn  Zn123  1  0.18578800  0.43232789  0.43877884  1
  Zn  Zn124  1  0.18461144  0.43882050  0.93490337  1
  Zn  Zn125  1  0.18593618  0.93527054  0.43928179  1
  Zn  Zn126  1  0.18837405  0.94438407  0.94202829  1
  Zn  Zn127  1  0.68290663  0.42456377  0.43918844  1
  Zn  Zn128  1  0.68978767  0.44114256  0.93291459  1
  Zn  Zn129  1  0.68833402  0.93030605  0.43737168  1
  Zn  Zn130  1  0.68668959  0.93704616  0.94154302  1
  Zn  Zn131  1  0.32048482  0.06516508  0.05556755  1
  Zn  Zn132  1  0.31102801  0.06622525  0.55995016  1
  Zn  Zn133  1  0.31443654  0.56446740  0.06295670  1
  Zn  Zn134  1  0.31237702  0.56180220  0.56914710  1
  Zn  Zn135  1  0.81871058  0.05613517  0.07326103  1
  Zn  Zn136  1  0.81467578  0.05620488  0.56471964  1
  Zn  Zn137  1  0.80829686  0.56085362  0.06240507  1
  Zn  Zn138  1  0.82573848  0.56370451  0.57198144  1
  Zn  Zn139  1  0.43683734  0.43616976  0.18759768  1
  Zn  Zn140  1  0.43903522  0.44076681  0.68329460  1
  Zn  Zn141  1  0.44070449  0.94390288  0.18838164  1
  Zn  Zn142  1  0.43779827  0.93613312  0.68828670  1
  Zn  Zn143  1  0.93564367  0.43817858  0.18772329  1
  Zn  Zn144  1  0.93618627  0.43734032  0.68590999  1
  Zn  Zn145  1  0.93825006  0.93606917  0.18894913  1
  Zn  Zn146  1  0.94170845  0.93636473  0.68775528  1
  Zn  Zn147  1  0.05932572  0.05631676  0.30723650  1
  Zn  Zn148  1  0.06079087  0.06466034  0.81686339  1
  Zn  Zn149  1  0.05796325  0.55937362  0.31449515  1
  Zn  Zn150  1  0.06334654  0.56267878  0.81279034  1
  Zn  Zn151  1  0.56135721  0.06356673  0.30787775  1
  Zn  Zn152  1  0.56191711  0.06268537  0.81159574  1
  Zn  Zn153  1  0.55904668  0.56317352  0.31394682  1
  Zn  Zn154  1  0.56965255  0.56224839  0.80699862  1
  Zn  Zn155  1  0.43638970  0.18606182  0.43711819  1
  Zn  Zn156  1  0.43699755  0.19191179  0.93379458  1
  Zn  Zn157  1  0.43550635  0.68507952  0.43966766  1
  Zn  Zn158  1  0.43873980  0.69003545  0.93840025  1
  Zn  Zn159  1  0.94200722  0.18564187  0.43733188  1
  Zn  Zn160  1  0.87701001  0.16595812  0.96340824  1
  Zn  Zn161  1  0.93537016  0.68769244  0.42883967  1
  Zn  Zn162  1  0.93077117  0.68441800  0.93741277  1
  Zn  Zn163  1  0.05970973  0.31042401  0.06216966  1
  Zn  Zn164  1  0.06602070  0.31291611  0.55966928  1
  Zn  Zn165  1  0.05690053  0.81118824  0.05940071  1
  Zn  Zn166  1  0.06396528  0.81247741  0.56106002  1
  Zn  Zn167  1  0.56716486  0.31233472  0.05843723  1
  Zn  Zn168  1  0.56556328  0.31019937  0.56064153  1
  Zn  Zn169  1  0.55761901  0.81247451  0.06291023  1
  Zn  Zn170  1  0.56440070  0.81265761  0.56400163  1
  O  O171  1  0.10655090  0.13177717  0.12213408  1
  O  O172  1  0.12517572  0.11832836  0.62034537  1
  O  O173  1  0.11556532  0.62122804  0.11674435  1
  O  O174  1  0.12517356  0.59602464  0.61327783  1
  O  O175  1  0.61386448  0.13022207  0.11910200  1
  O  O176  1  0.61944675  0.11868780  0.61702848  1
  O  O177  1  0.61268603  0.61078341  0.12979857  1
  O  O178  1  0.61421543  0.62992648  0.62857346  1
  O  O179  1  0.38373131  0.37644801  0.38032185  1
  O  O180  1  0.38442756  0.38437935  0.87891175  1
  O  O181  1  0.37779868  0.88274092  0.37993453  1
  O  O182  1  0.38179619  0.88454031  0.87824258  1
  O  O183  1  0.88004242  0.37621066  0.38439508  1
  O  O184  1  0.88810386  0.36559042  0.88709474  1
  O  O185  1  0.88478352  0.87836711  0.38126680  1
  O  O186  1  0.88287726  0.88109721  0.87868212  1
  O  O187  1  0.26205812  0.00058863  0.37325322  1
  O  O188  1  0.26142991  0.01334322  0.88115380  1
  O  O189  1  0.24689169  0.50080829  0.36731439  1
  O  O190  1  0.26411774  0.49574355  0.87078576  1
  O  O191  1  0.76005289  -0.01377385  0.36653299  1
  O  O192  1  0.76032681  -0.01196028  0.86389152  1
  O  O193  1  0.74835128  0.50305093  0.39620474  1
  O  O194  1  0.75023966  0.51375349  0.86600371  1
  O  O195  1  0.24438326  0.49619080  0.13082016  1
  O  O196  1  0.24033849  0.48936486  0.62237994  1
  O  O197  1  0.25475736  1.00627747  0.13014737  1
  O  O198  1  0.24438741  0.99078053  0.62018512  1
  O  O199  1  0.73427613  0.49199093  0.12125734  1
  O  O200  1  0.75416121  0.49010518  0.62978795  1
  O  O201  1  0.75328303  0.98548343  0.13572463  1
  O  O202  1  0.74644602  0.98773683  0.63420368  1
  O  O203  1  -0.00106539  0.36736444  0.25552549  1
  O  O204  1  -0.01133315  0.36369129  0.75934947  1
  O  O205  1  0.01472921  0.88153126  0.25924315  1
  O  O206  1  0.01133936  0.88293322  0.76393781  1
  O  O207  1  0.50010515  0.36799016  0.24671624  1
  O  O208  1  0.50159377  0.37226563  0.75690066  1
  O  O209  1  0.49723165  0.86839486  0.25560164  1
  O  O210  1  0.50703331  0.86866503  0.75479322  1
  O  O211  1  0.49327882  0.12904054  0.23758635  1
  O  O212  1  0.49134795  0.13040566  0.74320437  1
  O  O213  1  0.49140751  0.62811225  0.24325358  1
  O  O214  1  0.50551023  0.64004247  0.74442893  1
  O  O215  1  0.99722303  0.13118812  0.24302696  1
  O  O216  1  0.99631596  0.13444015  0.74552794  1
  O  O217  1  0.99551454  0.61917171  0.23380650  1
  O  O218  1  0.98836968  0.62849499  0.76015643  1
  O  O219  1  0.36590516  0.26493882  -0.00580959  1
  O  O220  1  0.36177344  0.23814446  0.51071720  1
  O  O221  1  0.37708376  0.76926525  -0.00248032  1
  O  O222  1  0.36830612  0.75700951  0.50926979  1
  O  O223  1  0.88159044  0.26551748  0.01867517  1
  O  O224  1  0.86974651  0.25342483  0.50348316  1
  O  O225  1  0.86446438  0.75325115  0.01033074  1
  O  O226  1  0.86770132  0.76252297  0.49243037  1
  O  O227  1  0.13982067  0.23892867  0.50647469  1
  O  O228  1  0.13684043  0.25513327  0.98977947  1
  O  O229  1  0.13878583  0.76005737  0.48643984  1
  O  O230  1  0.12399059  0.74252538  0.99390114  1
  O  O231  1  0.63228760  0.23866450  0.49464633  1
  O  O232  1  0.62430099  0.24758041  0.98203767  1
  O  O233  1  0.63523146  0.75656483  0.49269929  1
  O  O234  1  0.63686183  0.74989575  1.00675929  1
  O  O235  1  0.49816673  0.24039312  0.12139864  1
  O  O236  1  0.49329855  0.24517675  0.62626416  1
  O  O237  1  0.49646989  0.73991429  0.13083581  1
  O  O238  1  0.49189235  0.74796532  0.63087720  1
  O  O239  1  0.99122535  0.24680167  0.13341467  1
  O  O240  1  0.99765778  0.24677839  0.63190953  1
  O  O241  1  0.98550497  0.73822492  0.11547471  1
  O  O242  1  1.05893886  0.73413003  0.63759835  1
  O  O243  1  -0.00964484  0.25781601  0.36273775  1
  O  O244  1  0.01041803  0.25776682  0.86647889  1
  O  O245  1  0.01009770  0.76252642  0.38079714  1
  O  O246  1  0.00662620  0.76583579  0.88828313  1
  O  O247  1  0.51342194  0.24382278  0.37570110  1
  O  O248  1  0.50368062  0.26104821  0.86812330  1
  O  O249  1  0.50423911  0.75492283  0.37258618  1
  O  O250  1  0.49165204  0.76236658  0.86497547  1
  O  O251  1  0.24342530  0.13447090  0.49630046  1
  O  O252  1  0.26243950  0.13969267  0.98661276  1
  O  O253  1  0.25752992  0.63936592  0.50021798  1
  O  O254  1  0.23404564  0.61644563  0.99476211  1
  O  O255  1  0.74241017  0.13102262  0.51038632  1
  O  O256  1  0.77380440  0.12992333  1.00282509  1
  O  O257  1  0.76009393  0.64207019  0.51388747  1
  O  O258  1  0.75659207  0.62960038  0.98514975  1
  O  O259  1  0.25624225  0.37068107  0.00125160  1
  O  O260  1  0.24697831  0.35888607  0.50710433  1
  O  O261  1  0.26747604  0.88233153  -0.00283262  1
  O  O262  1  0.25542888  0.86856144  0.51040233  1
  O  O263  1  0.76278812  0.38413037  0.00140145  1
  O  O264  1  0.75883436  0.36134639  0.50866484  1
  O  O265  1  0.75420000  0.86654040  0.00801243  1
  O  O266  1  0.75850088  0.86819408  0.50966549  1
  O  O267  1  0.13475065  0.49979588  0.24409235  1
  O  O268  1  0.11762976  0.49492710  0.73508962  1
  O  O269  1  0.13543467  0.98738351  0.25282780  1
  O  O270  1  0.12427431  0.99441911  0.74263487  1
  O  O271  1  0.61840014  0.49693455  0.23842304  1
  O  O272  1  0.64204561  0.49733247  0.74276867  1
  O  O273  1  0.63478848  0.99669442  0.24769675  1
  O  O274  1  0.63211342  0.99197946  0.74615167  1
  O  O275  1  0.36673222  0.00736830  0.25484525  1
  O  O276  1  0.37973126  0.01101234  0.75724957  1
  O  O277  1  0.36249648  0.50617051  0.24805577  1
  O  O278  1  0.37674562  0.50017298  0.76280330  1
  O  O279  1  0.86811248  -0.00422957  0.26067143  1
  O  O280  1  0.86929109  0.00096956  0.75633307  1
  O  O281  1  0.87264693  0.51324327  0.24726610  1
  O  O282  1  0.86647778  0.50559581  0.74639642  1
  O  O283  1  0.10844699  0.37506747  0.37254306  1
  O  O284  1  0.11448639  0.36489444  0.87832771  1
  O  O285  1  0.11906011  0.86949879  0.37036603  1
  O  O286  1  0.11972861  0.87519940  0.87356255  1
  O  O287  1  0.61571756  0.35427516  0.38206074  1
  O  O288  1  0.61587656  0.36797986  0.87370198  1
  O  O289  1  0.61502772  0.86582610  0.37436729  1
  O  O290  1  0.61431347  0.88224416  0.86545101  1
  O  O291  1  0.38554290  0.12690208  0.13154709  1
  O  O292  1  0.37849189  0.13153018  0.63154850  1
  O  O293  1  0.38751808  0.61901641  0.13585521  1
  O  O294  1  0.38346530  0.63941329  0.62600389  1
  O  O295  1  0.88217263  0.13819861  0.13277970  1
  O  O296  1  0.88318756  0.12661595  0.62989845  1
  O  O297  1  0.87742204  0.62806871  0.13165157  1
  O  O298  1  0.88764165  0.62520120  0.64347499  1
  O  O299  1  0.25200622  0.25551327  0.11347163  1
  O  O300  1  0.25715153  0.25613872  0.61928567  1
  O  O301  1  0.25953205  0.73834399  0.11582271  1
  O  O302  1  0.25471519  0.76009278  0.61910692  1
  O  O303  1  0.75566559  0.26653422  0.13209741  1
  O  O304  1  0.75677700  0.25426101  0.61871588  1
  O  O305  1  0.75456980  0.75426900  0.11849625  1
  O  O306  1  0.74451610  0.76396314  0.61950659  1
  O  O307  1  0.25505783  0.25008575  0.38804213  1
  O  O308  1  0.24391829  0.24837351  0.87818183  1
  O  O309  1  0.24509388  0.74835874  0.38323594  1
  O  O310  1  0.23967286  0.75357387  0.88644910  1
  O  O311  1  0.74085190  0.25271635  0.38890624  1
  O  O312  1  0.73652949  0.25500509  0.86657099  1
  O  O313  1  0.73990582  0.75816404  0.38683950  1
  O  O314  1  0.75296907  0.74126482  0.88413158  1
  O  O315  1  -0.01974962  0.11552660  0.00920355  1
  O  O316  1  0.01080949  0.12538739  0.50864993  1
  O  O317  1  0.00362086  0.61622787  0.00560365  1
  O  O318  1  -0.01483403  0.60839321  0.49786694  1
  O  O319  1  0.49076506  0.12558975  0.01131514  1
  O  O320  1  0.50822957  0.11805724  0.50527690  1
  O  O321  1  0.49140348  0.61622548  0.01009041  1
  O  O322  1  0.50030738  0.62224255  0.51173305  1
  O  O323  1  0.50424742  0.39194955  0.50995276  1
  O  O324  1  0.49330105  0.38245425  0.99055018  1
  O  O325  1  0.49389628  0.88074548  0.49615781  1
  O  O326  1  0.49459802  0.87759378  0.98889677  1
  O  O327  1  0.99142794  0.37353111  0.49096128  1
  O  O328  1  0.99307133  0.38255282  0.99557060  1
  O  O329  1  0.99389346  0.87600417  0.49514501  1
  O  O330  1  0.99340925  0.88481399  0.99430702  1
  O  O331  1  0.50347083  0.50039472  0.39215449  1
  O  O332  1  0.49406068  0.49646668  0.87741431  1
  O  O333  1  0.48949929  0.99540627  0.37753295  1
  O  O334  1  0.49071786  0.99148455  0.87215337  1
  O  O335  1  0.99098947  0.48964773  0.38037711  1
  O  O336  1  1.00833754  0.48767544  0.88529318  1
  O  O337  1  0.99237823  0.98763390  0.37867246  1
  O  O338  1  0.99122079  0.99333124  0.88169155  1
  O  O339  1  -0.01300363  0.00985149  0.11631984  1
  O  O340  1  0.01259491  0.00607208  0.62478785  1
  O  O341  1  0.00429269  0.50550071  0.11602402  1
  O  O342  1  0.00872745  0.48905375  0.61389891  1
  O  O343  1  0.50425508  0.01607363  0.12324911  1
  O  O344  1  0.50466396  0.00359197  0.61912643  1
  O  O345  1  0.50973314  0.50282711  0.11679083  1
  O  O346  1  0.50295958  0.51216337  0.61940255  1
  O  O347  1  0.24963354  0.38328246  0.24262160  1
  O  O348  1  0.25405462  0.37927871  0.73734977  1
  O  O349  1  0.23996664  0.88477209  0.24952032  1
  O  O350  1  0.24191356  0.87354528  0.74011271  1
  O  O351  1  0.75177134  0.37950165  0.24132258  1
  O  O352  1  0.75702077  0.38267538  0.74141599  1
  O  O353  1  0.74950758  0.87827115  0.24104376  1
  O  O354  1  0.74468679  0.88014644  0.74557460  1
  O  O355  1  0.25609047  0.11674562  0.24980521  1
  O  O356  1  0.26243657  0.13425222  0.75930219  1
  O  O357  1  0.25645871  0.61518057  0.25088111  1
  O  O358  1  0.23136397  0.62590202  0.74690650  1
  O  O359  1  0.75494816  0.10744800  0.24338850  1
  O  O360  1  0.75575776  0.10910407  0.74056360  1
  O  O361  1  0.75616896  0.62302221  0.24281254  1
  O  O362  1  0.76322246  0.62299902  0.75539392  1
  O  O363  1  0.37620274  0.11592209  0.36388229  1
  O  O364  1  0.37090790  0.12090721  0.86602531  1
  O  O365  1  0.37416721  0.61841717  0.36321391  1
  O  O366  1  0.37188741  0.61176442  0.88196761  1
  O  O367  1  0.88128346  0.10712944  0.37744018  1
  O  O368  1  0.87958024  0.10843300  0.86489576  1
  O  O369  1  0.87551512  0.62721846  0.35310921  1
  O  O370  1  0.86464283  0.63099170  0.86049486  1
  O  O371  1  0.13054378  0.38169905  0.12459205  1
  O  O372  1  0.13533053  0.38135946  0.61958857  1
  O  O373  1  0.11744286  0.86865732  0.13860279  1
  O  O374  1  0.13264845  0.88575760  0.63396682  1
  O  O375  1  0.63647247  0.38322247  0.12094211  1
  O  O376  1  0.64247919  0.37068563  0.62525597  1
  O  O377  1  0.63592885  0.87491336  0.12625017  1
  O  O378  1  0.63291160  0.88057881  0.63409895  1
  O  O379  1  0.11254189  0.25071437  0.24515277  1
  O  O380  1  0.11510257  0.24811549  0.75602653  1
  O  O381  1  0.13569036  0.76696562  0.26023586  1
  O  O382  1  0.12931377  0.76781853  0.77064138  1
  O  O383  1  0.62993737  0.23628256  0.26967557  1
  O  O384  1  0.61890703  0.25340140  0.75763937  1
  O  O385  1  0.61665182  0.75330922  0.25924038  1
  O  O386  1  0.61648903  0.76354478  0.74554400  1
  O  O387  1  0.37206502  0.23605263  0.24704347  1
  O  O388  1  0.38144643  0.24237687  0.74109663  1
  O  O389  1  0.37951064  0.74013095  0.25111740  1
  O  O390  1  0.38346203  0.75981243  0.74117372  1
  O  O391  1  0.88147534  0.25039682  0.24197699  1
  O  O392  1  0.88379700  0.24219030  0.74457750  1
  O  O393  1  0.86719103  0.73844883  0.23696338  1
  O  O394  1  0.87766563  0.74663337  0.74733838  1
  O  O395  1  0.39240589  0.50897164  0.50479737  1
  O  O396  1  0.38254589  0.49164678  0.99054359  1
  O  O397  1  0.37969563  0.99751404  0.49248732  1
  O  O398  1  0.38293733  0.99203525  0.98794161  1
  O  O399  1  0.88465755  0.48458992  0.50514781  1
  O  O400  1  0.88645726  0.49236120  1.00710276  1
  O  O401  1  0.87495948  0.98664491  0.49319698  1
  O  O402  1  0.87828887  0.98921980  0.99085471  1
  O  O403  1  0.10628122  0.00154752  -0.00524489  1
  O  O404  1  0.12633882  0.00738142  0.51254533  1
  O  O405  1  0.11528640  0.50632999  0.00381696  1
  O  O406  1  0.10932072  0.48964609  0.50233313  1
  O  O407  1  0.62645803  0.01124459  0.00283245  1
  O  O408  1  0.62224588  0.00315209  0.50441397  1
  O  O409  1  0.61176134  0.49573656  0.00133198  1
  O  O410  1  0.61519897  0.50411525  0.50500746  1
  O  O411  1  0.36817148  0.37651409  0.11129492  1
  O  O412  1  0.36894694  0.36291938  0.62772399  1
  O  O413  1  0.38586103  0.87949261  0.10887386  1
  O  O414  1  0.36827348  0.86953748  0.62186656  1
  O  O415  1  0.86118929  0.37359152  0.12181192  1
  O  O416  1  0.86876533  0.36625232  0.61604201  1
  O  O417  1  0.86752050  0.86493408  0.12284615  1
  O  O418  1  0.86888037  0.88085077  0.61680819  1
  O  O419  1  0.12382893  0.11421647  0.38834428  1
  O  O420  1  0.13760888  0.13630566  0.86854639  1
  O  O421  1  0.12195320  0.64110267  0.36557728  1
  O  O422  1  0.11895724  0.63654321  0.88422478  1
  O  O423  1  0.62147767  0.12772951  0.38953159  1
  O  O424  1  0.62127105  0.13918815  0.87308648  1
  O  O425  1  0.62039157  0.64130960  0.37324793  1
  O  O426  1  0.64513883  0.62841953  0.86443867  1
