# generated using pymatgen
data_V85Zn86O256
_symmetry_space_group_name_H-M   'P 1'
_cell_length_a   16.98205457
_cell_length_b   16.96779275
_cell_length_c   16.94799567
_cell_angle_alpha   89.94994156
_cell_angle_beta   89.76365159
_cell_angle_gamma   90.04573237
_symmetry_Int_Tables_number   1
_chemical_formula_structural   V85Zn86O256
_chemical_formula_sum   'V85 Zn86 O256'
_cell_volume   4883.48577474
_cell_formula_units_Z   1
loop_
 _symmetry_equiv_pos_site_id
 _symmetry_equiv_pos_as_xyz
  1  'x, y, z'
loop_
 _atom_site_type_symbol
 _atom_site_label
 _atom_site_symmetry_multiplicity
 _atom_site_fract_x
 _atom_site_fract_y
 _atom_site_fract_z
 _atom_site_occupancy
  V  V0  1  0.12260103  -0.00051694  0.12709640  1
  V  V1  1  0.38107473  0.74199258  0.14105136  1
  V  V2  1  0.12012283  0.25344922  0.87482584  1
  V  V3  1  0.74899003  0.50090330  0.24338043  1
  V  V4  1  0.61893301  0.00037431  0.62592760  1
  V  V5  1  0.87776461  0.50118824  0.37686167  1
  V  V6  1  0.75120380  0.25090956  -0.00292331  1
  V  V7  1  0.49933114  0.12381994  0.12462939  1
  V  V8  1  0.37552299  0.12612112  0.24954032  1
  V  V9  1  0.62090334  0.87105180  0.25014226  1
  V  V10  1  -0.00943959  0.87944741  0.88118326  1
  V  V11  1  0.12545492  0.12224685  -0.00446909  1
  V  V12  1  0.87687699  0.50112812  0.87467204  1
  V  V13  1  0.24594370  0.61872786  0.88580157  1
  V  V14  1  -0.00198890  0.12499506  0.12729144  1
  V  V15  1  0.12142466  0.00786909  0.62244722  1
  V  V16  1  0.74508091  0.62404528  0.38084336  1
  V  V17  1  0.00421891  0.36986944  0.37586185  1
  V  V18  1  0.36976045  0.49240044  0.86578190  1
  V  V19  1  0.62595999  0.37722831  0.24333358  1
  V  V20  1  0.86812555  0.25193743  0.62630552  1
  V  V21  1  0.12898153  0.50461414  0.12065878  1
  V  V22  1  0.36876599  0.62221840  0.75030550  1
  V  V23  1  0.75264655  0.75100649  0.50137539  1
  V  V24  1  0.62174108  0.74778039  0.38030709  1
  V  V25  1  0.37956287  0.23307990  0.61599933  1
  V  V26  1  0.00055498  0.74965799  0.25047618  1
  V  V27  1  0.25432018  0.50581944  0.24824249  1
  V  V28  1  0.74620698  0.49388724  0.74392158  1
  V  V29  1  0.12242452  0.87733970  0.25487652  1
  V  V30  1  0.87615579  0.75817320  0.12032479  1
  V  V31  1  0.50845257  0.62349418  0.62446189  1
  V  V32  1  0.37291025  0.00011048  0.37580603  1
  V  V33  1  0.12583675  0.37023764  0.25271310  1
  V  V34  1  0.13637714  0.50155245  0.64439690  1
  V  V35  1  0.01232087  0.51047874  0.50725494  1
  V  V36  1  0.37451173  0.38001392  0.50311872  1
  V  V37  1  0.62529887  0.12423221  -0.00157406  1
  V  V38  1  0.50168854  0.74808135  0.75585952  1
  V  V39  1  0.62584923  0.25025462  0.87098133  1
  V  V40  1  0.49791599  0.87148246  0.37458393  1
  V  V41  1  0.00878175  0.50425719  -0.00011269  1
  V  V42  1  0.75348291  0.87478125  0.62225932  1
  V  V43  1  0.25160705  0.74862034  0.00333575  1
  V  V44  1  0.25129565  0.37373327  0.11968043  1
  V  V45  1  0.50027220  0.25019100  0.24691855  1
  V  V46  1  -0.01323603  -0.00372409  -0.00025280  1
  V  V47  1  0.74905162  0.37866935  0.12145166  1
  V  V48  1  0.37490230  0.37270306  -0.00774119  1
  V  V49  1  0.00572614  0.62700221  0.11944110  1
  V  V50  1  0.87019521  -0.01028939  0.38300996  1
  V  V51  1  0.49318089  0.87318054  0.87650442  1
  V  V52  1  0.87587021  0.25088731  0.12481894  1
  V  V53  1  0.24695093  0.00225337  0.25207515  1
  V  V54  1  0.74534632  0.75420059  -0.00231458  1
  V  V55  1  0.24854516  0.62506521  0.37863490  1
  V  V56  1  0.87583570  0.62546804  0.25009234  1
  V  V57  1  0.37283808  0.87351455  0.50379206  1
  V  V58  1  0.37654428  0.50659268  0.37038047  1
  V  V59  1  0.74510415  0.00065428  0.24957430  1
  V  V60  1  0.61711611  0.12480553  0.50452405  1
  V  V61  1  0.24652013  0.74871212  0.50458445  1
  V  V62  1  0.24768178  0.24429495  -0.00359794  1
  V  V63  1  0.50085533  0.37421005  0.86568018  1
  V  V64  1  0.12344830  0.74605714  0.38103849  1
  V  V65  1  0.24248598  0.13772278  0.37886342  1
  V  V66  1  0.88162742  0.62686638  0.74498977  1
  V  V67  1  0.74809419  0.12886445  0.37842676  1
  V  V68  1  0.00648740  0.75331962  0.75157105  1
  V  V69  1  0.00215341  0.25657748  0.74341498  1
  V  V70  1  0.87641652  0.37662811  -0.00045631  1
  V  V71  1  0.75578313  0.11592632  0.87389026  1
  V  V72  1  0.62485871  0.86929484  0.75448429  1
  V  V73  1  0.87077204  0.37592493  0.50459557  1
  V  V74  1  0.87197364  0.12692625  0.25000479  1
  V  V75  1  0.88306066  0.75291200  0.62318408  1
  V  V76  1  0.49277019  -0.00566469  -0.00136635  1
  V  V77  1  0.62212110  -0.00213179  0.12532380  1
  V  V78  1  0.74499209  0.62838512  0.87603481  1
  V  V79  1  0.50684610  0.50996776  0.49681194  1
  V  V80  1  0.62338586  0.24959916  0.37357441  1
  V  V81  1  0.36751447  0.01215708  0.86835301  1
  V  V82  1  0.88095986  0.11627680  0.74715490  1
  V  V83  1  0.25615558  0.87554186  0.12138262  1
  V  V84  1  0.50068384  0.23337165  0.73852963  1
  Zn  Zn85  1  0.73997938  0.26039805  0.51094997  1
  Zn  Zn86  1  0.51322231  0.50215223  0.01133460  1
  Zn  Zn87  1  0.49399102  0.00313916  0.50631593  1
  Zn  Zn88  1  0.63781974  0.49808016  0.60910423  1
  Zn  Zn89  1  0.00239817  0.24947265  0.25225842  1
  Zn  Zn90  1  0.75379366  0.87800839  0.12023549  1
  Zn  Zn91  1  0.10173898  0.14731673  0.50779029  1
  Zn  Zn92  1  -0.00689071  -0.00003473  0.50879438  1
  Zn  Zn93  1  0.37454887  0.24763358  0.12160155  1
  Zn  Zn94  1  0.75432735  -0.00606867  0.75376635  1
  Zn  Zn95  1  0.50091825  0.37957470  0.37165685  1
  Zn  Zn96  1  0.13515220  0.88564665  0.75817419  1
  Zn  Zn97  1  0.62027757  0.62057117  0.01370557  1
  Zn  Zn98  1  0.37463591  0.74874682  0.62686269  1
  Zn  Zn99  1  -0.01134600  0.86748006  0.38735301  1
  Zn  Zn100  1  0.00467919  0.37968667  0.87314634  1
  Zn  Zn101  1  0.12536238  0.75009310  0.88495393  1
  Zn  Zn102  1  0.25182056  0.88130137  0.63780809  1
  Zn  Zn103  1  0.25308142  0.37507557  0.64666347  1
  Zn  Zn104  1  0.63260611  0.36906390  0.73192157  1
  Zn  Zn105  1  0.25198718  0.03135601  0.75003133  1
  Zn  Zn106  1  0.23612955  0.26068214  0.49869917  1
  Zn  Zn107  1  0.18680172  0.18581029  0.18650274  1
  Zn  Zn108  1  0.18533843  0.18822754  0.67798636  1
  Zn  Zn109  1  0.19018626  0.68986638  0.18915026  1
  Zn  Zn110  1  0.18487325  0.68283357  0.68580160  1
  Zn  Zn111  1  0.68704101  0.18872157  0.18519800  1
  Zn  Zn112  1  0.68995209  0.18339790  0.68962477  1
  Zn  Zn113  1  0.69098715  0.69298357  0.19195048  1
  Zn  Zn114  1  0.68956435  0.68351441  0.69006089  1
  Zn  Zn115  1  0.31690762  0.31786010  0.31090605  1
  Zn  Zn116  1  0.29348782  0.24616484  0.78920364  1
  Zn  Zn117  1  0.30955539  0.81330691  0.31279925  1
  Zn  Zn118  1  0.31407556  0.81092513  0.81607220  1
  Zn  Zn119  1  0.81424928  0.31459627  0.31431311  1
  Zn  Zn120  1  0.81615223  0.31126202  0.81291215  1
  Zn  Zn121  1  0.80678413  0.81035463  0.30708760  1
  Zn  Zn122  1  0.81440919  0.81267076  0.81243135  1
  Zn  Zn123  1  0.18740059  0.43642470  0.43872359  1
  Zn  Zn124  1  0.19657376  0.42310451  0.81283438  1
  Zn  Zn125  1  0.18726829  0.93821974  0.43996822  1
  Zn  Zn126  1  0.18442084  0.93401789  0.93620027  1
  Zn  Zn127  1  0.68713437  0.43661457  0.43091515  1
  Zn  Zn128  1  0.68396138  0.44173540  0.93477441  1
  Zn  Zn129  1  0.68622919  0.93728357  0.44062849  1
  Zn  Zn130  1  0.68259662  0.93546196  0.93778386  1
  Zn  Zn131  1  0.31243388  0.05976902  0.06191418  1
  Zn  Zn132  1  0.30271330  0.06036471  0.55881027  1
  Zn  Zn133  1  0.34740556  0.55092566  0.07445988  1
  Zn  Zn134  1  0.31342119  0.56269803  0.56497264  1
  Zn  Zn135  1  0.80941348  0.06349007  0.06406010  1
  Zn  Zn136  1  0.80631605  0.06619972  0.56632591  1
  Zn  Zn137  1  0.81655770  0.56888594  0.06002775  1
  Zn  Zn138  1  0.82069973  0.56607033  0.56202709  1
  Zn  Zn139  1  0.44088957  0.43701294  0.18375192  1
  Zn  Zn140  1  0.44262574  0.43615528  0.68457940  1
  Zn  Zn141  1  0.43585088  0.93493702  0.18972562  1
  Zn  Zn142  1  0.43416975  0.93896087  0.69174284  1
  Zn  Zn143  1  0.93785737  0.43848913  0.18734198  1
  Zn  Zn144  1  0.93998313  0.43814945  0.68472233  1
  Zn  Zn145  1  0.93741366  0.94027929  0.19446949  1
  Zn  Zn146  1  0.94373650  0.93311420  0.68826336  1
  Zn  Zn147  1  0.04405110  0.07826474  0.34037787  1
  Zn  Zn148  1  0.06179019  0.06280787  0.81067874  1
  Zn  Zn149  1  0.06443833  0.56011510  0.31166384  1
  Zn  Zn150  1  0.06451717  0.56750707  0.81246260  1
  Zn  Zn151  1  0.55925886  0.06019844  0.31591582  1
  Zn  Zn152  1  0.56559491  0.05701730  0.81382989  1
  Zn  Zn153  1  0.56383335  0.56695305  0.30208737  1
  Zn  Zn154  1  0.53994600  0.58626459  0.84983803  1
  Zn  Zn155  1  0.43677610  0.18906814  0.43313733  1
  Zn  Zn156  1  0.44036164  0.18778379  0.93456510  1
  Zn  Zn157  1  0.43409722  0.68747321  0.43662393  1
  Zn  Zn158  1  0.43140481  0.69033999  0.94895231  1
  Zn  Zn159  1  0.93394014  0.18742621  0.44133831  1
  Zn  Zn160  1  0.93861105  0.18444287  0.93519256  1
  Zn  Zn161  1  0.93578574  0.68692970  0.43966520  1
  Zn  Zn162  1  0.93311051  0.69108584  0.93652515  1
  Zn  Zn163  1  0.06259755  0.31545119  0.06218015  1
  Zn  Zn164  1  0.06338285  0.32618672  0.56814295  1
  Zn  Zn165  1  0.06841108  0.81256698  0.06074301  1
  Zn  Zn166  1  0.06508314  0.82828900  0.56469556  1
  Zn  Zn167  1  0.56260267  0.31233497  0.05915759  1
  Zn  Zn168  1  0.56036700  0.32063196  0.55908282  1
  Zn  Zn169  1  0.56111734  0.80809559  0.06253809  1
  Zn  Zn170  1  0.56272486  0.81052859  0.56419588  1
  O  O171  1  0.11653880  0.11943437  0.11923728  1
  O  O172  1  0.12375662  0.11473558  0.61862722  1
  O  O173  1  0.11275290  0.62106167  0.13318974  1
  O  O174  1  0.12494014  0.60254180  0.63286419  1
  O  O175  1  0.61956644  0.11826484  0.11934711  1
  O  O176  1  0.63538200  0.11353751  0.61523058  1
  O  O177  1  0.60680655  0.62384954  0.15082748  1
  O  O178  1  0.61282490  0.61790734  0.63252790  1
  O  O179  1  0.37934687  0.38939591  0.37996565  1
  O  O180  1  0.38329583  0.37593666  0.87785722  1
  O  O181  1  0.38019235  0.87821262  0.38220298  1
  O  O182  1  0.38987482  0.88602075  0.87292041  1
  O  O183  1  0.88361525  0.38213161  0.38086562  1
  O  O184  1  0.87665338  0.38757575  0.88052280  1
  O  O185  1  0.86129230  0.88697404  0.37389051  1
  O  O186  1  0.89093368  0.87333013  0.87304655  1
  O  O187  1  0.25454136  0.00922092  0.37062172  1
  O  O188  1  0.26647116  -0.00335568  0.88199365  1
  O  O189  1  0.25510573  0.50746671  0.36905029  1
  O  O190  1  0.25570059  0.51171666  0.86636517  1
  O  O191  1  0.75257389  0.00870248  0.37131564  1
  O  O192  1  0.74519724  0.01127292  0.87537448  1
  O  O193  1  0.75609828  0.50791171  0.36667460  1
  O  O194  1  0.76225816  0.50785208  0.86639977  1
  O  O195  1  0.25053606  0.49213307  0.13034694  1
  O  O196  1  0.24184684  0.49917776  0.62811306  1
  O  O197  1  0.24326355  0.99411503  0.13087603  1
  O  O198  1  0.24119299  1.00238448  0.63238348  1
  O  O199  1  0.76029617  0.49770144  0.13693451  1
  O  O200  1  0.75454861  0.51138419  0.63971601  1
  O  O201  1  0.74046401  0.99781116  0.12951063  1
  O  O202  1  0.74215434  0.98851199  0.62675762  1
  O  O203  1  0.00883889  0.37852685  0.25676210  1
  O  O204  1  -0.00771039  0.36025061  0.75462404  1
  O  O205  1  0.00909708  0.86803745  0.25383742  1
  O  O206  1  0.00339137  0.86843477  0.76436639  1
  O  O207  1  0.51000156  0.37188789  0.24730348  1
  O  O208  1  0.50412383  0.36594843  0.75584035  1
  O  O209  1  0.50882670  0.88041891  0.26329245  1
  O  O210  1  0.50561349  0.86686532  0.75499765  1
  O  O211  1  0.49579992  0.12854140  0.24489588  1
  O  O212  1  0.50943111  0.13523881  0.74881845  1
  O  O213  1  0.54139393  0.61977190  0.19845314  1
  O  O214  1  0.49266420  0.63181237  0.74954992  1
  O  O215  1  0.99130247  0.12802146  0.24681540  1
  O  O216  1  0.98396707  0.13502966  0.75801611  1
  O  O217  1  0.99541307  0.62943005  0.24257460  1
  O  O218  1  0.98836996  0.63696584  0.75949891  1
  O  O219  1  0.36596421  0.25442488  -0.00264684  1
  O  O220  1  0.38868187  0.26274308  0.50829211  1
  O  O221  1  0.35880828  0.74941336  0.01322545  1
  O  O222  1  0.36488655  0.75789211  0.49986006  1
  O  O223  1  0.87077119  0.25535142  0.00370578  1
  O  O224  1  0.87472662  0.25707631  0.51014742  1
  O  O225  1  0.86295974  0.74517500  0.01212433  1
  O  O226  1  0.86421908  0.74608829  0.51005308  1
  O  O227  1  0.12418109  0.25593389  0.50630866  1
  O  O228  1  0.12680384  0.24189695  0.99630657  1
  O  O229  1  0.13352744  0.75968762  0.48948103  1
  O  O230  1  0.14282494  0.74613358  1.00434876  1
  O  O231  1  0.62358824  0.24352312  0.49328266  1
  O  O232  1  0.63099671  0.24373512  0.99232434  1
  O  O233  1  0.63665311  0.75319675  0.49026293  1
  O  O234  1  0.64161788  0.73817055  1.01393809  1
  O  O235  1  0.49963017  0.24164111  0.12885397  1
  O  O236  1  0.49668884  0.25115981  0.63130016  1
  O  O237  1  0.47908329  0.75448984  0.11684129  1
  O  O238  1  0.49896046  0.74102791  0.63408559  1
  O  O239  1  0.99280831  0.24415976  0.12516554  1
  O  O240  1  0.99145770  0.25317546  0.63880379  1
  O  O241  1  0.99589033  0.74485053  0.12826545  1
  O  O242  1  0.98961727  0.76425963  0.63521110  1
  O  O243  1  -0.00741438  0.26623665  0.37267011  1
  O  O244  1  0.00338578  0.25294874  0.86776061  1
  O  O245  1  0.00639898  0.74909830  0.37076364  1
  O  O246  1  0.00117190  0.75910856  0.87148807  1
  O  O247  1  0.50670995  0.25297375  0.36423431  1
  O  O248  1  0.50408901  0.25337003  0.85976757  1
  O  O249  1  0.50929358  0.75834366  0.38229630  1
  O  O250  1  0.49207026  0.75855807  0.86503432  1
  O  O251  1  0.24884950  0.13045473  0.48319452  1
  O  O252  1  0.23618857  0.13272803  1.01285474  1
  O  O253  1  0.25459285  0.63477886  0.48912456  1
  O  O254  1  0.25729889  0.62556875  0.98734235  1
  O  O255  1  0.73929703  0.12978261  0.49084208  1
  O  O256  1  0.74598773  0.13028289  0.99275711  1
  O  O257  1  0.75382366  0.63180144  0.48868458  1
  O  O258  1  0.74906035  0.63271686  0.99276601  1
  O  O259  1  0.25706620  0.36164105  0.00916438  1
  O  O260  1  0.26713909  0.37549356  0.49275884  1
  O  O261  1  0.24262870  0.86823668  0.01463041  1
  O  O262  1  0.25991635  0.86517636  0.49800119  1
  O  O263  1  0.75628602  0.37078130  0.00199438  1
  O  O264  1  0.76545786  0.37501736  0.48928208  1
  O  O265  1  0.74200286  0.85949614  0.00070207  1
  O  O266  1  0.74564514  0.86465969  0.51138035  1
  O  O267  1  0.13552120  0.49181313  0.24200112  1
  O  O268  1  0.12319045  0.49169858  0.74941047  1
  O  O269  1  0.12705110  0.99146962  0.24716649  1
  O  O270  1  0.13125151  1.00743086  0.74098987  1
  O  O271  1  0.63878504  0.48780780  0.25663227  1
  O  O272  1  0.64660384  0.49939601  0.75403782  1
  O  O273  1  0.62629581  0.99249075  0.24643277  1
  O  O274  1  0.62811336  0.98930108  0.74166846  1
  O  O275  1  0.36792576  0.00541800  0.25608203  1
  O  O276  1  0.37397206  0.00281030  0.76404087  1
  O  O277  1  0.36330969  0.49149553  0.25921916  1
  O  O278  1  0.38082618  0.50784533  0.75645742  1
  O  O279  1  0.86238175  0.00705310  0.25653776  1
  O  O280  1  0.87622272  0.01310038  0.74372253  1
  O  O281  1  0.86812243  0.50456710  0.25634783  1
  O  O282  1  0.87538336  0.50812057  0.75588740  1
  O  O283  1  0.11731920  0.38317419  0.36301644  1
  O  O284  1  0.12175428  0.35792850  0.87686449  1
  O  O285  1  0.12800719  0.86610843  0.36582521  1
  O  O286  1  0.11434377  0.86844364  0.87368623  1
  O  O287  1  0.62428471  0.36774174  0.36127106  1
  O  O288  1  0.61589185  0.36710340  0.87267768  1
  O  O289  1  0.61714907  0.86977342  0.37182297  1
  O  O290  1  0.61377384  0.88167562  0.86080290  1
  O  O291  1  0.38123337  0.12479307  0.13107256  1
  O  O292  1  0.38131766  0.13523214  0.60469043  1
  O  O293  1  0.35794281  0.64453112  0.13454978  1
  O  O294  1  0.38500803  0.62479932  0.63543092  1
  O  O295  1  0.87795901  0.13060307  0.13070341  1
  O  O296  1  0.87025004  0.13370178  0.63835283  1
  O  O297  1  0.88575294  0.63414933  0.13148330  1
  O  O298  1  0.87405566  0.63950208  0.63464404  1
  O  O299  1  0.24864808  0.25787915  0.11748418  1
  O  O300  1  0.27210758  0.25165870  0.61637152  1
  O  O301  1  0.25429380  0.75970917  0.12475131  1
  O  O302  1  0.24983377  0.74783022  0.61265471  1
  O  O303  1  0.75565500  0.25593438  0.11671210  1
  O  O304  1  0.76253268  0.25018571  0.62736590  1
  O  O305  1  0.75942493  0.74964753  0.11741888  1
  O  O306  1  0.75554144  0.75456147  0.61915905  1
  O  O307  1  0.25812027  0.24077677  0.37483604  1
  O  O308  1  0.23696827  0.24707880  0.89222901  1
  O  O309  1  0.24293903  0.74308502  0.38101153  1
  O  O310  1  0.25593462  0.73722662  0.88634059  1
  O  O311  1  0.74339512  0.24074147  0.37407962  1
  O  O312  1  0.74577708  0.24237341  0.87845074  1
  O  O313  1  0.74503217  0.74348793  0.38275593  1
  O  O314  1  0.76072828  0.74400091  0.89036989  1
  O  O315  1  0.00524879  0.11648135  0.00668155  1
  O  O316  1  0.00938636  0.10574107  0.45917515  1
  O  O317  1  -0.00816459  0.61905432  0.01083804  1
  O  O318  1  -0.00618382  0.60858300  0.49784377  1
  O  O319  1  0.50663622  0.11689283  0.00397488  1
  O  O320  1  0.51352288  0.12211613  0.49177715  1
  O  O321  1  0.51328785  0.61575698  -0.03720180  1
  O  O322  1  0.49252686  0.62039739  0.51097325  1
  O  O323  1  0.49111778  0.39110096  0.49230325  1
  O  O324  1  0.48851521  0.36724981  0.98798893  1
  O  O325  1  0.49015736  0.87378332  0.49242895  1
  O  O326  1  0.51241494  0.88514007  0.98848730  1
  O  O327  1  0.99129099  0.38622195  0.49161160  1
  O  O328  1  0.99314089  0.38673218  1.00004456  1
  O  O329  1  0.99849407  0.88634624  0.49660733  1
  O  O330  1  1.00455283  0.88079266  0.99094597  1
  O  O331  1  0.49116302  0.51111015  0.37496680  1
  O  O332  1  0.48823917  0.48410295  0.87260065  1
  O  O333  1  0.49204520  0.98882120  0.38003183  1
  O  O334  1  0.49298359  0.99491477  0.88105470  1
  O  O335  1  0.99644621  0.49398899  0.38238976  1
  O  O336  1  0.99228849  0.50334821  0.88171431  1
  O  O337  1  0.97320479  0.98944663  0.36139227  1
  O  O338  1  1.00489098  0.98762750  0.88404004  1
  O  O339  1  0.00356083  0.00389834  0.12023155  1
  O  O340  1  0.01480545  -0.00184446  0.62722022  1
  O  O341  1  0.00419593  0.50888323  0.11924457  1
  O  O342  1  0.01253303  0.49297636  0.61325846  1
  O  O343  1  0.50247651  0.00249729  0.11794165  1
  O  O344  1  0.51426371  -0.00845145  0.62466560  1
  O  O345  1  0.45322133  0.51133254  0.10460086  1
  O  O346  1  0.50002322  0.50917337  0.61251220  1
  O  O347  1  0.24495147  0.38195530  0.24122343  1
  O  O348  1  0.26112617  0.35168511  0.75764881  1
  O  O349  1  0.23958604  0.88181704  0.24561346  1
  O  O350  1  0.25109772  0.87701956  0.75286223  1
  O  O351  1  0.74586649  0.38194610  0.24378802  1
  O  O352  1  0.75573621  0.39005932  0.75363342  1
  O  O353  1  0.73622376  0.88210509  0.24839298  1
  O  O354  1  0.74150843  0.87204951  0.74423060  1
  O  O355  1  0.25608554  0.12195251  0.25585112  1
  O  O356  1  0.25228799  0.14533881  0.75523322  1
  O  O357  1  0.24323411  0.61243373  0.26021462  1
  O  O358  1  0.26536958  0.63780489  0.75939274  1
  O  O359  1  0.74995207  0.12074527  0.25822899  1
  O  O360  1  0.76097823  0.12150426  0.75802112  1
  O  O361  1  0.75568416  0.61855281  0.25807632  1
  O  O362  1  0.76501590  0.62132740  0.75647362  1
  O  O363  1  0.36745803  0.11973261  0.36902521  1
  O  O364  1  0.37795347  0.11199668  0.87844655  1
  O  O365  1  0.36374587  0.61666635  0.37490678  1
  O  O366  1  0.36811074  0.61263049  0.86877421  1
  O  O367  1  0.86162446  0.11910174  0.36951045  1
  O  O368  1  0.86539789  0.13030917  0.86233586  1
  O  O369  1  0.86504914  0.62198892  0.36944080  1
  O  O370  1  0.86878532  0.61759271  0.86837877  1
  O  O371  1  0.13446706  0.38378441  0.12848448  1
  O  O372  1  0.13555539  0.39330841  0.62253755  1
  O  O373  1  0.13057793  0.87927272  0.13714757  1
  O  O374  1  0.13166616  0.88985946  0.63479786  1
  O  O375  1  0.63249603  0.36861890  0.13493858  1
  O  O376  1  0.62684233  0.38556906  0.62047569  1
  O  O377  1  0.62197414  0.87893813  0.13630260  1
  O  O378  1  0.63327226  0.87939351  0.63257803  1
  O  O379  1  0.12293433  0.26631091  0.24120874  1
  O  O380  1  0.10578986  0.24056587  0.75676521  1
  O  O381  1  0.12095230  0.75803628  0.25924158  1
  O  O382  1  0.11044194  0.74596084  0.74912092  1
  O  O383  1  0.62072551  0.25733357  0.25316069  1
  O  O384  1  0.61728788  0.25107429  0.75054418  1
  O  O385  1  0.63308748  0.76299585  0.26571154  1
  O  O386  1  0.61517417  0.75885013  0.74386767  1
  O  O387  1  0.38307129  0.24557565  0.24634788  1
  O  O388  1  0.39361498  0.24453125  0.72945770  1
  O  O389  1  0.37541556  0.75708615  0.24230892  1
  O  O390  1  0.38666463  0.74214409  0.74833800  1
  O  O391  1  0.87427473  0.24513907  0.24260648  1
  O  O392  1  0.88224116  0.24334787  0.74418978  1
  O  O393  1  0.87968897  0.74456821  0.24360533  1
  O  O394  1  0.88277905  0.74481824  0.74384301  1
  O  O395  1  0.38218566  0.49822601  0.48977229  1
  O  O396  1  0.36282768  0.48191789  0.97957410  1
  O  O397  1  0.37328691  0.98935767  0.49489070  1
  O  O398  1  0.38799442  1.00214569  0.99359793  1
  O  O399  1  0.88351098  0.49352598  0.49732177  1
  O  O400  1  0.88196104  0.49784440  0.99158115  1
  O  O401  1  0.86831647  1.00751733  0.48502061  1
  O  O402  1  0.88744752  1.00293345  1.00601067  1
  O  O403  1  0.11781261  0.00725552  0.00716091  1
  O  O404  1  0.12980944  0.00005644  0.51581125  1
  O  O405  1  0.10978865  0.50012882  0.00497796  1
  O  O406  1  0.11411750  0.50164002  0.49769892  1
  O  O407  1  0.61597713  0.00542992  0.00519204  1
  O  O408  1  0.62343977  0.00686661  0.50813491  1
  O  O409  1  0.62699036  0.50512185  0.00628171  1
  O  O410  1  0.61130382  0.50101122  0.48912200  1
  O  O411  1  0.36430201  0.37017176  0.11496632  1
  O  O412  1  0.37554860  0.37521460  0.61280830  1
  O  O413  1  0.36038556  0.87089583  0.13224383  1
  O  O414  1  0.37452943  0.87309480  0.61410252  1
  O  O415  1  0.86910298  0.37148075  0.11935750  1
  O  O416  1  0.88078240  0.36724561  0.61393642  1
  O  O417  1  0.87368107  0.86256734  0.13451588  1
  O  O418  1  0.86204742  0.86623966  0.63562909  1
  O  O419  1  0.14330244  0.12698614  0.36536304  1
  O  O420  1  0.11487441  0.13322694  0.89017401  1
  O  O421  1  0.13310953  0.63678222  0.36996442  1
  O  O422  1  0.14342040  0.62853626  0.86963488  1
  O  O423  1  0.63153591  0.12784251  0.38105095  1
  O  O424  1  0.63425387  0.13004502  0.87826794  1
  O  O425  1  0.63512922  0.63551114  0.36572854  1
  O  O426  1  0.64642329  0.62674279  0.86175980  1
