# generated using pymatgen
data_V85Zn86O256
_symmetry_space_group_name_H-M   'P 1'
_cell_length_a   16.98953496
_cell_length_b   16.99369393
_cell_length_c   17.00144175
_cell_angle_alpha   90.04563902
_cell_angle_beta   89.94379373
_cell_angle_gamma   89.98351969
_symmetry_Int_Tables_number   1
_chemical_formula_structural   V85Zn86O256
_chemical_formula_sum   'V85 Zn86 O256'
_cell_volume   4908.56640310
_cell_formula_units_Z   1
loop_
 _symmetry_equiv_pos_site_id
 _symmetry_equiv_pos_as_xyz
  1  'x, y, z'
loop_
 _atom_site_type_symbol
 _atom_site_label
 _atom_site_symmetry_multiplicity
 _atom_site_fract_x
 _atom_site_fract_y
 _atom_site_fract_z
 _atom_site_occupancy
  V  V0  1  0.37727843  0.12475936  0.25042370  1
  V  V1  1  0.37512630  0.25401472  0.62741239  1
  V  V2  1  0.75599823  0.00076401  0.75359295  1
  V  V3  1  0.11978409  0.50362862  0.11405291  1
  V  V4  1  0.13080513  0.12704779  -0.00084630  1
  V  V5  1  0.12393368  -0.00054933  0.12677672  1
  V  V6  1  0.87422893  0.75129533  0.12391142  1
  V  V7  1  0.00591932  0.25224572  0.75357468  1
  V  V8  1  -0.00092026  0.74986829  0.25089126  1
  V  V9  1  0.74799718  0.00231685  0.24856542  1
  V  V10  1  0.87577751  0.88105081  -0.00298278  1
  V  V11  1  0.49856050  0.50212118  0.00381131  1
  V  V12  1  0.24504610  0.37476621  0.62769875  1
  V  V13  1  -0.00327411  0.12816075  0.13187313  1
  V  V14  1  0.12509605  0.25087668  0.37387653  1
  V  V15  1  0.75559923  0.38002395  0.64154789  1
  V  V16  1  0.12599533  0.12170478  0.50238505  1
  V  V17  1  -0.00381310  0.00321864  -0.00237925  1
  V  V18  1  0.24983534  0.25061003  0.50136089  1
  V  V19  1  0.51240776  0.00838136  -0.01012189  1
  V  V20  1  0.37181198  0.25345264  0.12699152  1
  V  V21  1  0.74880763  0.50688354  0.25411118  1
  V  V22  1  0.87238940  0.24529536  0.62257588  1
  V  V23  1  0.62942341  0.37882175  0.24916810  1
  V  V24  1  0.62454119  0.74837676  0.36762972  1
  V  V25  1  0.37990874  0.75390827  0.12930713  1
  V  V26  1  0.50210878  0.37776903  0.87613205  1
  V  V27  1  0.00378996  -0.00200732  0.49909043  1
  V  V28  1  0.50110937  -0.00240674  0.49498527  1
  V  V29  1  0.37582608  0.62878371  0.25042025  1
  V  V30  1  0.24550976  0.88710151  0.62416927  1
  V  V31  1  0.50543079  0.25446627  0.75303973  1
  V  V32  1  0.50145953  0.24830725  0.24990058  1
  V  V33  1  0.12006819  0.62371980  0.49963531  1
  V  V34  1  0.87037079  0.50477128  0.37356740  1
  V  V35  1  0.25061760  0.87311198  0.12581011  1
  V  V36  1  -0.00317096  0.88188987  0.87227079  1
  V  V37  1  0.87936217  0.12156633  0.76073916  1
  V  V38  1  0.87166145  0.61731685  0.75158703  1
  V  V39  1  0.50453380  0.13147083  0.62543808  1
  V  V40  1  0.75776250  0.12868420  0.37284204  1
  V  V41  1  0.75298174  0.74722562  0.49417113  1
  V  V42  1  -0.01088440  0.62689779  0.62626011  1
  V  V43  1  0.87011729  0.24690818  0.12892644  1
  V  V44  1  0.00032119  0.37452821  0.37575872  1
  V  V45  1  0.87185039  0.38208616  0.00532277  1
  V  V46  1  0.12395739  0.88305860  0.74190407  1
  V  V47  1  0.50003551  0.62899144  0.13083966  1
  V  V48  1  0.37918041  0.73973451  0.62150805  1
  V  V49  1  0.24497124  0.74765767  0.50173651  1
  V  V50  1  0.36676455  0.11529808  0.75163695  1
  V  V51  1  0.74993708  0.61979800  0.87374973  1
  V  V52  1  0.74329549  0.12716098  0.88316988  1
  V  V53  1  0.49765018  0.37585043  0.37863283  1
  V  V54  1  0.24450183  0.62549440  0.88052372  1
  V  V55  1  0.25304420  0.12390738  0.37518813  1
  V  V56  1  0.00185958  0.62459702  0.10997296  1
  V  V57  1  0.74398360  0.88105209  0.12603894  1
  V  V58  1  0.12173234  0.49511279  0.62912007  1
  V  V59  1  0.37622054  0.88004685  -0.01648593  1
  V  V60  1  0.87816905  0.87598912  0.49920865  1
  V  V61  1  0.62813466  -0.00010005  0.62469157  1
  V  V62  1  0.11852833  0.75120784  0.37476356  1
  V  V63  1  0.87819667  0.00089216  0.37125468  1
  V  V64  1  0.63196717  0.25288782  0.38311121  1
  V  V65  1  -0.00482827  0.49910139  0.50072811  1
  V  V66  1  0.75562080  0.87133074  0.62487838  1
  V  V67  1  0.37286353  0.50302444  0.87764153  1
  V  V68  1  0.24638421  0.49609644  0.75093316  1
  V  V69  1  0.63456838  0.13151640  0.50021875  1
  V  V70  1  0.24796610  0.49638531  0.24394911  1
  V  V71  1  0.61726611  0.75499524  0.87300270  1
  V  V72  1  0.62939282  0.49894047  0.12986691  1
  V  V73  1  0.00533047  0.11932170  0.62853883  1
  V  V74  1  0.00662898  0.37854790  0.87966661  1
  V  V75  1  0.36948777  0.37636617  0.00754161  1
  V  V76  1  0.37403937  0.37735728  0.50065398  1
  V  V77  1  -0.00705301  0.74948970  0.74571313  1
  V  V78  1  0.25249689  0.24639170  -0.00384797  1
  V  V79  1  0.62553888  0.62722941  0.00191862  1
  V  V80  1  0.12040900  0.87370385  0.25223960  1
  V  V81  1  0.12495026  0.37636370  0.24565876  1
  V  V82  1  0.12285011  0.74607830  0.87785732  1
  V  V83  1  0.37371639  0.49937537  0.37719685  1
  V  V84  1  0.86728045  0.36839688  0.49963778  1
  Zn  Zn85  1  0.30514624  0.05319657  0.90593089  1
  Zn  Zn86  1  0.37536191  0.87276349  0.49784057  1
  Zn  Zn87  1  0.87657094  0.49953287  0.88014561  1
  Zn  Zn88  1  0.37877816  0.62361138  0.74831866  1
  Zn  Zn89  1  0.24672199  0.62388625  0.37302483  1
  Zn  Zn90  1  0.61794762  0.87684447  0.24565218  1
  Zn  Zn91  1  0.25051288  -0.00126444  0.25279938  1
  Zn  Zn92  1  0.74369696  0.25449787  0.01041955  1
  Zn  Zn93  1  0.74849507  0.75311444  -0.00034186  1
  Zn  Zn94  1  0.87319249  0.62663693  0.25067132  1
  Zn  Zn95  1  0.64343215  0.39167927  0.76254521  1
  Zn  Zn96  1  0.50336290  0.74791544  0.74089002  1
  Zn  Zn97  1  0.49496828  0.86498612  0.35787144  1
  Zn  Zn98  1  0.60284130  0.52140177  0.63278870  1
  Zn  Zn99  1  0.61632440  0.88156658  0.75834868  1
  Zn  Zn100  1  0.37851186  -0.00438718  0.37191644  1
  Zn  Zn101  1  0.24756730  0.74586591  0.00086388  1
  Zn  Zn102  1  0.62035151  0.24570582  0.89078649  1
  Zn  Zn103  1  -0.00331802  0.24650292  0.25191185  1
  Zn  Zn104  1  0.13363540  0.25158431  0.86718074  1
  Zn  Zn105  1  0.60918111  0.62226138  0.50535168  1
  Zn  Zn106  1  0.51605579  0.12449977  0.11391421  1
  Zn  Zn107  1  0.18853622  0.18982008  0.18524875  1
  Zn  Zn108  1  0.18726535  0.18513669  0.68626991  1
  Zn  Zn109  1  0.18835733  0.68408466  0.18547657  1
  Zn  Zn110  1  0.18405437  0.68509032  0.69039964  1
  Zn  Zn111  1  0.69022929  0.19149808  0.19666708  1
  Zn  Zn112  1  0.68946363  0.19109543  0.69376807  1
  Zn  Zn113  1  0.68823021  0.68868983  0.18941793  1
  Zn  Zn114  1  0.68897143  0.68427885  0.68602565  1
  Zn  Zn115  1  0.30888398  0.31285026  0.31090216  1
  Zn  Zn116  1  0.31774793  0.31299896  0.81331218  1
  Zn  Zn117  1  0.31099633  0.81349379  0.31591607  1
  Zn  Zn118  1  0.30646601  0.81123045  0.80340778  1
  Zn  Zn119  1  0.81234086  0.31652798  0.30974523  1
  Zn  Zn120  1  0.82315773  0.30521129  0.82081848  1
  Zn  Zn121  1  0.81337614  0.81935624  0.31337039  1
  Zn  Zn122  1  0.80792254  0.80863629  0.81255248  1
  Zn  Zn123  1  0.18713878  0.43843867  0.43708660  1
  Zn  Zn124  1  0.18860356  0.43389927  0.93774037  1
  Zn  Zn125  1  0.18677141  0.93615294  0.43684571  1
  Zn  Zn126  1  0.18174189  0.92578024  0.94181525  1
  Zn  Zn127  1  0.68347572  0.43931603  0.44124572  1
  Zn  Zn128  1  0.68780983  0.43864854  0.94355581  1
  Zn  Zn129  1  0.68895126  0.93487810  0.43308010  1
  Zn  Zn130  1  0.69064829  0.93816400  0.93545064  1
  Zn  Zn131  1  0.31864800  0.05899835  0.07285201  1
  Zn  Zn132  1  0.31785655  0.06733529  0.56487389  1
  Zn  Zn133  1  0.30847967  0.56444168  0.06462405  1
  Zn  Zn134  1  0.30838768  0.56177998  0.56000058  1
  Zn  Zn135  1  0.68873667  0.06299867  0.06884833  1
  Zn  Zn136  1  0.81679864  0.06172519  0.56284147  1
  Zn  Zn137  1  0.81141551  0.56446184  0.06340993  1
  Zn  Zn138  1  0.77667057  0.54436222  0.54548235  1
  Zn  Zn139  1  0.44214638  0.43935827  0.19215751  1
  Zn  Zn140  1  0.43647502  0.44488955  0.69002754  1
  Zn  Zn141  1  0.44417272  0.94521729  0.17896448  1
  Zn  Zn142  1  0.43691938  0.92973092  0.68498756  1
  Zn  Zn143  1  0.93930901  0.43628376  0.18659724  1
  Zn  Zn144  1  0.93628937  0.43540757  0.69128780  1
  Zn  Zn145  1  0.93414317  0.94092820  0.18570194  1
  Zn  Zn146  1  0.93810692  0.93898714  0.68574644  1
  Zn  Zn147  1  0.06388929  0.06131672  0.31509426  1
  Zn  Zn148  1  0.12627253  0.04628823  0.82832924  1
  Zn  Zn149  1  0.05813497  0.56397316  0.30927557  1
  Zn  Zn150  1  0.06109027  0.56148816  0.81309649  1
  Zn  Zn151  1  0.56747363  0.06465913  0.30976257  1
  Zn  Zn152  1  0.55910029  0.06238195  0.81210926  1
  Zn  Zn153  1  0.54314368  0.58370513  0.34641025  1
  Zn  Zn154  1  0.56143580  0.56888503  0.80740746  1
  Zn  Zn155  1  0.44187825  0.19016407  0.43968398  1
  Zn  Zn156  1  0.43690110  0.18809421  0.93452212  1
  Zn  Zn157  1  0.43918554  0.68644041  0.44339803  1
  Zn  Zn158  1  0.43455016  0.68842622  0.93997599  1
  Zn  Zn159  1  0.94073042  0.18635526  0.43894154  1
  Zn  Zn160  1  0.93679426  0.19171108  0.94297740  1
  Zn  Zn161  1  0.93387949  0.68781397  0.43877082  1
  Zn  Zn162  1  0.93443045  0.69302080  0.93311999  1
  Zn  Zn163  1  0.06095844  0.31415466  0.06239336  1
  Zn  Zn164  1  0.05873972  0.30953191  0.56191880  1
  Zn  Zn165  1  0.06073961  0.81175973  0.06202003  1
  Zn  Zn166  1  0.06010586  0.81273863  0.56328509  1
  Zn  Zn167  1  0.56050431  0.31120372  0.06513501  1
  Zn  Zn168  1  0.55025306  0.34957512  0.58431661  1
  Zn  Zn169  1  0.55736947  0.81682861  0.05597039  1
  Zn  Zn170  1  0.56905310  0.81226260  0.55926951  1
  O  O171  1  0.12129373  0.11982784  0.11709350  1
  O  O172  1  0.11383146  0.12940444  0.61752267  1
  O  O173  1  0.11670698  0.61393940  0.12812552  1
  O  O174  1  0.11466502  0.61408896  0.62014454  1
  O  O175  1  0.62606764  0.12400749  0.13745056  1
  O  O176  1  0.62639155  0.12174230  0.61894511  1
  O  O177  1  0.61938163  0.62026160  0.12332640  1
  O  O178  1  0.61842295  0.63355844  0.61920981  1
  O  O179  1  0.37808676  0.37879695  0.37826824  1
  O  O180  1  0.38187589  0.38209080  0.88748519  1
  O  O181  1  0.37861163  0.87847163  0.38147663  1
  O  O182  1  0.36604156  0.86523170  0.88640734  1
  O  O183  1  0.88012771  0.37898392  0.38233980  1
  O  O184  1  0.88473463  0.37644260  0.88789418  1
  O  O185  1  0.87172561  0.89020813  0.38645564  1
  O  O186  1  0.88593798  0.86701324  0.88451206  1
  O  O187  1  0.25356805  0.01230160  0.37589842  1
  O  O188  1  0.22183877  -0.00391173  0.86577490  1
  O  O189  1  0.25687431  0.50001146  0.36377258  1
  O  O190  1  0.25031284  0.50487260  0.86930168  1
  O  O191  1  0.75962749  0.00861814  0.37117018  1
  O  O192  1  0.74499709  0.00952620  0.86084479  1
  O  O193  1  0.76045928  0.49212608  0.36619064  1
  O  O194  1  0.74962388  0.51591010  0.88106682  1
  O  O195  1  0.23455075  0.50732365  0.13491569  1
  O  O196  1  0.24110545  0.49596879  0.63161034  1
  O  O197  1  0.24343100  0.98905200  0.12967200  1
  O  O198  1  0.25256321  0.98522734  0.61310866  1
  O  O199  1  0.73553543  0.50319966  0.13284421  1
  O  O200  1  0.77005435  0.47905837  0.63855665  1
  O  O201  1  0.75406362  0.99192488  0.13536107  1
  O  O202  1  0.74490628  0.99751243  0.63213091  1
  O  O203  1  0.01126264  0.37614086  0.25844930  1
  O  O204  1  -0.00955383  0.36239910  0.76423434  1
  O  O205  1  0.01113537  0.86331910  0.23917081  1
  O  O206  1  0.00048818  0.86749988  0.75292480  1
  O  O207  1  0.50752694  0.36778307  0.25973447  1
  O  O208  1  0.48967664  0.36769406  0.76688281  1
  O  O209  1  0.50522164  0.88622180  0.24751206  1
  O  O210  1  0.50893860  0.86046066  0.73179052  1
  O  O211  1  0.48991084  0.13158616  0.25555016  1
  O  O212  1  0.49557240  0.13683289  0.74467450  1
  O  O213  1  0.48294117  0.61922875  0.24729517  1
  O  O214  1  0.49035603  0.63747363  0.75546649  1
  O  O215  1  1.01080620  0.12625367  0.23670800  1
  O  O216  1  0.99234253  0.13022094  0.74078725  1
  O  O217  1  0.99690466  0.63792349  0.23994152  1
  O  O218  1  0.99384049  0.63154290  0.74521842  1
  O  O219  1  0.37139526  0.25577936  0.00744429  1
  O  O220  1  0.36949073  0.25567970  0.50679501  1
  O  O221  1  0.37201017  0.76340176  0.00977581  1
  O  O222  1  0.36075318  0.74842797  0.50322385  1
  O  O223  1  0.87003389  0.25730634  0.01240823  1
  O  O224  1  0.88507889  0.25763257  0.51067653  1
  O  O225  1  0.87713345  0.76281979  0.01010291  1
  O  O226  1  0.86890225  0.76704095  0.49037595  1
  O  O227  1  0.12990157  0.24343923  0.49430218  1
  O  O228  1  0.13906320  0.24266837  1.00960137  1
  O  O229  1  0.12502994  0.74528317  0.49209584  1
  O  O230  1  0.12694627  0.76093786  0.98252186  1
  O  O231  1  0.62116236  0.24268562  0.48823346  1
  O  O232  1  0.63145644  0.25416124  1.00322667  1
  O  O233  1  0.64197616  0.75049121  0.49290188  1
  O  O234  1  0.62625371  0.74520526  0.99286522  1
  O  O235  1  0.48876790  0.24498625  0.13194843  1
  O  O236  1  0.49578798  0.25406889  0.63467239  1
  O  O237  1  0.48677668  0.74638058  0.12056689  1
  O  O238  1  0.47886609  0.75355403  0.60561486  1
  O  O239  1  0.99683008  0.24241519  0.12675118  1
  O  O240  1  0.99349701  0.24228559  0.63287941  1
  O  O241  1  0.99385693  0.74505073  0.13061920  1
  O  O242  1  1.00671164  0.73825943  0.63439151  1
  O  O243  1  0.00735921  0.25447669  0.37270744  1
  O  O244  1  -0.00050349  0.25682009  0.86795697  1
  O  O245  1  0.00808129  0.74533859  0.36467588  1
  O  O246  1  0.00564333  0.75810023  0.86615839  1
  O  O247  1  0.50956215  0.25645613  0.36894892  1
  O  O248  1  0.49981382  0.26051626  0.87042708  1
  O  O249  1  0.51895623  0.75281507  0.38426337  1
  O  O250  1  0.51612366  0.74756815  0.88151019  1
  O  O251  1  0.24747843  0.13064698  0.49430394  1
  O  O252  1  0.24707563  0.12837620  1.00167221  1
  O  O253  1  0.23829013  0.63239582  0.49711944  1
  O  O254  1  0.24981293  0.62595848  0.98591567  1
  O  O255  1  0.74077729  0.11903893  0.49209857  1
  O  O256  1  0.74951025  0.11599325  0.98335095  1
  O  O257  1  0.77096776  0.65047734  0.50556633  1
  O  O258  1  0.74361306  0.62893127  0.99456582  1
  O  O259  1  0.26388363  0.36778423  -0.00066065  1
  O  O260  1  0.25324635  0.36922337  0.50560524  1
  O  O261  1  0.25753115  0.87189289  0.01123367  1
  O  O262  1  0.24428861  0.86421860  0.50833793  1
  O  O263  1  0.76751578  0.37343570  -0.00508804  1
  O  O264  1  0.76525874  0.37438564  0.51020443  1
  O  O265  1  0.76180878  0.87835005  0.00695455  1
  O  O266  1  0.75968937  0.87389499  0.50700106  1
  O  O267  1  0.13118538  0.49420947  0.24833828  1
  O  O268  1  0.13256573  0.50456392  0.73855453  1
  O  O269  1  0.12483551  0.98837331  0.24672645  1
  O  O270  1  0.10855459  0.98222249  0.73897207  1
  O  O271  1  0.63067947  0.49561218  0.24702201  1
  O  O272  1  0.62043634  0.49891335  0.74450182  1
  O  O273  1  0.64453691  0.99644841  0.26094004  1
  O  O274  1  0.63382213  1.00194592  0.73864043  1
  O  O275  1  0.37237860  0.01450060  0.25148214  1
  O  O276  1  0.38413798  0.01736063  0.73747398  1
  O  O277  1  0.36438153  0.50427036  0.25300518  1
  O  O278  1  0.36407019  0.50169221  0.75796308  1
  O  O279  1  0.86804990  -0.00508296  0.26253431  1
  O  O280  1  0.86671756  0.00961233  0.74458617  1
  O  O281  1  0.86575447  0.49499257  0.25601077  1
  O  O282  1  0.88348743  0.51400181  0.75797183  1
  O  O283  1  0.12017433  0.37058584  0.36914251  1
  O  O284  1  0.11166650  0.36781244  0.88351520  1
  O  O285  1  0.12946531  0.86377745  0.36348833  1
  O  O286  1  0.11441166  0.86484478  0.86217786  1
  O  O287  1  0.61800614  0.37219929  0.37226993  1
  O  O288  1  0.61184887  0.37739310  0.87826224  1
  O  O289  1  0.62272742  0.86523958  0.37387804  1
  O  O290  1  0.63451516  0.85873660  0.87597699  1
  O  O291  1  0.37404909  0.13584834  0.13870601  1
  O  O292  1  0.38420880  0.13577587  0.63145337  1
  O  O293  1  0.37767196  0.63371559  0.13070548  1
  O  O294  1  0.36831237  0.63631119  0.62134030  1
  O  O295  1  0.88887270  0.14231930  0.12393933  1
  O  O296  1  0.88456254  0.12983185  0.62993629  1
  O  O297  1  0.88132325  0.63630259  0.12636183  1
  O  O298  1  0.88765263  0.61907978  0.63422712  1
  O  O299  1  0.26391254  0.24767249  0.11535020  1
  O  O300  1  0.25326668  0.25583308  0.62016052  1
  O  O301  1  0.25659921  0.75654641  0.12280543  1
  O  O302  1  0.25174990  0.75035207  0.61303837  1
  O  O303  1  0.76662093  0.24601129  0.12940396  1
  O  O304  1  0.76892243  0.25143338  0.63246343  1
  O  O305  1  0.76256863  0.75745516  0.12507543  1
  O  O306  1  0.74483145  0.76625553  0.61379030  1
  O  O307  1  0.24542074  0.24254534  0.38130729  1
  O  O308  1  0.25146717  0.25479354  0.89020809  1
  O  O309  1  0.23786026  0.74819565  0.38485508  1
  O  O310  1  0.24013427  0.74102828  0.87035659  1
  O  O311  1  0.74195959  0.24390385  0.36874412  1
  O  O312  1  0.75010480  0.23488184  0.87803146  1
  O  O313  1  0.74567771  0.76114120  0.38802936  1
  O  O314  1  0.74346639  0.73928036  0.88063419  1
  O  O315  1  0.00713010  0.11967692  0.00938807  1
  O  O316  1  0.00569987  0.11843472  0.50891052  1
  O  O317  1  -0.00437151  0.63282442  0.01082940  1
  O  O318  1  -0.00001649  0.62018346  0.50842870  1
  O  O319  1  0.49856193  0.11418466  -0.00669412  1
  O  O320  1  0.51306885  0.12150881  0.50555612  1
  O  O321  1  0.50404066  0.62033262  0.00942530  1
  O  O322  1  0.50857105  0.60253311  0.45853532  1
  O  O323  1  0.49109242  0.36502603  0.48270661  1
  O  O324  1  0.49002211  0.38130417  0.99458465  1
  O  O325  1  0.50270180  0.89392370  0.50347868  1
  O  O326  1  0.48106494  0.88750987  1.00231715  1
  O  O327  1  0.99080480  0.38057928  0.49581791  1
  O  O328  1  0.99001130  0.36610011  0.98642812  1
  O  O329  1  0.99186175  0.88653614  0.50895792  1
  O  O330  1  0.99630332  0.88186859  0.99326390  1
  O  O331  1  0.48269431  0.48364462  0.35895615  1
  O  O332  1  0.49235815  0.49531721  0.88462307  1
  O  O333  1  0.50399216  1.00648879  0.39025285  1
  O  O334  1  0.50374027  0.99854787  0.88820222  1
  O  O335  1  0.99210028  0.49382011  0.38019107  1
  O  O336  1  1.00151139  0.48250360  0.87049180  1
  O  O337  1  0.98980525  1.01011662  0.38652359  1
  O  O338  1  1.01281588  0.98657181  0.88428752  1
  O  O339  1  0.00404654  0.00695589  0.11835360  1
  O  O340  1  -0.00625905  0.01119950  0.61323469  1
  O  O341  1  0.01101609  0.51130218  0.13134804  1
  O  O342  1  0.00473198  0.50466441  0.62160947  1
  O  O343  1  0.48371329  0.01088018  0.09805709  1
  O  O344  1  0.51287342  0.00942713  0.61583881  1
  O  O345  1  0.50789591  0.50877566  0.12397498  1
  O  O346  1  0.51271209  0.45496237  0.61217676  1
  O  O347  1  0.23831204  0.38438515  0.25250643  1
  O  O348  1  0.25392581  0.38736792  0.74619746  1
  O  O349  1  0.23907879  0.87355589  0.24196281  1
  O  O350  1  0.23951619  0.87151690  0.73181414  1
  O  O351  1  0.73518675  0.38467100  0.25351607  1
  O  O352  1  0.75872438  0.36479913  0.74587184  1
  O  O353  1  0.75207987  0.88437472  0.23975508  1
  O  O354  1  0.75122729  0.88409703  0.74248370  1
  O  O355  1  0.25737002  0.12735055  0.25993435  1
  O  O356  1  0.26633344  0.12598895  0.74149312  1
  O  O357  1  0.25788199  0.61555576  0.25075884  1
  O  O358  1  0.25206898  0.61324398  0.75824576  1
  O  O359  1  0.75138205  0.11757629  0.26543717  1
  O  O360  1  0.76065236  0.11902736  0.75501959  1
  O  O361  1  0.75440619  0.61105042  0.24592609  1
  O  O362  1  0.76406146  0.63530854  0.75914479  1
  O  O363  1  0.36729515  0.12957812  0.36854344  1
  O  O364  1  0.37572741  0.12670141  0.85790111  1
  O  O365  1  0.37005803  0.61586780  0.36504801  1
  O  O366  1  0.36299209  0.61990818  0.87671844  1
  O  O367  1  0.86568798  0.11785822  0.38543889  1
  O  O368  1  0.86725627  0.12961571  0.86565834  1
  O  O369  1  0.88270083  0.60873138  0.37106481  1
  O  O370  1  0.86867979  0.62316300  0.87072733  1
  O  O371  1  0.11398045  0.39076631  0.13583926  1
  O  O372  1  0.12756442  0.38743825  0.61744276  1
  O  O373  1  0.13228702  0.87659668  0.13109394  1
  O  O374  1  0.13696507  0.86783694  0.62788683  1
  O  O375  1  0.61210921  0.38792357  0.13904925  1
  O  O376  1  0.65528890  0.36353841  0.62764203  1
  O  O377  1  0.64193442  0.86533079  0.12117849  1
  O  O378  1  0.63799333  0.88932345  0.61908307  1
  O  O379  1  0.12741296  0.26158814  0.25411391  1
  O  O380  1  0.11203682  0.24211513  0.75124694  1
  O  O381  1  0.11898161  0.75380818  0.25516400  1
  O  O382  1  0.11354913  0.75640769  0.75582679  1
  O  O383  1  0.62173780  0.26126192  0.26179122  1
  O  O384  1  0.61188682  0.25736156  0.75324575  1
  O  O385  1  0.63517380  0.75657541  0.26315740  1
  O  O386  1  0.62895914  0.74884927  0.76708327  1
  O  O387  1  0.37854108  0.24644841  0.24485363  1
  O  O388  1  0.38405089  0.24377394  0.74576713  1
  O  O389  1  0.36476131  0.73994946  0.24151381  1
  O  O390  1  0.36959375  0.75028538  0.72758385  1
  O  O391  1  0.88091032  0.26491268  0.23387959  1
  O  O392  1  0.88622207  0.23828563  0.74360368  1
  O  O393  1  0.88304402  0.75425088  0.24219671  1
  O  O394  1  0.88798369  0.74169944  0.75533165  1
  O  O395  1  0.36236124  0.49295164  0.48473258  1
  O  O396  1  0.37723784  0.49392063  1.00060116  1
  O  O397  1  0.39379764  1.00605835  0.50112867  1
  O  O398  1  0.36446961  0.98949506  0.98951177  1
  O  O399  1  0.87566118  0.49057146  0.49102810  1
  O  O400  1  0.87529582  0.48677313  1.00461043  1
  O  O401  1  0.88314296  0.99544273  0.49278223  1
  O  O402  1  0.89124040  0.98908008  1.00200947  1
  O  O403  1  0.11556604  0.00603638  0.00821803  1
  O  O404  1  0.11308596  0.00619426  0.49042156  1
  O  O405  1  0.12887205  0.49406914  0.01645863  1
  O  O406  1  0.11695401  0.50453766  0.50644495  1
  O  O407  1  0.61628584  -0.00384170  0.00170906  1
  O  O408  1  0.62038395  0.01077013  0.50581466  1
  O  O409  1  0.61902557  0.50535202  0.01208388  1
  O  O410  1  0.66455128  0.51712542  0.51819945  1
  O  O411  1  0.38451701  0.36664203  0.11814601  1
  O  O412  1  0.36376389  0.37156294  0.61979370  1
  O  O413  1  0.36406870  0.86931980  0.12433583  1
  O  O414  1  0.35781628  0.86448562  0.61756980  1
  O  O415  1  0.88851109  0.36461606  0.11089797  1
  O  O416  1  0.87371767  0.36418649  0.62045598  1
  O  O417  1  0.87044858  0.86910418  0.11694921  1
  O  O418  1  0.86525583  0.88425030  0.61368466  1
  O  O419  1  0.13539678  0.13031324  0.37977375  1
  O  O420  1  0.11777707  0.13536824  0.89539170  1
  O  O421  1  0.12315456  0.63411048  0.37941238  1
  O  O422  1  0.13095382  0.63483415  0.86694078  1
  O  O423  1  0.63517890  0.13452301  0.38155286  1
  O  O424  1  0.64044814  0.12841629  0.86412589  1
  O  O425  1  0.63658389  0.64523186  0.37288160  1
  O  O426  1  0.63195594  0.63375793  0.88276544  1
