# generated using pymatgen
data_V85Zn86O256
_symmetry_space_group_name_H-M   'P 1'
_cell_length_a   16.98884688
_cell_length_b   16.99474811
_cell_length_c   16.97553435
_cell_angle_alpha   90.01612415
_cell_angle_beta   89.98353736
_cell_angle_gamma   89.97652184
_symmetry_Int_Tables_number   1
_chemical_formula_structural   V85Zn86O256
_chemical_formula_sum   'V85 Zn86 O256'
_cell_volume   4901.19539003
_cell_formula_units_Z   1
loop_
 _symmetry_equiv_pos_site_id
 _symmetry_equiv_pos_as_xyz
  1  'x, y, z'
loop_
 _atom_site_type_symbol
 _atom_site_label
 _atom_site_symmetry_multiplicity
 _atom_site_fract_x
 _atom_site_fract_y
 _atom_site_fract_z
 _atom_site_occupancy
  V  V0  1  0.12139362  0.50499748  0.12528395  1
  V  V1  1  0.38083565  0.62481679  0.24601968  1
  V  V2  1  0.00798239  0.12619570  0.61961704  1
  V  V3  1  0.75164997  0.50062146  0.24771682  1
  V  V4  1  0.87663959  0.62389473  0.74308024  1
  V  V5  1  0.74965006  0.75410151  0.50511779  1
  V  V6  1  -0.00237957  0.87000851  0.87097194  1
  V  V7  1  0.25058858  0.37397376  0.10915091  1
  V  V8  1  0.11994543  0.50888619  0.62508890  1
  V  V9  1  0.88717005  0.63101547  0.24600850  1
  V  V10  1  0.36910945  0.25221719  0.11317923  1
  V  V11  1  0.62502619  0.49795459  0.62519175  1
  V  V12  1  0.87547463  0.38358753  -0.00417657  1
  V  V13  1  0.74808158  0.12892337  0.86741435  1
  V  V14  1  0.25025739  0.62324040  0.36564023  1
  V  V15  1  0.62446832  0.37695954  0.24609046  1
  V  V16  1  0.62449542  0.12458771  -0.00489769  1
  V  V17  1  0.75470702  0.49899027  0.75532212  1
  V  V18  1  0.25080645  0.12279680  0.37573311  1
  V  V19  1  0.87486683  0.37702744  0.49805314  1
  V  V20  1  0.25235912  0.87820337  0.11632094  1
  V  V21  1  0.25242801  0.00114108  0.76073652  1
  V  V22  1  0.87218378  0.87553352  0.50423517  1
  V  V23  1  0.62559408  0.75892428  0.37089013  1
  V  V24  1  0.88376730  0.74988884  0.12718530  1
  V  V25  1  0.13671943  0.37501374  0.25187953  1
  V  V26  1  -0.00087413  0.74715455  0.73951906  1
  V  V27  1  0.50099690  0.12671437  0.12356720  1
  V  V28  1  0.74735006  0.25015223  -0.00606674  1
  V  V29  1  0.87166096  0.12561101  0.25123997  1
  V  V30  1  0.74297834  0.87639109  0.12458642  1
  V  V31  1  0.12313548  0.74958131  0.36461297  1
  V  V32  1  0.74614493  -0.01728370  0.73667954  1
  V  V33  1  0.12366628  0.24399424  0.37913177  1
  V  V34  1  0.12709828  0.87961401  0.24782014  1
  V  V35  1  0.13163782  0.12738608  -0.00222332  1
  V  V36  1  0.75075748  0.62551503  0.37408741  1
  V  V37  1  -0.00323649  0.38110194  0.87627446  1
  V  V38  1  0.87670233  0.50165475  0.37257033  1
  V  V39  1  0.49284552  0.37880534  0.88084443  1
  V  V40  1  0.86813674  0.00145617  0.87118483  1
  V  V41  1  0.37480434  0.61933516  0.75733294  1
  V  V42  1  0.87768687  0.25134658  0.62475755  1
  V  V43  1  0.40288053  0.88120259  -0.00010361  1
  V  V44  1  0.62285858  0.76372917  0.87054092  1
  V  V45  1  0.25203694  0.75054033  0.50314083  1
  V  V46  1  0.25102491  0.87627948  0.62472896  1
  V  V47  1  0.87563577  0.24970086  0.12346564  1
  V  V48  1  0.74890644  -0.00182586  0.24822280  1
  V  V49  1  0.49500086  0.87711281  0.36898367  1
  V  V50  1  -0.00005244  0.50339950  0.50068525  1
  V  V51  1  0.62244647  0.00037693  0.12282877  1
  V  V52  1  0.24864302  0.37703736  0.62354353  1
  V  V53  1  0.13057075  0.24986488  0.87832564  1
  V  V54  1  0.49769306  0.62249501  0.62768552  1
  V  V55  1  0.37673467  0.75408517  0.12597209  1
  V  V56  1  0.00685629  0.00358058  0.49832354  1
  V  V57  1  0.74357473  0.74687235  -0.00124594  1
  V  V58  1  0.37283075  0.37640196  0.49855900  1
  V  V59  1  0.12411684  0.87210584  0.75031277  1
  V  V60  1  0.50736746  0.74710717  0.24510820  1
  V  V61  1  0.00141704  0.37492770  0.37261127  1
  V  V62  1  0.12295858  0.37699712  0.75121307  1
  V  V63  1  0.50212767  0.25211840  0.75133228  1
  V  V64  1  0.12100798  0.62639596  0.50226622  1
  V  V65  1  0.75067012  0.37468483  0.62322806  1
  V  V66  1  -0.00190293  -0.00039703  -0.00277047  1
  V  V67  1  0.74915858  0.37694870  0.12277176  1
  V  V68  1  0.62539276  0.62270507  0.49714505  1
  V  V69  1  0.50599884  0.76120822  0.75306257  1
  V  V70  1  0.62547013  0.37121464  0.75559198  1
  V  V71  1  0.86837731  0.00313059  0.37290175  1
  V  V72  1  0.49827188  0.50014317  0.49883244  1
  V  V73  1  0.50029013  0.37542984  0.37438227  1
  V  V74  1  -0.00058119  0.12451735  0.12283301  1
  V  V75  1  0.87058537  0.87472643  -0.00187810  1
  V  V76  1  0.63067307  0.11865511  0.49822255  1
  V  V77  1  0.74366527  0.62317591  0.87352194  1
  V  V78  1  0.36932955  0.49948013  0.36746404  1
  V  V79  1  0.12576646  0.00096811  0.12545769  1
  V  V80  1  0.25081641  0.50556556  0.75487207  1
  V  V81  1  -0.00057355  0.87244699  0.36923587  1
  V  V82  1  0.24620294  0.24257457  0.50212376  1
  V  V83  1  0.50195343  0.12399981  0.62031970  1
  V  V84  1  0.63079329  0.24924189  0.37629813  1
  Zn  Zn85  1  0.25897010  0.00192309  0.25265346  1
  Zn  Zn86  1  0.51619149  -0.03264605  0.52907352  1
  Zn  Zn87  1  0.37782606  0.12644857  0.75299390  1
  Zn  Zn88  1  0.00126879  0.24955917  0.24851958  1
  Zn  Zn89  1  0.13230877  0.00744828  0.62084368  1
  Zn  Zn90  1  0.49874793  0.51793838  0.01185202  1
  Zn  Zn91  1  0.20031500  0.69553431  0.96037524  1
  Zn  Zn92  1  0.39975582  0.00402794  0.88485454  1
  Zn  Zn93  1  0.37272499  0.87759667  0.49736653  1
  Zn  Zn94  1  0.36171715  0.49321973  0.90107406  1
  Zn  Zn95  1  0.75236992  0.24693666  0.49580110  1
  Zn  Zn96  1  0.37839419  0.12601260  0.25147232  1
  Zn  Zn97  1  0.38422616  0.00759749  0.38097926  1
  Zn  Zn98  1  0.62317613  0.52256949  0.11477493  1
  Zn  Zn99  1  0.37291544  0.24985902  0.62643896  1
  Zn  Zn100  1  0.00151755  0.51072314  0.00096931  1
  Zn  Zn101  1  0.49748840  0.25129530  0.25020127  1
  Zn  Zn102  1  0.87662089  0.74713993  0.61983796  1
  Zn  Zn103  1  0.00146765  0.24680355  0.75152600  1
  Zn  Zn104  1  0.25919075  0.13172650  0.88155097  1
  Zn  Zn105  1  0.37409717  0.75096260  0.62943715  1
  Zn  Zn106  1  0.87584272  0.12364441  0.74577385  1
  Zn  Zn107  1  0.18854547  0.18895820  0.18983759  1
  Zn  Zn108  1  0.18592183  0.18884322  0.69156003  1
  Zn  Zn109  1  0.17529501  0.70669718  0.15689971  1
  Zn  Zn110  1  0.18946858  0.68969391  0.79923811  1
  Zn  Zn111  1  0.68828588  0.18947730  0.18650707  1
  Zn  Zn112  1  0.68716043  0.18778052  0.68312463  1
  Zn  Zn113  1  0.69706861  0.69006423  0.19000678  1
  Zn  Zn114  1  0.68513775  0.68578594  0.68745899  1
  Zn  Zn115  1  0.31583890  0.30537151  0.30907970  1
  Zn  Zn116  1  0.31431998  0.31336247  0.81114784  1
  Zn  Zn117  1  0.31127736  0.80975276  0.30822476  1
  Zn  Zn118  1  0.32908666  0.80485518  0.82937307  1
  Zn  Zn119  1  0.81206971  0.31278179  0.31094305  1
  Zn  Zn120  1  0.81480115  0.31312256  0.81104194  1
  Zn  Zn121  1  0.81118578  0.81395137  0.31229056  1
  Zn  Zn122  1  0.81136595  0.80950804  0.80798272  1
  Zn  Zn123  1  0.18691702  0.43703243  0.43663227  1
  Zn  Zn124  1  0.18106713  0.44306358  0.93832704  1
  Zn  Zn125  1  0.18771845  0.93674713  0.43620582  1
  Zn  Zn126  1  0.18205635  0.92926088  0.93793030  1
  Zn  Zn127  1  0.68865472  0.43700940  0.43508317  1
  Zn  Zn128  1  0.68085015  0.43884879  0.93934779  1
  Zn  Zn129  1  0.68906933  0.93301551  0.56576703  1
  Zn  Zn130  1  0.57389117  0.94108464  0.93671497  1
  Zn  Zn131  1  0.31598942  0.05900672  0.06415752  1
  Zn  Zn132  1  0.32560993  0.05713730  0.56195931  1
  Zn  Zn133  1  0.30919614  0.55267575  0.06977887  1
  Zn  Zn134  1  0.31002899  0.56497667  0.56205493  1
  Zn  Zn135  1  0.81058338  0.06384984  0.06027663  1
  Zn  Zn136  1  0.81823216  0.06620089  0.55882611  1
  Zn  Zn137  1  0.81080662  0.56694852  0.06404442  1
  Zn  Zn138  1  0.81118174  0.56210619  0.56297738  1
  Zn  Zn139  1  0.43875820  0.43622507  0.17932274  1
  Zn  Zn140  1  0.43662889  0.43588656  0.68891895  1
  Zn  Zn141  1  0.43982354  0.94035008  0.19307619  1
  Zn  Zn142  1  0.43511741  0.93928866  0.69007599  1
  Zn  Zn143  1  0.93973991  0.43595213  0.18809206  1
  Zn  Zn144  1  0.93859923  0.43821208  0.68851526  1
  Zn  Zn145  1  0.93797830  0.93539995  0.18425881  1
  Zn  Zn146  1  0.93695589  0.94158731  0.68489780  1
  Zn  Zn147  1  0.06004970  0.06346728  0.31231001  1
  Zn  Zn148  1  0.06193915  0.06226304  0.80905661  1
  Zn  Zn149  1  0.06641433  0.55939782  0.30862457  1
  Zn  Zn150  1  0.06175906  0.57045577  0.82363285  1
  Zn  Zn151  1  0.56809425  0.06366229  0.31101919  1
  Zn  Zn152  1  0.57032415  0.06364364  0.80043542  1
  Zn  Zn153  1  0.56292120  0.56177202  0.30940985  1
  Zn  Zn154  1  0.56231687  0.56270030  0.82027663  1
  Zn  Zn155  1  0.43752466  0.19220618  0.43971951  1
  Zn  Zn156  1  0.44032941  0.18954795  0.93352373  1
  Zn  Zn157  1  0.43789754  0.68877276  0.43450670  1
  Zn  Zn158  1  0.39006972  0.66130712  0.96632479  1
  Zn  Zn159  1  0.93767170  0.18754583  0.43753536  1
  Zn  Zn160  1  0.93907609  0.19055044  0.93600308  1
  Zn  Zn161  1  0.93769547  0.68892792  0.43343070  1
  Zn  Zn162  1  0.92458748  0.68636735  0.92624600  1
  Zn  Zn163  1  0.06194785  0.31313224  0.06133420  1
  Zn  Zn164  1  0.06240003  0.31611489  0.56122692  1
  Zn  Zn165  1  0.04888955  0.68614719  0.04428965  1
  Zn  Zn166  1  0.06502282  0.81496565  0.56054081  1
  Zn  Zn167  1  0.56213509  0.31068325  0.06252425  1
  Zn  Zn168  1  0.56275727  0.30985852  0.56268586  1
  Zn  Zn169  1  0.55824980  0.68748198  0.05546993  1
  Zn  Zn170  1  0.56088531  0.80198933  0.55894421  1
  O  O171  1  0.12035453  0.12161858  0.11817275  1
  O  O172  1  0.11256986  0.12689139  0.62552753  1
  O  O173  1  0.12866595  0.60266569  0.14502008  1
  O  O174  1  0.13005595  0.61432484  0.61007539  1
  O  O175  1  0.62196201  0.12110645  0.11651441  1
  O  O176  1  0.61373437  0.13453665  0.61074969  1
  O  O177  1  0.63375770  0.63500878  0.11920973  1
  O  O178  1  0.61597289  0.61794071  0.61862579  1
  O  O179  1  0.37765210  0.38202433  0.37770503  1
  O  O180  1  0.38816192  0.37832473  0.86852079  1
  O  O181  1  0.38634574  0.87419565  0.37050564  1
  O  O182  1  0.38206256  0.87821369  0.89685698  1
  O  O183  1  0.88053139  0.38128620  0.37764930  1
  O  O184  1  0.88511240  0.36798072  0.88369359  1
  O  O185  1  0.88334293  0.88115687  0.37959653  1
  O  O186  1  0.87492932  0.88332072  0.87818926  1
  O  O187  1  0.25014488  0.01489239  0.38199389  1
  O  O188  1  0.24476893  -0.00381555  0.86299037  1
  O  O189  1  0.25982911  0.50948869  0.38182130  1
  O  O190  1  0.25100582  0.48774589  0.85822183  1
  O  O191  1  0.76675974  -0.00383865  0.36167122  1
  O  O192  1  0.76127122  0.01033271  0.85788487  1
  O  O193  1  0.75824112  0.50492133  0.36933076  1
  O  O194  1  0.74261933  0.50642899  0.86221856  1
  O  O195  1  0.23981716  0.47959784  0.12839807  1
  O  O196  1  0.23997718  0.49349879  0.62777542  1
  O  O197  1  0.24416414  0.99401979  0.13049711  1
  O  O198  1  0.25142837  0.99178208  0.62920383  1
  O  O199  1  0.74669459  0.49323540  0.13090054  1
  O  O200  1  0.74434793  0.49394333  0.63267158  1
  O  O201  1  0.74634428  0.99582398  0.12902106  1
  O  O202  1  0.76100967  0.99757712  0.63068102  1
  O  O203  1  0.00817842  0.36958620  0.25749595  1
  O  O204  1  0.00587974  0.37526831  0.75829547  1
  O  O205  1  0.00969249  0.88263639  0.26115296  1
  O  O206  1  0.00389666  0.87141909  0.75174234  1
  O  O207  1  0.51074514  0.37499365  0.25624257  1
  O  O208  1  0.50762202  0.37041815  0.75218105  1
  O  O209  1  0.49805561  0.85979466  0.25914691  1
  O  O210  1  0.49473513  0.85823640  0.74426530  1
  O  O211  1  0.50644651  0.13005355  0.23487647  1
  O  O212  1  0.50728271  0.13847248  0.73756668  1
  O  O213  1  0.49000155  0.63379333  0.25816009  1
  O  O214  1  0.49589773  0.62258536  0.73959083  1
  O  O215  1  0.98942461  0.12575539  0.24155560  1
  O  O216  1  0.99567636  0.12608459  0.73674625  1
  O  O217  1  0.98641015  0.62270428  0.25561499  1
  O  O218  1  0.98851634  0.63579661  0.75902972  1
  O  O219  1  0.37714737  0.24723113  0.01412544  1
  O  O220  1  0.36244245  0.26015016  0.50181143  1
  O  O221  1  0.38182056  0.77037011  0.01805093  1
  O  O222  1  0.36130846  0.74800444  0.49949540  1
  O  O223  1  0.86629413  0.25617949  0.00494992  1
  O  O224  1  0.87382062  0.25756568  0.50634605  1
  O  O225  1  0.86457680  0.75915441  0.00345583  1
  O  O226  1  0.86710610  0.75704353  0.49677598  1
  O  O227  1  0.13518784  0.25856287  0.49007259  1
  O  O228  1  0.11894066  0.23809781  0.99117481  1
  O  O229  1  0.13139038  0.74415884  0.48993457  1
  O  O230  1  0.14354730  0.73668514  1.04930280  1
  O  O231  1  0.62810007  0.24657636  0.49130054  1
  O  O232  1  0.64094513  0.24088168  1.00571350  1
  O  O233  1  0.63230635  0.74113841  0.49009320  1
  O  O234  1  0.63597781  0.75088202  0.98314620  1
  O  O235  1  0.48911383  0.24521158  0.12587764  1
  O  O236  1  0.49581842  0.24628161  0.63275651  1
  O  O237  1  0.49001045  0.74927255  0.13712995  1
  O  O238  1  0.50126854  0.73687735  0.63545991  1
  O  O239  1  0.99239886  0.24289050  0.12461000  1
  O  O240  1  0.99372526  0.24486722  0.62105171  1
  O  O241  1  0.98136844  0.75495274  0.11937520  1
  O  O242  1  0.99951731  0.75409089  0.63491583  1
  O  O243  1  0.00951412  0.25590387  0.37749201  1
  O  O244  1  0.00976102  0.25941183  0.87285489  1
  O  O245  1  0.01168194  0.76160574  0.38008025  1
  O  O246  1  -0.01435859  0.76546452  0.86085624  1
  O  O247  1  0.50941552  0.25929743  0.37453736  1
  O  O248  1  0.49758318  0.26037182  0.85901340  1
  O  O249  1  0.50675802  0.75249208  0.36537876  1
  O  O250  1  0.51582740  0.74892936  0.85972997  1
  O  O251  1  0.25591771  0.13752667  0.49754967  1
  O  O252  1  0.23506997  0.11464032  0.99834921  1
  O  O253  1  0.24081156  0.63204780  0.49112287  1
  O  O254  1  0.28561577  0.62994497  0.99307707  1
  O  O255  1  0.73485822  0.12745276  0.50493583  1
  O  O256  1  0.74597437  0.13186323  0.99114078  1
  O  O257  1  0.74600400  0.63088332  0.49267114  1
  O  O258  1  0.76117618  0.63812076  0.98625641  1
  O  O259  1  0.24549120  0.37268138  0.01066423  1
  O  O260  1  0.25211239  0.36959048  0.50740826  1
  O  O261  1  0.24775415  0.87801522  0.01582370  1
  O  O262  1  0.24901964  0.86794289  0.50522339  1
  O  O263  1  0.75547625  0.36721392  0.00042303  1
  O  O264  1  0.75804127  0.37703400  0.50609288  1
  O  O265  1  0.76100219  0.86640093  0.00622586  1
  O  O266  1  0.75985272  0.86649423  0.49865117  1
  O  O267  1  0.12104234  0.48289290  0.24235758  1
  O  O268  1  0.13146173  0.49868139  0.74158661  1
  O  O269  1  0.12569714  0.99436712  0.24533005  1
  O  O270  1  0.13338924  0.99123217  0.74538394  1
  O  O271  1  0.63406007  0.48833477  0.25445932  1
  O  O272  1  0.63383664  0.49171361  0.74334615  1
  O  O273  1  0.64154705  1.01042548  0.23853107  1
  O  O274  1  0.64981116  1.00590168  0.74396392  1
  O  O275  1  0.37629848  0.00862341  0.26046210  1
  O  O276  1  0.35917500  -0.00188535  0.75546719  1
  O  O277  1  0.38103287  0.50749200  0.26209687  1
  O  O278  1  0.36227733  0.50595447  0.74001206  1
  O  O279  1  0.87154276  0.00703905  0.25263064  1
  O  O280  1  0.86652477  0.00152349  0.75435006  1
  O  O281  1  0.87110164  0.50714004  0.25313905  1
  O  O282  1  0.86295744  0.50587945  0.74391353  1
  O  O283  1  0.12235859  0.36779861  0.36953507  1
  O  O284  1  0.11790623  0.36773142  0.87242463  1
  O  O285  1  0.11941881  0.86917255  0.36786499  1
  O  O286  1  0.10661060  0.88434575  0.86407453  1
  O  O287  1  0.62068233  0.36985028  0.36720715  1
  O  O288  1  0.61702999  0.37693215  0.85965636  1
  O  O289  1  0.61318593  0.85886101  0.37604263  1
  O  O290  1  0.63010506  0.86171494  0.87246482  1
  O  O291  1  0.38394131  0.13394391  0.12271485  1
  O  O292  1  0.38798404  0.13086873  0.62878454  1
  O  O293  1  0.36532334  0.63577156  0.14237425  1
  O  O294  1  0.38501545  0.62619593  0.62966138  1
  O  O295  1  0.88019561  0.12913579  0.12914920  1
  O  O296  1  0.88441811  0.13754147  0.62200629  1
  O  O297  1  0.86510174  0.63729052  0.13593376  1
  O  O298  1  0.87024734  0.62689517  0.63665057  1
  O  O299  1  0.26031633  0.25575861  0.12556529  1
  O  O300  1  0.24584746  0.26074359  0.61919659  1
  O  O301  1  0.27088368  0.76974664  0.14651315  1
  O  O302  1  0.24991239  0.76240862  0.61239932  1
  O  O303  1  0.75727346  0.25523343  0.11545954  1
  O  O304  1  0.76156885  0.25708212  0.62203600  1
  O  O305  1  0.75539329  0.76121959  0.11589084  1
  O  O306  1  0.74619658  0.74470704  0.60784372  1
  O  O307  1  0.24309965  0.24320047  0.38371627  1
  O  O308  1  0.23552012  0.24977096  0.86791905  1
  O  O309  1  0.24142174  0.74426325  0.38223083  1
  O  O310  1  0.23854731  0.76240371  0.87251940  1
  O  O311  1  0.73690697  0.25489744  0.37615433  1
  O  O312  1  0.75853334  0.24138335  0.88342660  1
  O  O313  1  0.74360846  0.74649614  0.38158838  1
  O  O314  1  0.74095820  0.74591905  0.87692742  1
  O  O315  1  0.00630215  0.11814259  0.00327977  1
  O  O316  1  -0.00651199  0.11400197  0.50626366  1
  O  O317  1  -0.02298941  0.62044605  -0.00228786  1
  O  O318  1  0.01308438  0.62033733  0.48977107  1
  O  O319  1  0.51458034  0.13614582  0.00958122  1
  O  O320  1  0.50632918  0.13244553  0.51340415  1
  O  O321  1  0.49511858  0.63136968  -0.01631627  1
  O  O322  1  0.50390193  0.62111167  0.50760245  1
  O  O323  1  0.49327058  0.38096469  0.49533726  1
  O  O324  1  0.50704725  0.36301045  0.97868228  1
  O  O325  1  0.49242566  0.85916080  0.47735988  1
  O  O326  1  0.50145903  0.87996083  1.00587263  1
  O  O327  1  0.99460474  0.38317992  0.49263210  1
  O  O328  1  0.99044042  0.37476730  0.99310247  1
  O  O329  1  0.99409859  0.88195322  0.48813276  1
  O  O330  1  0.98225902  0.88219220  0.98586871  1
  O  O331  1  0.49097329  0.49573610  0.38057112  1
  O  O332  1  0.49927834  0.48348513  0.87189628  1
  O  O333  1  0.50933816  0.97965762  0.36664945  1
  O  O334  1  0.51016749  0.99864102  0.86560232  1
  O  O335  1  0.99591268  0.49444202  0.38037413  1
  O  O336  1  1.00844419  0.48443257  0.87983063  1
  O  O337  1  0.99272217  0.99305664  0.38020603  1
  O  O338  1  0.98597639  0.99457742  0.87470122  1
  O  O339  1  0.00499229  0.00428852  0.11728973  1
  O  O340  1  -0.00056517  0.00955990  0.61449387  1
  O  O341  1  0.01670881  0.48802495  0.12217773  1
  O  O342  1  0.01219391  0.49387215  0.61722178  1
  O  O343  1  0.51399136  0.01071069  0.13262655  1
  O  O344  1  0.49541897  0.02215694  0.63532738  1
  O  O345  1  0.51031585  0.50054995  0.12799288  1
  O  O346  1  0.50396000  0.50544022  0.61895143  1
  O  O347  1  0.23951815  0.36717939  0.24818184  1
  O  O348  1  0.24403825  0.38231941  0.73873069  1
  O  O349  1  0.24006553  0.88245920  0.25153828  1
  O  O350  1  0.24220455  0.88497205  0.74221808  1
  O  O351  1  0.74477353  0.38074765  0.24378657  1
  O  O352  1  0.74509310  0.38058856  0.74562599  1
  O  O353  1  0.75930600  0.88764500  0.23756139  1
  O  O354  1  0.75188645  0.88330166  0.74431553  1
  O  O355  1  0.25037366  0.12440035  0.26404336  1
  O  O356  1  0.24714290  0.10882794  0.75011079  1
  O  O357  1  0.26091886  0.63291003  0.26492724  1
  O  O358  1  0.26120768  0.61569920  0.74382651  1
  O  O359  1  0.76427359  0.11578789  0.24066798  1
  O  O360  1  0.75439096  0.12948126  0.75730258  1
  O  O361  1  0.75918200  0.61856439  0.25828867  1
  O  O362  1  0.75291298  0.61537979  0.75099269  1
  O  O363  1  0.36491470  0.12904567  0.37609841  1
  O  O364  1  0.37355209  0.11922034  0.87233729  1
  O  O365  1  0.36908723  0.61788049  0.37001712  1
  O  O366  1  0.38299209  0.60955123  0.85686466  1
  O  O367  1  0.88301664  0.11609663  0.36289410  1
  O  O368  1  0.86821945  0.11772959  0.87428793  1
  O  O369  1  0.87029901  0.62132295  0.36763178  1
  O  O370  1  0.85484775  0.63251249  0.85367965  1
  O  O371  1  0.13744107  0.37025214  0.13160723  1
  O  O372  1  0.13209191  0.38478711  0.62828284  1
  O  O373  1  0.13575516  0.88315697  0.13913088  1
  O  O374  1  0.13354620  0.87922792  0.63179007  1
  O  O375  1  0.63264741  0.36597970  0.13736953  1
  O  O376  1  0.63054202  0.38034079  0.63081670  1
  O  O377  1  0.64032587  0.88916154  0.11956726  1
  O  O378  1  0.58984897  0.89989552  0.59898734  1
  O  O379  1  0.12267118  0.25620270  0.26177454  1
  O  O380  1  0.12189193  0.25891937  0.75816050  1
  O  O381  1  0.13114264  0.76018704  0.25949603  1
  O  O382  1  0.11336130  0.76514432  0.74813830  1
  O  O383  1  0.62623693  0.25926633  0.25808592  1
  O  O384  1  0.61733390  0.26264523  0.74022210  1
  O  O385  1  0.61813972  0.74191181  0.25976726  1
  O  O386  1  0.61635966  0.74889316  0.75499723  1
  O  O387  1  0.37952437  0.24373952  0.23778355  1
  O  O388  1  0.38445533  0.24824920  0.74562190  1
  O  O389  1  0.38721115  0.74278035  0.24880473  1
  O  O390  1  0.39044057  0.73870192  0.75199125  1
  O  O391  1  0.87472046  0.24135639  0.24362687  1
  O  O392  1  0.87970113  0.25238517  0.73492750  1
  O  O393  1  0.86733280  0.74315305  0.24112194  1
  O  O394  1  0.87991023  0.74441486  0.74084543  1
  O  O395  1  0.37851401  0.49678385  0.49064385  1
  O  O396  1  0.38627601  0.49421298  1.00986360  1
  O  O397  1  0.39611118  0.99351076  0.49711435  1
  O  O398  1  0.37889826  0.98537828  1.00454369  1
  O  O399  1  0.88040814  0.49763407  0.49341082  1
  O  O400  1  0.87132956  0.48470271  1.00547737  1
  O  O401  1  0.88130066  0.99369813  0.48968925  1
  O  O402  1  0.87509039  0.99430394  0.99062208  1
  O  O403  1  0.11677540  0.00608902  0.00443409  1
  O  O404  1  0.11017871  -0.00612536  0.50037042  1
  O  O405  1  0.12549379  0.49970059  0.01918419  1
  O  O406  1  0.12087401  0.50724555  0.50410162  1
  O  O407  1  0.62917133  0.01396686  0.01130122  1
  O  O408  1  0.62107310  0.01864432  0.49561392  1
  O  O409  1  0.61408671  0.49763815  0.00257137  1
  O  O410  1  0.61898714  0.50368603  0.50362313  1
  O  O411  1  0.36102776  0.36313987  0.13097613  1
  O  O412  1  0.36166468  0.37773794  0.61840102  1
  O  O413  1  0.37284888  0.87527774  0.12047869  1
  O  O414  1  0.36417175  0.87142248  0.62365110  1
  O  O415  1  0.86910839  0.36882787  0.11754180  1
  O  O416  1  0.87257369  0.36965694  0.61810142  1
  O  O417  1  0.86752691  0.87228424  0.11599404  1
  O  O418  1  0.88471810  0.87315006  0.60631967  1
  O  O419  1  0.13107903  0.13661466  0.37225865  1
  O  O420  1  0.12369171  0.13222099  0.88159408  1
  O  O421  1  0.13194675  0.63073771  0.37775367  1
  O  O422  1  0.13256492  0.63217974  0.88074134  1
  O  O423  1  0.61431245  0.13655370  0.38871338  1
  O  O424  1  0.63929358  0.12145625  0.88348174  1
  O  O425  1  0.63132930  0.62905916  0.37981461  1
  O  O426  1  0.63893602  0.63541904  0.86527831  1
