# generated using pymatgen
data_V85Zn86O256
_symmetry_space_group_name_H-M   'P 1'
_cell_length_a   16.96967012
_cell_length_b   16.95709209
_cell_length_c   16.95044827
_cell_angle_alpha   89.95924732
_cell_angle_beta   89.86810707
_cell_angle_gamma   90.14269150
_symmetry_Int_Tables_number   1
_chemical_formula_structural   V85Zn86O256
_chemical_formula_sum   'V85 Zn86 O256'
_cell_volume   4877.56827722
_cell_formula_units_Z   1
loop_
 _symmetry_equiv_pos_site_id
 _symmetry_equiv_pos_as_xyz
  1  'x, y, z'
loop_
 _atom_site_type_symbol
 _atom_site_label
 _atom_site_symmetry_multiplicity
 _atom_site_fract_x
 _atom_site_fract_y
 _atom_site_fract_z
 _atom_site_occupancy
  V  V0  1  0.63052418  0.74952382  0.37178606  1
  V  V1  1  0.86522545  0.01416795  0.87390954  1
  V  V2  1  0.37721259  0.26743933  0.61877916  1
  V  V3  1  0.36753986  0.75595948  0.12708963  1
  V  V4  1  0.00679150  0.50405794  -0.00179535  1
  V  V5  1  0.86908837  0.73814773  0.62906733  1
  V  V6  1  0.49330016  0.24676553  0.24858583  1
  V  V7  1  0.49732241  0.87683773  0.87664589  1
  V  V8  1  0.00057559  0.25108325  0.25029611  1
  V  V9  1  0.87537234  0.37960199  0.49611330  1
  V  V10  1  0.63502869  0.37603299  0.24793533  1
  V  V11  1  0.63998916  0.49526055  0.12730377  1
  V  V12  1  0.62537355  0.00608158  0.12069921  1
  V  V13  1  0.49489905  0.12572659  0.12599449  1
  V  V14  1  0.75644396  0.61281786  0.36910076  1
  V  V15  1  0.25141230  0.49681625  0.74369667  1
  V  V16  1  0.87524117  0.12644661  0.24999335  1
  V  V17  1  0.37283909  0.50124222  0.37281642  1
  V  V18  1  0.50206486  0.75040053  0.24790405  1
  V  V19  1  0.61040242  0.12071588  0.50263273  1
  V  V20  1  0.50314187  0.37022358  0.87238378  1
  V  V21  1  -0.00508173  0.73767867  0.74192743  1
  V  V22  1  0.86871357  0.25437836  0.12527883  1
  V  V23  1  0.24510241  0.25957057  0.50470088  1
  V  V24  1  0.74878906  0.75323699  0.00268443  1
  V  V25  1  0.12753087  0.12430086  -0.00055249  1
  V  V26  1  0.62226002  0.75093810  0.87397100  1
  V  V27  1  0.25173535  0.37770330  0.12834924  1
  V  V28  1  0.11844407  0.50074712  0.62444263  1
  V  V29  1  0.12630943  0.24918145  0.87442917  1
  V  V30  1  0.49441591  0.49723661  0.49926552  1
  V  V31  1  0.62791465  0.37226476  0.75064420  1
  V  V32  1  0.00134450  0.37504076  0.87467133  1
  V  V33  1  0.74813109  0.23648913  -0.00288219  1
  V  V34  1  0.12262603  0.74386771  0.87976314  1
  V  V35  1  0.25078605  0.00003192  0.75283770  1
  V  V36  1  0.13415975  0.87615808  0.24849012  1
  V  V37  1  0.75550549  0.00355769  0.73533697  1
  V  V38  1  -0.00251230  0.24259296  0.74948852  1
  V  V39  1  0.87524833  0.50360954  0.86893456  1
  V  V40  1  0.12817668  0.37856204  0.25131196  1
  V  V41  1  0.75422589  0.62620136  0.86911554  1
  V  V42  1  0.11928104  0.87545024  0.74967950  1
  V  V43  1  0.75054684  -0.00236284  0.24487231  1
  V  V44  1  0.12479937  0.00775874  0.62136127  1
  V  V45  1  0.74950589  0.37269357  0.62597943  1
  V  V46  1  0.25799239  0.12383304  0.87403819  1
  V  V47  1  0.00293228  0.12556479  0.12507017  1
  V  V48  1  0.50113885  0.49937075  0.00409773  1
  V  V49  1  0.37427769  0.62347166  0.25095262  1
  V  V50  1  -0.00084773  0.87494439  0.37451194  1
  V  V51  1  0.74875515  0.24756485  0.50068390  1
  V  V52  1  0.37868289  0.12256607  0.73672532  1
  V  V53  1  0.38494602  0.00633590  0.37596235  1
  V  V54  1  0.49358409  0.62889521  0.63121656  1
  V  V55  1  0.74838215  0.12719446  0.37437045  1
  V  V56  1  0.00002900  0.00010661  -0.00209424  1
  V  V57  1  0.13053740  0.50432919  0.12338985  1
  V  V58  1  0.60370257  -0.00301209  0.61860783  1
  V  V59  1  0.25522307  0.86969940  0.62585296  1
  V  V60  1  0.87480163  0.24328858  0.62945183  1
  V  V61  1  0.13335996  -0.00476834  0.12556642  1
  V  V62  1  0.37504385  0.37043903  0.00147567  1
  V  V63  1  0.25086978  0.62300718  0.37368557  1
  V  V64  1  0.00350148  0.62738267  0.12289158  1
  V  V65  1  0.87223118  0.87555866  0.00129403  1
  V  V66  1  -0.00258311  0.38379108  0.37515076  1
  V  V67  1  0.37539461  0.50332610  0.87182782  1
  V  V68  1  0.86978633  0.87770562  0.50988812  1
  V  V69  1  0.62736060  0.62444012  0.49987292  1
  V  V70  1  0.12455284  0.75007401  0.37576616  1
  V  V71  1  0.63011562  0.23642728  0.87839469  1
  V  V72  1  0.62208479  0.24870629  0.37498385  1
  V  V73  1  0.87197758  0.75089601  0.12795887  1
  V  V74  1  0.25321668  0.74934589  0.50682016  1
  V  V75  1  0.62922931  0.87477718  0.24321401  1
  V  V76  1  0.13098664  0.37316106  0.74379232  1
  V  V77  1  0.11803830  0.62357586  0.50504440  1
  V  V78  1  0.49463316  0.37506909  0.37602102  1
  V  V79  1  0.62558109  0.49730235  0.62702179  1
  V  V80  1  0.24060016  0.12232297  0.37734292  1
  V  V81  1  0.00475695  0.00785606  0.49908316  1
  V  V82  1  0.86787513  0.37570394  0.00238624  1
  V  V83  1  0.37015779  0.87497805  0.00366484  1
  V  V84  1  0.50015178  0.00312269  -0.00223726  1
  Zn  Zn85  1  -0.00586451  0.50566787  0.50180363  1
  Zn  Zn86  1  0.87457173  -0.00138746  0.37392300  1
  Zn  Zn87  1  0.36287839  0.63623652  0.74460702  1
  Zn  Zn88  1  0.38205288  0.88220955  0.50543336  1
  Zn  Zn89  1  0.50668250  0.23977853  0.74113657  1
  Zn  Zn90  1  -0.00220645  0.74859881  0.25105953  1
  Zn  Zn91  1  0.87510366  0.60934500  0.24980727  1
  Zn  Zn92  1  0.00223075  0.12717282  0.62099379  1
  Zn  Zn93  1  0.24028041  0.74761346  0.00822845  1
  Zn  Zn94  1  0.49983287  0.62214639  0.12462548  1
  Zn  Zn95  1  -0.00516293  0.87600535  0.87158078  1
  Zn  Zn96  1  0.36901712  0.24282909  0.13079237  1
  Zn  Zn97  1  0.23895709  0.61904756  0.88182389  1
  Zn  Zn98  1  0.12000700  0.24623094  0.38774853  1
  Zn  Zn99  1  0.50136000  0.88154688  0.38202918  1
  Zn  Zn100  1  0.75545677  0.50279093  0.74753226  1
  Zn  Zn101  1  0.62918102  0.87211026  0.73858270  1
  Zn  Zn102  1  0.74778053  0.75482463  0.50691209  1
  Zn  Zn103  1  0.26022256  0.01123362  0.24426779  1
  Zn  Zn104  1  0.49174838  0.75747546  0.74739360  1
  Zn  Zn105  1  0.24978167  0.24882949  0.00082215  1
  Zn  Zn106  1  0.62598259  0.62370637  0.00232510  1
  Zn  Zn107  1  0.18944288  0.18807773  0.18998687  1
  Zn  Zn108  1  0.19168171  0.18974264  0.68516505  1
  Zn  Zn109  1  0.18681288  0.68856375  0.19145068  1
  Zn  Zn110  1  0.18483005  0.68388493  0.69145150  1
  Zn  Zn111  1  0.68481725  0.18896753  0.18700350  1
  Zn  Zn112  1  0.68715992  0.17952746  0.68943872  1
  Zn  Zn113  1  0.68877319  0.67982480  0.18548308  1
  Zn  Zn114  1  0.68446691  0.68779682  0.68941265  1
  Zn  Zn115  1  0.30947632  0.31029212  0.31703837  1
  Zn  Zn116  1  0.31486479  0.30931141  0.80982984  1
  Zn  Zn117  1  0.31511025  0.81549901  0.31885710  1
  Zn  Zn118  1  0.31261705  0.81223777  0.81522681  1
  Zn  Zn119  1  0.81486990  0.43432223  0.31332916  1
  Zn  Zn120  1  0.81204089  0.31096469  0.81490240  1
  Zn  Zn121  1  0.81247974  0.81149292  0.31441221  1
  Zn  Zn122  1  0.80920557  0.82101855  0.81127050  1
  Zn  Zn123  1  0.18657567  0.43658954  0.43817990  1
  Zn  Zn124  1  0.19015466  0.43512787  0.93622405  1
  Zn  Zn125  1  0.19053447  0.93693535  0.43825529  1
  Zn  Zn126  1  0.18779047  0.93387270  0.93611085  1
  Zn  Zn127  1  0.68144493  0.43363173  0.44056162  1
  Zn  Zn128  1  0.68873854  0.43464569  0.93778445  1
  Zn  Zn129  1  0.68603135  0.93930628  0.43648484  1
  Zn  Zn130  1  0.68707443  0.93671766  0.93628799  1
  Zn  Zn131  1  0.31637044  0.06024172  0.05889049  1
  Zn  Zn132  1  0.31032138  0.06438248  0.55547431  1
  Zn  Zn133  1  0.31184444  0.56751810  0.05986462  1
  Zn  Zn134  1  0.30897307  0.56091612  0.56032221  1
  Zn  Zn135  1  0.81489672  0.06340107  0.06404238  1
  Zn  Zn136  1  0.81233156  0.06345054  0.55828324  1
  Zn  Zn137  1  0.81731570  0.56719733  0.05712337  1
  Zn  Zn138  1  0.81022973  0.56211432  0.56187891  1
  Zn  Zn139  1  0.44047161  0.43482105  0.19057419  1
  Zn  Zn140  1  0.44022054  0.43867293  0.68866958  1
  Zn  Zn141  1  0.43809859  0.93778868  0.19181752  1
  Zn  Zn142  1  0.43480497  0.93553688  0.69378031  1
  Zn  Zn143  1  0.94236227  0.43730314  0.18301275  1
  Zn  Zn144  1  0.93880380  0.43044427  0.68646345  1
  Zn  Zn145  1  0.94037673  0.93696813  0.18595256  1
  Zn  Zn146  1  0.93695843  0.93972600  0.68778871  1
  Zn  Zn147  1  0.06519714  0.06096449  0.31208178  1
  Zn  Zn148  1  0.06212430  0.06144356  0.81529789  1
  Zn  Zn149  1  0.06289064  0.56379309  0.30886174  1
  Zn  Zn150  1  0.06047236  0.56168447  0.80798340  1
  Zn  Zn151  1  0.56220421  0.06422448  0.30958942  1
  Zn  Zn152  1  0.56474147  0.05638654  0.80665153  1
  Zn  Zn153  1  0.56384847  0.56240572  0.30969687  1
  Zn  Zn154  1  0.56686956  0.56109335  0.81460347  1
  Zn  Zn155  1  0.42809030  0.18687877  0.43767784  1
  Zn  Zn156  1  0.44121324  0.18458518  0.93631284  1
  Zn  Zn157  1  0.45365419  0.71286118  0.45476110  1
  Zn  Zn158  1  0.43497386  0.68782757  0.94000702  1
  Zn  Zn159  1  0.93315154  0.19249906  0.43501568  1
  Zn  Zn160  1  0.93918879  0.18914032  0.93939633  1
  Zn  Zn161  1  0.93486648  0.69103596  0.44057617  1
  Zn  Zn162  1  0.93902611  0.68887156  0.93560775  1
  Zn  Zn163  1  0.06238527  0.31411878  0.06140157  1
  Zn  Zn164  1  0.06176639  0.31447687  0.56381366  1
  Zn  Zn165  1  0.05752058  0.81710101  0.06317730  1
  Zn  Zn166  1  0.06177187  0.81458423  0.56317025  1
  Zn  Zn167  1  0.56718523  0.31132499  0.06301873  1
  Zn  Zn168  1  0.56050186  0.30954137  0.56159017  1
  Zn  Zn169  1  0.56106878  0.81472979  0.06176699  1
  Zn  Zn170  1  0.56297067  0.81406718  0.56118648  1
  O  O171  1  0.12208318  0.11753180  0.12006470  1
  O  O172  1  0.12592787  0.11120933  0.62960826  1
  O  O173  1  0.11804980  0.61562860  0.13186553  1
  O  O174  1  0.12832450  0.61559661  0.61515101  1
  O  O175  1  0.61389931  0.11446846  0.12908549  1
  O  O176  1  0.62833770  0.11007231  0.61451140  1
  O  O177  1  0.62048394  0.60882937  0.12345694  1
  O  O178  1  0.62055919  0.61822884  0.61679754  1
  O  O179  1  0.38570822  0.38702598  0.36616585  1
  O  O180  1  0.38328765  0.37999270  0.88027736  1
  O  O181  1  0.37560171  0.88765369  0.38130825  1
  O  O182  1  0.38921618  0.86821663  0.88681625  1
  O  O183  1  0.88337538  0.37366983  0.38585679  1
  O  O184  1  0.88171532  0.38224332  0.88387317  1
  O  O185  1  0.88479898  0.87367004  0.38377655  1
  O  O186  1  0.87537360  0.88221949  0.88817655  1
  O  O187  1  0.25113485  0.01300636  0.37496962  1
  O  O188  1  0.24196822  0.00904573  0.86207433  1
  O  O189  1  0.26106285  0.51076714  0.38389790  1
  O  O190  1  0.25944697  0.49817207  0.86722632  1
  O  O191  1  0.74889265  0.01055365  0.36434002  1
  O  O192  1  0.76341445  0.00319780  0.88150699  1
  O  O193  1  0.74688792  0.50860067  0.37969429  1
  O  O194  1  0.75865694  0.50783029  0.87722780  1
  O  O195  1  0.24185618  0.49039114  0.11804972  1
  O  O196  1  0.24128662  0.50294964  0.63637405  1
  O  O197  1  0.23765714  1.00561974  0.12546765  1
  O  O198  1  0.24163810  0.99290749  0.63225030  1
  O  O199  1  0.73821960  0.50353581  0.11674588  1
  O  O200  1  0.74360754  0.49253011  0.62647169  1
  O  O201  1  0.74130081  1.00868805  0.13651721  1
  O  O202  1  0.75963664  0.99635647  0.63430325  1
  O  O203  1  0.00740148  0.36848635  0.25572730  1
  O  O204  1  0.01147168  0.36573033  0.75536768  1
  O  O205  1  0.00668637  0.87543664  0.26120582  1
  O  O206  1  0.00854937  0.87071233  0.74879012  1
  O  O207  1  0.50929336  0.36837288  0.25868948  1
  O  O208  1  0.50647612  0.37288561  0.76014614  1
  O  O209  1  0.51096200  0.86460830  0.25615765  1
  O  O210  1  0.50502005  0.87737016  0.76286381  1
  O  O211  1  0.50442607  0.13679867  0.24141730  1
  O  O212  1  0.48106838  0.12240481  0.75638431  1
  O  O213  1  0.49137101  0.63226546  0.24878712  1
  O  O214  1  0.50269013  0.61720037  0.73499617  1
  O  O215  1  0.99698552  0.13232603  0.24685313  1
  O  O216  1  1.00712013  0.13974463  0.74875610  1
  O  O217  1  0.99631729  0.62745555  0.23825580  1
  O  O218  1  0.99904749  0.63876965  0.74790899  1
  O  O219  1  0.37701668  0.26243524  0.00128791  1
  O  O220  1  0.36790314  0.24943620  0.51296877  1
  O  O221  1  0.38111451  0.75875916  0.01328632  1
  O  O222  1  0.35278679  0.73785496  0.50120271  1
  O  O223  1  0.86987847  0.25612938  0.00529366  1
  O  O224  1  0.86917716  0.25896253  0.50776504  1
  O  O225  1  0.86953504  0.75641106  0.00524713  1
  O  O226  1  0.87592211  0.76066791  0.51339258  1
  O  O227  1  0.13850091  0.25173685  0.50583420  1
  O  O228  1  0.12517303  0.24352321  0.99301920  1
  O  O229  1  0.12956462  0.74247058  0.49652948  1
  O  O230  1  0.12010542  0.76114597  0.98300975  1
  O  O231  1  0.62949712  0.24168096  0.49621239  1
  O  O232  1  0.63729680  0.25738081  0.99168296  1
  O  O233  1  0.62811257  0.74018370  0.49083665  1
  O  O234  1  0.63281361  0.74916340  0.99555149  1
  O  O235  1  0.50079362  0.24280017  0.13073227  1
  O  O236  1  0.48361359  0.25378653  0.62570647  1
  O  O237  1  0.49521683  0.74705975  0.13615239  1
  O  O238  1  0.50893700  0.73130577  0.62762431  1
  O  O239  1  0.99446425  0.24504204  0.12962036  1
  O  O240  1  0.99311885  0.24921075  0.63192971  1
  O  O241  1  0.99240348  0.74131381  0.12284103  1
  O  O242  1  0.99103574  0.75422357  0.63568399  1
  O  O243  1  0.00148819  0.25910913  0.36638294  1
  O  O244  1  0.00530641  0.25468165  0.86813774  1
  O  O245  1  0.00508609  0.75960168  0.37596340  1
  O  O246  1  0.00447757  0.75360913  0.86183347  1
  O  O247  1  0.50094774  0.25674738  0.36995880  1
  O  O248  1  0.50781809  0.25967895  0.87534112  1
  O  O249  1  0.51778710  0.73776395  0.35920804  1
  O  O250  1  0.50985713  0.75596005  0.87970100  1
  O  O251  1  0.25269924  0.13677375  0.48590635  1
  O  O252  1  0.24751232  0.12481375  0.99025615  1
  O  O253  1  0.23813096  0.62909655  0.49366421  1
  O  O254  1  0.25938988  0.63659238  0.99094992  1
  O  O255  1  0.74368794  0.12727790  0.49027558  1
  O  O256  1  0.75325713  0.13715576  1.00232633  1
  O  O257  1  0.73962681  0.62548182  0.49168123  1
  O  O258  1  0.74960858  0.63633439  0.98860349  1
  O  O259  1  0.25923585  0.37319783  0.00754671  1
  O  O260  1  0.25301090  0.35909121  0.49009952  1
  O  O261  1  0.26493853  0.86853196  -0.00905453  1
  O  O262  1  0.24729325  0.86489286  0.51016613  1
  O  O263  1  0.76469345  0.36940985  -0.00218994  1
  O  O264  1  0.75487878  0.36797209  0.50427899  1
  O  O265  1  0.75797997  0.86242365  -0.00335124  1
  O  O266  1  0.76682664  0.87465342  0.49140537  1
  O  O267  1  0.11979089  0.48805756  0.23757759  1
  O  O268  1  0.13052136  0.49283240  0.74491557  1
  O  O269  1  0.12638627  0.99309476  0.24064777  1
  O  O270  1  0.12975894  0.99344258  0.74337526  1
  O  O271  1  0.61934959  0.49298025  0.23534634  1
  O  O272  1  0.62810578  0.49035324  0.74467059  1
  O  O273  1  0.63097137  0.99359316  0.24337783  1
  O  O274  1  0.63099196  1.00059726  0.72962762  1
  O  O275  1  0.37132410  -0.00763827  0.26630184  1
  O  O276  1  0.36203247  0.01152615  0.74573167  1
  O  O277  1  0.38334077  0.51151805  0.26043221  1
  O  O278  1  0.36656804  0.49730750  0.75635144  1
  O  O279  1  0.86685731  0.00553660  0.24833689  1
  O  O280  1  0.86640339  -0.00592948  0.76370213  1
  O  O281  1  0.87463220  0.49702102  0.24471549  1
  O  O282  1  0.87722755  0.49129146  0.76478287  1
  O  O283  1  0.11903897  0.37159778  0.36586121  1
  O  O284  1  0.12058147  0.36995788  0.86667563  1
  O  O285  1  0.11702141  0.87123616  0.37031516  1
  O  O286  1  0.12138252  0.86863226  0.86228971  1
  O  O287  1  0.61327401  0.37009214  0.36959220  1
  O  O288  1  0.61827225  0.36923701  0.87034549  1
  O  O289  1  0.62448489  0.86522743  0.36719816  1
  O  O290  1  0.61531912  0.86368432  0.88037077  1
  O  O291  1  0.38833399  0.12549347  0.12285714  1
  O  O292  1  0.37062495  0.12682059  0.63515816  1
  O  O293  1  0.37614081  0.63279462  0.13691068  1
  O  O294  1  0.39046198  0.61684909  0.62454820  1
  O  O295  1  0.88315269  0.13345994  0.12975377  1
  O  O296  1  0.87644645  0.14029790  0.61855559  1
  O  O297  1  0.88471109  0.63385207  0.12487668  1
  O  O298  1  0.87592523  0.63920007  0.61802233  1
  O  O299  1  0.25144361  0.26153434  0.12165853  1
  O  O300  1  0.26084289  0.24668213  0.61334380  1
  O  O301  1  0.26306740  0.74875572  0.12829517  1
  O  O302  1  0.23750439  0.75983769  0.62104923  1
  O  O303  1  0.76262679  0.24554820  0.11921267  1
  O  O304  1  0.75557609  0.25234000  0.62149794  1
  O  O305  1  0.75960548  0.73957552  0.11404973  1
  O  O306  1  0.76332648  0.74857410  0.62771498  1
  O  O307  1  0.24982533  0.24123581  0.38579566  1
  O  O308  1  0.24401272  0.24141368  0.87508631  1
  O  O309  1  0.24392010  0.74195090  0.38453786  1
  O  O310  1  0.22734958  0.75050433  0.86710861  1
  O  O311  1  0.73996210  0.23618502  0.38106928  1
  O  O312  1  0.74187243  0.25349008  0.88385202  1
  O  O313  1  0.74028561  0.74014865  0.37658859  1
  O  O314  1  0.74356515  0.74532328  0.88053236  1
  O  O315  1  0.00790500  0.12001536  0.00491486  1
  O  O316  1  -0.00720489  0.11151141  0.49632697  1
  O  O317  1  -0.00421147  0.61472131  0.00936291  1
  O  O318  1  0.01386596  0.62279101  0.48959409  1
  O  O319  1  0.49674564  0.11266514  0.00705832  1
  O  O320  1  0.51224650  0.12996821  0.49286411  1
  O  O321  1  0.50112090  0.61016293  0.00034466  1
  O  O322  1  0.50982082  0.61967542  0.50777883  1
  O  O323  1  0.50641113  0.38604133  0.48843331  1
  O  O324  1  0.49424882  0.38011302  0.99298780  1
  O  O325  1  0.48313291  0.82984288  0.48495253  1
  O  O326  1  0.49338020  0.88248096  0.99596611  1
  O  O327  1  0.99286243  0.37353854  0.49122148  1
  O  O328  1  0.99371666  0.38387060  0.99421204  1
  O  O329  1  0.99216804  0.88242386  0.49267378  1
  O  O330  1  0.98961816  0.88289307  0.99633612  1
  O  O331  1  0.49491366  0.49559910  0.38074062  1
  O  O332  1  0.49716903  0.48863560  0.88212492  1
  O  O333  1  0.49013360  1.00085867  0.37251407  1
  O  O334  1  0.51247428  0.98926829  0.88677682  1
  O  O335  1  1.00695818  0.48712413  0.37720064  1
  O  O336  1  0.99560047  0.49729475  0.88082760  1
  O  O337  1  0.99951124  0.99139711  0.38148804  1
  O  O338  1  0.98871383  0.99873184  0.87992267  1
  O  O339  1  0.00848457  0.00670821  0.11895370  1
  O  O340  1  0.00643886  0.00321077  0.61790920  1
  O  O341  1  0.01011187  0.50698674  0.11572298  1
  O  O342  1  0.01359030  0.49501105  0.62498642  1
  O  O343  1  0.50639961  0.00680411  0.12132992  1
  O  O344  1  0.50501641  -0.00163171  0.62436099  1
  O  O345  1  0.50265563  0.49731670  0.11397217  1
  O  O346  1  0.50538185  0.50505872  0.61605700  1
  O  O347  1  0.23968569  0.36806465  0.24137971  1
  O  O348  1  0.23978123  0.38267582  0.75706754  1
  O  O349  1  0.23545863  0.87714689  0.25893267  1
  O  O350  1  0.24173516  0.88235203  0.74577214  1
  O  O351  1  0.73321814  0.37176739  0.26165374  1
  O  O352  1  0.74496825  0.37596559  0.74347996  1
  O  O353  1  0.74162528  0.88636290  0.25712453  1
  O  O354  1  0.73981625  0.89645860  0.76347770  1
  O  O355  1  0.24905225  0.13002941  0.26772840  1
  O  O356  1  0.25680534  0.11860902  0.75457238  1
  O  O357  1  0.26043288  0.63184283  0.26337843  1
  O  O358  1  0.24732199  0.61164278  0.75836032  1
  O  O359  1  0.75293289  0.11936190  0.25654095  1
  O  O360  1  0.74532565  0.10366600  0.75206349  1
  O  O361  1  0.75073887  0.62466482  0.26604770  1
  O  O362  1  0.74623829  0.62298335  0.76417640  1
  O  O363  1  0.36675118  0.11221425  0.37556250  1
  O  O364  1  0.36265043  0.13364074  0.86447889  1
  O  O365  1  0.36902759  0.62048110  0.36841305  1
  O  O366  1  0.38452167  0.60736862  0.87074231  1
  O  O367  1  0.86444242  0.12405067  0.36897010  1
  O  O368  1  0.87868151  0.11285542  0.87944203  1
  O  O369  1  0.85865671  0.62997226  0.37886727  1
  O  O370  1  0.86770417  0.61493031  0.88149375  1
  O  O371  1  0.13165507  0.38273893  0.12977278  1
  O  O372  1  0.12403637  0.38245143  0.63672870  1
  O  O373  1  0.11750476  0.88441944  0.13477975  1
  O  O374  1  0.13113646  0.88318591  0.63429672  1
  O  O375  1  0.62286412  0.38621297  0.13239400  1
  O  O376  1  0.62948039  0.37680875  0.62919735  1
  O  O377  1  0.61960686  0.88445516  0.13768138  1
  O  O378  1  0.62180941  0.88998421  0.61957470  1
  O  O379  1  0.11217305  0.26046972  0.24538005  1
  O  O380  1  0.12089095  0.25664712  0.75244983  1
  O  O381  1  0.12105229  0.75883114  0.25662421  1
  O  O382  1  0.11071092  0.75599419  0.75329429  1
  O  O383  1  0.61532794  0.25643705  0.25458902  1
  O  O384  1  0.62445200  0.25381173  0.75712533  1
  O  O385  1  0.62377633  0.75544566  0.25117078  1
  O  O386  1  0.61996603  0.75289375  0.76151271  1
  O  O387  1  0.38960857  0.26014639  0.24841793  1
  O  O388  1  0.37175379  0.23909637  0.73590579  1
  O  O389  1  0.38338877  0.74606782  0.24772439  1
  O  O390  1  0.37994358  0.74595064  0.75668044  1
  O  O391  1  0.88926528  0.24542989  0.23922751  1
  O  O392  1  0.88619456  0.25962976  0.74152200  1
  O  O393  1  0.87496089  0.75105186  0.23721451  1
  O  O394  1  0.88406229  0.75846958  0.73984114  1
  O  O395  1  0.38669746  0.50824997  0.48880446  1
  O  O396  1  0.38202717  0.48934525  0.99226584  1
  O  O397  1  0.37001211  0.99804674  0.48440086  1
  O  O398  1  0.38842496  0.98787055  1.00624432  1
  O  O399  1  0.87751928  0.48453297  0.51027757  1
  O  O400  1  0.88545827  0.49297893  0.99352839  1
  O  O401  1  0.88317114  0.98918570  0.49844981  1
  O  O402  1  0.87811827  0.99466266  0.99455549  1
  O  O403  1  0.12130838  0.00229499  0.00578380  1
  O  O404  1  0.11499439  -0.00971027  0.51035573  1
  O  O405  1  0.11568577  0.49287870  0.00731890  1
  O  O406  1  0.12538683  0.50541113  0.50885012  1
  O  O407  1  0.61637233  -0.01093171  0.01368619  1
  O  O408  1  0.62687986  0.00516916  0.50990631  1
  O  O409  1  0.61803356  0.49484894  0.01063834  1
  O  O410  1  0.61481950  0.50703670  0.50428673  1
  O  O411  1  0.36711790  0.37755917  0.11845077  1
  O  O412  1  0.37217336  0.36626805  0.62964600  1
  O  O413  1  0.38262568  0.86600085  0.11876867  1
  O  O414  1  0.35926695  0.88107906  0.62495395  1
  O  O415  1  0.88602315  0.36325202  0.11352624  1
  O  O416  1  0.86992288  0.36434427  0.61758734  1
  O  O417  1  0.88161585  0.86531201  0.11305142  1
  O  O418  1  0.87899535  0.87065599  0.61256161  1
  O  O419  1  0.13457113  0.12768074  0.37594268  1
  O  O420  1  0.13469392  0.12918800  0.87928367  1
  O  O421  1  0.13394747  0.62757125  0.37893353  1
  O  O422  1  0.11747019  0.63992912  0.87212909  1
  O  O423  1  0.63074346  0.12725590  0.38067671  1
  O  O424  1  0.61512545  0.13846232  0.87037743  1
  O  O425  1  0.63415973  0.62772434  0.38050303  1
  O  O426  1  0.63227057  0.63331540  0.87962709  1
