# generated using pymatgen
data_V85Zn86O256
_symmetry_space_group_name_H-M   'P 1'
_cell_length_a   16.97424116
_cell_length_b   16.96714511
_cell_length_c   16.97074008
_cell_angle_alpha   90.02908764
_cell_angle_beta   90.11957319
_cell_angle_gamma   90.07684253
_symmetry_Int_Tables_number   1
_chemical_formula_structural   V85Zn86O256
_chemical_formula_sum   'V85 Zn86 O256'
_cell_volume   4887.63235710
_cell_formula_units_Z   1
loop_
 _symmetry_equiv_pos_site_id
 _symmetry_equiv_pos_as_xyz
  1  'x, y, z'
loop_
 _atom_site_type_symbol
 _atom_site_label
 _atom_site_symmetry_multiplicity
 _atom_site_fract_x
 _atom_site_fract_y
 _atom_site_fract_z
 _atom_site_occupancy
  V  V0  1  0.74968256  0.62613477  0.37346235  1
  V  V1  1  0.12358147  0.12353299  0.01360481  1
  V  V2  1  0.50532117  0.75219434  0.75868165  1
  V  V3  1  0.62497283  0.49842449  0.62193373  1
  V  V4  1  0.62789761  0.12644384  -0.00409693  1
  V  V5  1  0.49521660  0.87114422  0.37791140  1
  V  V6  1  0.62052892  0.37007142  0.24654246  1
  V  V7  1  0.24989268  0.25027417  0.50545920  1
  V  V8  1  0.12811749  0.25009703  0.87416736  1
  V  V9  1  0.87000830  0.12561898  0.75905134  1
  V  V10  1  0.87680779  0.50166353  0.37817896  1
  V  V11  1  0.50036489  -0.00433066  -0.00207233  1
  V  V12  1  0.74989500  0.00292297  0.76021742  1
  V  V13  1  0.37007851  0.87274213  0.01171279  1
  V  V14  1  0.75223004  0.24892908  -0.00580633  1
  V  V15  1  0.62492091  0.25302993  0.87044260  1
  V  V16  1  0.12917533  0.37385998  0.74427001  1
  V  V17  1  0.74848513  0.75069750  0.49787533  1
  V  V18  1  0.25256497  0.38008740  0.12154579  1
  V  V19  1  0.16387796  0.39575642  0.28114036  1
  V  V20  1  0.87419717  0.50359221  0.86990634  1
  V  V21  1  0.25487388  0.87372122  0.62156491  1
  V  V22  1  -0.00048081  0.62883367  0.63181005  1
  V  V23  1  0.75026872  0.12912426  0.37683066  1
  V  V24  1  0.25199593  0.12300572  0.87630557  1
  V  V25  1  0.75276732  0.37517853  0.12478570  1
  V  V26  1  0.25103476  0.12009834  0.36895170  1
  V  V27  1  0.12505770  0.12285317  0.50176997  1
  V  V28  1  0.37919383  0.12745812  0.75192465  1
  V  V29  1  0.37497624  0.49884289  0.87233642  1
  V  V30  1  0.49610734  0.13904035  0.12816416  1
  V  V31  1  0.12494843  0.49688331  0.12239872  1
  V  V32  1  0.11846653  0.62379726  0.49423160  1
  V  V33  1  0.62348405  0.24933071  0.37223697  1
  V  V34  1  0.87485327  0.87575231  0.50010997  1
  V  V35  1  0.87851278  0.63242821  0.25093483  1
  V  V36  1  0.49933014  0.37344552  0.37023846  1
  V  V37  1  -0.00000491  0.24953719  0.74937257  1
  V  V38  1  0.87961963  0.23749530  0.12988381  1
  V  V39  1  -0.00084193  0.12392212  0.62698536  1
  V  V40  1  0.37471729  0.25097691  0.62776514  1
  V  V41  1  0.37552105  0.62857717  0.74400461  1
  V  V42  1  0.62412574  0.00129665  0.12724099  1
  V  V43  1  0.37240592  -0.00270571  0.37023027  1
  V  V44  1  0.00304120  0.63478537  0.13099808  1
  V  V45  1  0.62448669  0.50628709  0.12144299  1
  V  V46  1  0.62487682  -0.00063582  0.62620924  1
  V  V47  1  0.74826506  0.37234988  0.62077647  1
  V  V48  1  0.24163998  0.87777324  0.14976086  1
  V  V49  1  0.50269232  0.50667746  -0.00020875  1
  V  V50  1  0.75201407  0.00516460  0.25177503  1
  V  V51  1  0.86955831  0.24871492  0.61976565  1
  V  V52  1  -0.00588791  0.37670542  0.37475356  1
  V  V53  1  0.37992644  -0.00776269  0.87563389  1
  V  V54  1  0.62144337  0.87297128  0.25179405  1
  V  V55  1  0.37311248  0.37577551  0.50283342  1
  V  V56  1  -0.00215903  -0.00131442  0.50333143  1
  V  V57  1  0.35497546  0.61802578  0.24646525  1
  V  V58  1  0.49362228  -0.00415670  0.50031512  1
  V  V59  1  0.25752011  0.24970570  0.00477842  1
  V  V60  1  0.62341749  0.62510028  0.49482981  1
  V  V61  1  0.12163395  0.24920862  0.37695010  1
  V  V62  1  0.24635383  0.63384849  0.87555117  1
  V  V63  1  0.00354961  0.37730528  0.87536608  1
  V  V64  1  0.00510087  0.86127237  0.87390490  1
  V  V65  1  0.87397888  0.37684719  0.50007222  1
  V  V66  1  0.49494981  0.50051760  0.49341184  1
  V  V67  1  0.87908419  0.75051130  0.63125472  1
  V  V68  1  0.50006552  0.12905202  0.62809017  1
  V  V69  1  0.25026727  0.49514102  0.74270247  1
  V  V70  1  0.12517986  -0.00481930  0.63226895  1
  V  V71  1  0.62223543  0.87165371  0.76253167  1
  V  V72  1  0.62751501  0.12977671  0.50021379  1
  V  V73  1  0.11843587  0.49766829  0.62269834  1
  V  V74  1  0.74333193  0.74311021  -0.00097086  1
  V  V75  1  0.87793536  0.37411670  0.00082110  1
  V  V76  1  0.37805669  0.37140597  0.00224611  1
  V  V77  1  0.49862816  0.62627597  0.61854991  1
  V  V78  1  0.25608067  0.74539764  0.49518612  1
  V  V79  1  0.74981989  0.87556953  0.62631632  1
  V  V80  1  -0.00097134  0.24798501  0.24695625  1
  V  V81  1  0.37967255  0.13544653  0.24748864  1
  V  V82  1  0.49986944  0.37045557  0.86515305  1
  V  V83  1  0.87377885  0.00427521  0.37483193  1
  V  V84  1  0.11719789  0.75601117  0.36744863  1
  Zn  Zn85  1  0.12238972  -0.00396980  0.14211882  1
  Zn  Zn86  1  0.48030000  0.75166661  0.23564980  1
  Zn  Zn87  1  0.87978052  0.00098534  0.88019391  1
  Zn  Zn88  1  0.74936262  0.50104116  0.24845905  1
  Zn  Zn89  1  0.87216618  0.63299573  0.75585602  1
  Zn  Zn90  1  0.38211519  0.76130057  0.61395141  1
  Zn  Zn91  1  0.25043732  -0.00759967  0.75202409  1
  Zn  Zn92  1  0.74921007  0.50437446  0.74738169  1
  Zn  Zn93  1  0.11432601  0.63174345  -0.01084523  1
  Zn  Zn94  1  0.25384939  0.74833341  0.01279297  1
  Zn  Zn95  1  0.87795076  0.76034731  0.12882516  1
  Zn  Zn96  1  0.00019338  0.50182556  0.00194528  1
  Zn  Zn97  1  0.34148022  0.48938032  0.35631500  1
  Zn  Zn98  1  0.71788339  0.64698592  0.86468297  1
  Zn  Zn99  1  0.49436380  0.63372791  0.12491511  1
  Zn  Zn100  1  0.12427877  0.84256669  0.76018957  1
  Zn  Zn101  1  0.00059540  0.87369029  0.36579060  1
  Zn  Zn102  1  0.87779051  0.87744516  0.00389703  1
  Zn  Zn103  1  0.61979950  0.74683628  0.37174508  1
  Zn  Zn104  1  -0.00209776  0.00011138  0.00486782  1
  Zn  Zn105  1  0.62122356  0.36783347  0.74275516  1
  Zn  Zn106  1  0.75513596  0.87439357  0.12420170  1
  Zn  Zn107  1  0.18721500  0.20216195  0.19400247  1
  Zn  Zn108  1  0.18899284  0.18275777  0.68970721  1
  Zn  Zn109  1  0.18829112  0.69652213  0.18084221  1
  Zn  Zn110  1  0.19160864  0.68603868  0.68040839  1
  Zn  Zn111  1  0.68809347  0.18779788  0.18575617  1
  Zn  Zn112  1  0.68962063  0.18619735  0.68778408  1
  Zn  Zn113  1  0.69053816  0.68974156  0.18517373  1
  Zn  Zn114  1  0.68901834  0.68745893  0.68537804  1
  Zn  Zn115  1  0.31554780  0.30809940  0.31742454  1
  Zn  Zn116  1  0.31340543  0.31182728  0.81272474  1
  Zn  Zn117  1  0.30967535  0.80621536  0.31643143  1
  Zn  Zn118  1  0.31377073  0.81344103  0.80558393  1
  Zn  Zn119  1  0.81177308  0.30859328  0.30900710  1
  Zn  Zn120  1  0.81116685  0.31806113  0.80821921  1
  Zn  Zn121  1  0.81063049  0.81657105  0.31206652  1
  Zn  Zn122  1  0.81567977  0.81842830  0.81854482  1
  Zn  Zn123  1  0.18338697  0.43277427  0.45267032  1
  Zn  Zn124  1  0.18841254  0.44462354  0.93669587  1
  Zn  Zn125  1  0.18856992  0.93396371  0.44025768  1
  Zn  Zn126  1  0.18532571  0.93653782  0.93802488  1
  Zn  Zn127  1  0.68918237  0.43765258  0.43662585  1
  Zn  Zn128  1  0.66892984  0.46902093  0.91611521  1
  Zn  Zn129  1  0.68377862  0.93919023  0.43907009  1
  Zn  Zn130  1  0.69113177  0.93159831  0.94201467  1
  Zn  Zn131  1  0.30910460  0.05581347  0.07161660  1
  Zn  Zn132  1  0.31109378  0.06131293  0.56094022  1
  Zn  Zn133  1  0.31778726  0.56119320  0.06393140  1
  Zn  Zn134  1  0.30786954  0.56356574  0.55934934  1
  Zn  Zn135  1  0.81238564  0.06131765  0.06144456  1
  Zn  Zn136  1  0.81027316  0.06195278  0.56555988  1
  Zn  Zn137  1  0.81517074  0.56378728  0.05951178  1
  Zn  Zn138  1  0.81305736  0.56367631  0.56059344  1
  Zn  Zn139  1  0.43816549  0.44090808  0.18621184  1
  Zn  Zn140  1  0.43742303  0.43939555  0.68348626  1
  Zn  Zn141  1  0.43760835  0.94472589  0.18965595  1
  Zn  Zn142  1  0.43939219  0.93813470  0.69019755  1
  Zn  Zn143  1  0.93777650  0.43961614  0.19142138  1
  Zn  Zn144  1  0.94090885  0.43796445  0.68639198  1
  Zn  Zn145  1  0.94176902  0.95269481  0.17858549  1
  Zn  Zn146  1  0.93838248  0.93436233  0.69572132  1
  Zn  Zn147  1  0.05899791  0.06409847  0.31541969  1
  Zn  Zn148  1  0.05995640  0.05828675  0.81823785  1
  Zn  Zn149  1  0.06237605  0.56173793  0.31194481  1
  Zn  Zn150  1  0.06381408  0.56863440  0.80634212  1
  Zn  Zn151  1  0.55848661  0.06267379  0.31199550  1
  Zn  Zn152  1  0.56401111  0.06240026  0.81347910  1
  Zn  Zn153  1  0.55716870  0.56145371  0.30446249  1
  Zn  Zn154  1  0.55642782  0.56332204  0.80710340  1
  Zn  Zn155  1  0.43846928  0.18656496  0.43700013  1
  Zn  Zn156  1  0.44294554  0.18545397  0.93929847  1
  Zn  Zn157  1  0.42826197  0.67741336  0.41560852  1
  Zn  Zn158  1  0.43459721  0.68948700  0.93699838  1
  Zn  Zn159  1  0.93702892  0.18776995  0.43865053  1
  Zn  Zn160  1  0.94078229  0.19030316  0.94038905  1
  Zn  Zn161  1  0.93960212  0.68917356  0.44121607  1
  Zn  Zn162  1  0.93108285  0.69204494  0.94714564  1
  Zn  Zn163  1  0.06627723  0.30990433  0.06318563  1
  Zn  Zn164  1  0.05797376  0.31243590  0.56151096  1
  Zn  Zn165  1  0.07211680  0.81425602  0.05347532  1
  Zn  Zn166  1  0.06387030  0.81232222  0.56111468  1
  Zn  Zn167  1  0.56468668  0.31790070  0.05605391  1
  Zn  Zn168  1  0.55969663  0.31115917  0.55677169  1
  Zn  Zn169  1  0.56491759  0.81044543  0.05903886  1
  Zn  Zn170  1  0.56450057  0.81200623  0.56537987  1
  O  O171  1  0.13963958  0.13098077  0.11459091  1
  O  O172  1  0.11970521  0.11844597  0.62010543  1
  O  O173  1  0.11215565  0.61281574  0.13702837  1
  O  O174  1  0.11630589  0.61644296  0.61701003  1
  O  O175  1  0.61794731  0.11979848  0.11770523  1
  O  O176  1  0.61819768  0.12284099  0.61940760  1
  O  O177  1  0.62756812  0.60711667  0.13203446  1
  O  O178  1  0.61950792  0.61647596  0.61506064  1
  O  O179  1  0.38390562  0.37364058  0.38421119  1
  O  O180  1  0.38116188  0.37785940  0.88073899  1
  O  O181  1  0.38438611  0.88500642  0.37094542  1
  O  O182  1  0.37076635  0.88912150  0.87865799  1
  O  O183  1  0.87414445  0.37988239  0.38182029  1
  O  O184  1  0.88818248  0.37776111  0.87766783  1
  O  O185  1  0.87743152  0.88701122  0.37964781  1
  O  O186  1  0.89077534  0.88117653  0.87599753  1
  O  O187  1  0.25926385  0.01041803  0.38748459  1
  O  O188  1  0.26063419  0.01068107  0.87568263  1
  O  O189  1  0.23537275  0.44145953  0.35233869  1
  O  O190  1  0.25687962  0.50675027  0.86268609  1
  O  O191  1  0.75377565  0.00810838  0.37159825  1
  O  O192  1  0.75047816  -0.00270741  0.86211547  1
  O  O193  1  0.75940491  0.50666408  0.37416114  1
  O  O194  1  0.77297486  0.48414126  0.87107100  1
  O  O195  1  0.23994129  0.48950221  0.11600433  1
  O  O196  1  0.23820937  0.50761232  0.63627569  1
  O  O197  1  0.24157703  0.98684992  0.12993400  1
  O  O198  1  0.24229942  0.99278413  0.62256204  1
  O  O199  1  0.74402845  0.48849389  0.12131092  1
  O  O200  1  0.74048096  0.49229183  0.62041748  1
  O  O201  1  0.73817926  1.00752017  0.13617536  1
  O  O202  1  0.74363446  0.99506977  0.63394363  1
  O  O203  1  -0.00697817  0.36742889  0.26702526  1
  O  O204  1  0.00762140  0.36900903  0.75663999  1
  O  O205  1  0.02463120  0.91673666  0.25775177  1
  O  O206  1  0.00681076  0.87993608  0.76626803  1
  O  O207  1  0.50974670  0.37785683  0.25711864  1
  O  O208  1  0.49842843  0.37747359  0.76069861  1
  O  O209  1  0.50525534  0.87606997  0.25890391  1
  O  O210  1  0.50967478  0.86501178  0.74236887  1
  O  O211  1  0.49382338  0.12209310  0.24013440  1
  O  O212  1  0.49193640  0.12023409  0.73940392  1
  O  O213  1  0.49236007  0.63015443  0.24640429  1
  O  O214  1  0.49360625  0.63014682  0.73961950  1
  O  O215  1  1.02222073  0.15012973  0.25140992  1
  O  O216  1  0.99127071  0.13035552  0.74514420  1
  O  O217  1  0.99149058  0.61764250  0.24104037  1
  O  O218  1  0.99165546  0.62172531  0.73636442  1
  O  O219  1  0.36814922  0.25946842  -0.00887303  1
  O  O220  1  0.36918971  0.25410278  0.50648723  1
  O  O221  1  0.37632770  0.77057738  -0.00618864  1
  O  O222  1  0.35933705  0.73730649  0.49402087  1
  O  O223  1  0.87015175  0.25416806  0.00743508  1
  O  O224  1  0.87711481  0.25724915  0.51273180  1
  O  O225  1  0.86504281  0.75654980  0.01113370  1
  O  O226  1  0.86768910  0.75694498  0.50589214  1
  O  O227  1  0.13075525  0.24453259  0.49811647  1
  O  O228  1  0.13850164  0.24334009  0.99352357  1
  O  O229  1  0.12970419  0.73707418  0.49693581  1
  O  O230  1  0.14168188  0.73592373  1.01434896  1
  O  O231  1  0.62106323  0.23845595  0.48952633  1
  O  O232  1  0.63387444  0.24596642  0.99264269  1
  O  O233  1  0.63117944  0.74292786  0.49809866  1
  O  O234  1  0.64256074  0.75597701  0.99912208  1
  O  O235  1  0.50493148  0.23774851  0.11407378  1
  O  O236  1  0.48988171  0.23763986  0.61698191  1
  O  O237  1  0.50454082  0.74751822  0.12507882  1
  O  O238  1  0.49697338  0.74235093  0.62795560  1
  O  O239  1  0.99048881  0.26459768  0.13509090  1
  O  O240  1  0.99068640  0.24496056  0.63050113  1
  O  O241  1  1.00351473  0.73486555  0.12838959  1
  O  O242  1  0.98771070  0.74338845  0.61654647  1
  O  O243  1  0.00201240  0.25548423  0.37039434  1
  O  O244  1  0.00741914  0.25921751  0.86870146  1
  O  O245  1  0.01063233  0.75328631  0.37792225  1
  O  O246  1  -0.00475130  0.76074358  0.87950815  1
  O  O247  1  0.51045089  0.26129595  0.38018918  1
  O  O248  1  0.51170106  0.26028857  0.88355023  1
  O  O249  1  0.49984948  0.76368636  0.37922070  1
  O  O250  1  0.49959367  0.74064677  0.85755963  1
  O  O251  1  0.24637837  0.13329846  0.49224155  1
  O  O252  1  0.25063779  0.13265946  0.99329191  1
  O  O253  1  0.23441297  0.63676139  0.50832324  1
  O  O254  1  0.26560243  0.62448481  0.97961683  1
  O  O255  1  0.73581246  0.11700224  0.49208824  1
  O  O256  1  0.73814670  0.13765114  1.00799580  1
  O  O257  1  0.74396377  0.62997459  0.49300287  1
  O  O258  1  0.75521539  0.63863929  0.99920273  1
  O  O259  1  0.25854721  0.36967526  0.00053479  1
  O  O260  1  0.25981879  0.36001542  0.50070187  1
  O  O261  1  0.26566583  0.87862989  -0.00055334  1
  O  O262  1  0.24421776  0.85836656  0.51037201  1
  O  O263  1  0.75708819  0.36317730  0.01218981  1
  O  O264  1  0.75990041  0.37627331  0.50968824  1
  O  O265  1  0.75505365  0.86669509  0.00537001  1
  O  O266  1  0.75373391  0.87253615  0.50529970  1
  O  O267  1  0.12117951  0.48366748  0.24406054  1
  O  O268  1  0.13172066  0.49471899  0.74149351  1
  O  O269  1  0.09256562  0.96921279  0.26067448  1
  O  O270  1  0.12882377  1.01022256  0.73609334  1
  O  O271  1  0.62782862  0.48558902  0.24031825  1
  O  O272  1  0.61985628  0.49490858  0.72751169  1
  O  O273  1  0.62840002  0.99486107  0.24505432  1
  O  O274  1  0.62994272  0.99549538  0.74549855  1
  O  O275  1  0.37851822  0.01185833  0.26525430  1
  O  O276  1  0.37530092  0.01010324  0.75866392  1
  O  O277  1  0.37053205  0.50676814  0.24528906  1
  O  O278  1  0.36910706  0.50639134  0.74988518  1
  O  O279  1  0.86268971  0.00028749  0.26359716  1
  O  O280  1  0.86590700  0.01027120  0.74988817  1
  O  O281  1  0.87094194  0.50808757  0.26164055  1
  O  O282  1  0.87755755  0.49793902  0.76164191  1
  O  O283  1  0.10943500  0.36965269  0.38225219  1
  O  O284  1  0.12092106  0.37165401  0.86871951  1
  O  O285  1  0.12098048  0.85995694  0.38504470  1
  O  O286  1  0.11430675  0.87669209  0.87501074  1
  O  O287  1  0.62196706  0.36726867  0.36836844  1
  O  O288  1  0.61636889  0.37063753  0.87063400  1
  O  O289  1  0.61347120  0.87918282  0.36745938  1
  O  O290  1  0.62502860  0.88101164  0.86119485  1
  O  O291  1  0.38380864  0.11672789  0.13525258  1
  O  O292  1  0.38133154  0.12948375  0.63147175  1
  O  O293  1  0.37569712  0.62163962  0.13852305  1
  O  O294  1  0.37960663  0.62204750  0.63274281  1
  O  O295  1  0.87323692  0.13891087  0.12282830  1
  O  O296  1  0.87813753  0.13252515  0.63109997  1
  O  O297  1  0.88896042  0.61854353  0.13557607  1
  O  O298  1  0.88247914  0.63310163  0.62128387  1
  O  O299  1  0.24744585  0.26124673  0.10982494  1
  O  O300  1  0.26127689  0.23846570  0.61536346  1
  O  O301  1  0.25779449  0.77207872  0.12909317  1
  O  O302  1  0.25676137  0.75564089  0.61360139  1
  O  O303  1  0.75826227  0.25644552  0.12034849  1
  O  O304  1  0.75901798  0.25850475  0.62891060  1
  O  O305  1  0.75334119  0.75336288  0.11641540  1
  O  O306  1  0.75735499  0.75550470  0.61634061  1
  O  O307  1  0.24376031  0.24204058  0.38643024  1
  O  O308  1  0.24868275  0.24192987  0.88212885  1
  O  O309  1  0.23564338  0.75328710  0.39167274  1
  O  O310  1  0.25754300  0.73431088  0.86906548  1
  O  O311  1  0.73883761  0.23953894  0.37074946  1
  O  O312  1  0.74378246  0.26134227  0.88748095  1
  O  O313  1  0.74791474  0.74465068  0.38118577  1
  O  O314  1  0.75888886  0.74910173  0.88864916  1
  O  O315  1  0.02326468  0.13645320  -0.00236518  1
  O  O316  1  0.00473886  0.12018309  0.50790542  1
  O  O317  1  -0.00217649  0.62147485  0.01854450  1
  O  O318  1  0.01255293  0.62696890  0.51062828  1
  O  O319  1  0.50722058  0.11605356  0.00853672  1
  O  O320  1  0.50759458  0.11769534  0.50729362  1
  O  O321  1  0.48931205  0.60899279  -0.00072071  1
  O  O322  1  0.50243850  0.61893865  0.49804227  1
  O  O323  1  0.49061842  0.37915381  0.49181033  1
  O  O324  1  0.49216476  0.38134018  0.99031280  1
  O  O325  1  0.50710963  0.88751521  0.49387615  1
  O  O326  1  0.48931720  0.88977088  1.00749851  1
  O  O327  1  0.98537483  0.36877775  0.48840550  1
  O  O328  1  0.99858094  0.37226048  0.98825140  1
  O  O329  1  0.99182122  0.88354348  0.49901093  1
  O  O330  1  1.00161793  0.87662146  0.98944406  1
  O  O331  1  0.50748792  0.48290746  0.37982664  1
  O  O332  1  0.49309450  0.48908515  0.88012803  1
  O  O333  1  0.49310605  0.99412313  0.38257581  1
  O  O334  1  0.49159493  1.00900273  0.88689575  1
  O  O335  1  0.98738614  0.49023035  0.37084951  1
  O  O336  1  0.99697225  0.48945244  0.87338789  1
  O  O337  1  0.98448104  1.01020964  0.38693346  1
  O  O338  1  0.99869918  0.99627294  0.88626428  1
  O  O339  1  0.01349303  0.01005129  0.11630306  1
  O  O340  1  0.00591217  0.00396235  0.62258212  1
  O  O341  1  0.01170069  0.49839506  0.12400111  1
  O  O342  1  0.01054120  0.50883908  0.62655774  1
  O  O343  1  0.50968664  0.00929890  0.11793964  1
  O  O344  1  0.50318126  0.00925555  0.61860339  1
  O  O345  1  0.50876626  0.49802366  0.11450486  1
  O  O346  1  0.50505014  0.50459814  0.61327264  1
  O  O347  1  0.25623625  0.35996643  0.22996006  1
  O  O348  1  0.24562799  0.38565232  0.75436811  1
  O  O349  1  0.25195473  0.87776466  0.24931991  1
  O  O350  1  0.24198306  0.87468696  0.73909504  1
  O  O351  1  0.74234531  0.37434604  0.23975702  1
  O  O352  1  0.74667413  0.38122285  0.73336293  1
  O  O353  1  0.73894811  0.89027253  0.25301925  1
  O  O354  1  0.74255992  0.88311643  0.74505781  1
  O  O355  1  0.25429724  0.13283152  0.26413695  1
  O  O356  1  0.26148022  0.12268053  0.76034652  1
  O  O357  1  0.25513153  0.62216489  0.24055708  1
  O  O358  1  0.25943738  0.61652090  0.75545489  1
  O  O359  1  0.73866010  0.11467133  0.26316313  1
  O  O360  1  0.75856827  0.11521019  0.74429477  1
  O  O361  1  0.75941339  0.62242576  0.25611765  1
  O  O362  1  0.75402400  0.62087507  0.75313821  1
  O  O363  1  0.36978026  0.11992584  0.36978574  1
  O  O364  1  0.37148658  0.12090483  0.86951650  1
  O  O365  1  0.36677393  0.60104669  0.36168658  1
  O  O366  1  0.37117582  0.61873003  0.85979604  1
  O  O367  1  0.86065745  0.11766284  0.38641062  1
  O  O368  1  0.87873290  0.13145321  0.86124351  1
  O  O369  1  0.87291087  0.61894335  0.37203817  1
  O  O370  1  0.88456718  0.60698319  0.87643058  1
  O  O371  1  0.13738039  0.38333289  0.11974760  1
  O  O372  1  0.11685677  0.38522626  0.62864168  1
  O  O373  1  0.13952404  0.87409996  0.12740539  1
  O  O374  1  0.13188905  0.88421801  0.62500161  1
  O  O375  1  0.63291473  0.37592535  0.13123716  1
  O  O376  1  0.63042120  0.37830222  0.61888527  1
  O  O377  1  0.62415217  0.89057536  0.13380496  1
  O  O378  1  0.63161950  0.88244977  0.63099108  1
  O  O379  1  0.12525947  0.27655381  0.26206874  1
  O  O380  1  0.12190075  0.25355228  0.75339921  1
  O  O381  1  0.13007419  0.74292142  0.27052165  1
  O  O382  1  0.11591666  0.73465243  0.74020564  1
  O  O383  1  0.62792504  0.25923977  0.25823536  1
  O  O384  1  0.63237388  0.24845097  0.76559805  1
  O  O385  1  0.62984468  0.76745592  0.25180636  1
  O  O386  1  0.61832917  0.75889647  0.74270924  1
  O  O387  1  0.37735300  0.23512559  0.25628759  1
  O  O388  1  0.36959488  0.23960235  0.74036523  1
  O  O389  1  0.37300591  0.72648621  0.27029972  1
  O  O390  1  0.38404920  0.74094623  0.74381476  1
  O  O391  1  0.88486400  0.25111107  0.24268817  1
  O  O392  1  0.87824108  0.24531766  0.74042098  1
  O  O393  1  0.87181923  0.73693386  0.25133469  1
  O  O394  1  0.86713163  0.75226520  0.73409791  1
  O  O395  1  0.37317688  0.48671816  0.50080829  1
  O  O396  1  0.38216937  0.48890097  0.99215264  1
  O  O397  1  0.38714831  1.00971469  0.48999406  1
  O  O398  1  0.38182235  0.99461706  0.99409645  1
  O  O399  1  0.87171326  0.49024441  0.48995526  1
  O  O400  1  0.87950600  0.49123896  0.98861637  1
  O  O401  1  0.87588971  0.99521768  0.49555545  1
  O  O402  1  0.87610631  0.99972248  0.99671945  1
  O  O403  1  0.13413912  0.02178151  -0.00115657  1
  O  O404  1  0.11895906  0.00457560  0.50963333  1
  O  O405  1  0.12311152  0.50945831  0.00843879  1
  O  O406  1  0.13333281  0.51381005  0.50929890  1
  O  O407  1  0.62120170  0.00710404  0.00627505  1
  O  O408  1  0.61485122  0.00992658  0.50539725  1
  O  O409  1  0.61228224  0.48419152  0.01325761  1
  O  O410  1  0.61819731  0.50327965  0.50528251  1
  O  O411  1  0.36878060  0.38143999  0.10909681  1
  O  O412  1  0.38350923  0.36209991  0.61505283  1
  O  O413  1  0.36604291  0.88723187  0.11571910  1
  O  O414  1  0.36155434  0.87843290  0.62885502  1
  O  O415  1  0.86705623  0.37253095  0.12162688  1
  O  O416  1  0.87029719  0.36991798  0.61881010  1
  O  O417  1  0.87301444  0.87744991  0.13115927  1
  O  O418  1  0.87016708  0.86984835  0.62086954  1
  O  O419  1  0.13332487  0.12776295  0.38173266  1
  O  O420  1  0.13881075  0.13080506  0.87882884  1
  O  O421  1  0.11697476  0.62944810  0.38914461  1
  O  O422  1  0.14291499  0.61601381  0.87405374  1
  O  O423  1  0.62752443  0.13042156  0.38116214  1
  O  O424  1  0.61715914  0.13495789  0.88880500  1
  O  O425  1  0.63097886  0.62390426  0.37780858  1
  O  O426  1  0.63662943  0.57512781  0.88007794  1
