# generated using pymatgen
data_V85Zn86O256
_symmetry_space_group_name_H-M   'P 1'
_cell_length_a   17.00632184
_cell_length_b   17.00793123
_cell_length_c   16.97019472
_cell_angle_alpha   90.30381386
_cell_angle_beta   89.73264745
_cell_angle_gamma   90.03213339
_symmetry_Int_Tables_number   1
_chemical_formula_structural   V85Zn86O256
_chemical_formula_sum   'V85 Zn86 O256'
_cell_volume   4908.37589208
_cell_formula_units_Z   1
loop_
 _symmetry_equiv_pos_site_id
 _symmetry_equiv_pos_as_xyz
  1  'x, y, z'
loop_
 _atom_site_type_symbol
 _atom_site_label
 _atom_site_symmetry_multiplicity
 _atom_site_fract_x
 _atom_site_fract_y
 _atom_site_fract_z
 _atom_site_occupancy
  V  V0  1  0.62122961  0.12122114  -0.00523421  1
  V  V1  1  0.74480230  -0.00314090  0.24852497  1
  V  V2  1  0.74539143  0.12579908  0.37102201  1
  V  V3  1  0.63201522  0.24757093  0.87380789  1
  V  V4  1  0.25005431  0.50021625  0.24617072  1
  V  V5  1  0.87182170  0.00203098  0.37136225  1
  V  V6  1  0.87172342  0.49659631  0.36837322  1
  V  V7  1  0.50302481  0.87727891  0.37332702  1
  V  V8  1  0.75114369  0.62142139  0.36299567  1
  V  V9  1  0.12513171  0.51337117  0.12045429  1
  V  V10  1  0.50087156  0.49528899  0.49182485  1
  V  V11  1  0.63052655  0.75176578  0.37383462  1
  V  V12  1  0.12564677  0.87090719  0.25285965  1
  V  V13  1  0.36868319  0.50497687  0.87451148  1
  V  V14  1  0.12461165  -0.00216268  0.62772982  1
  V  V15  1  0.85771959  0.87224034  0.50379042  1
  V  V16  1  0.50594117  0.75399606  0.24954104  1
  V  V17  1  0.86488333  -0.00628985  0.86983233  1
  V  V18  1  0.63311589  0.87539018  0.74654003  1
  V  V19  1  0.24849844  0.73860538  -0.00418360  1
  V  V20  1  0.49719036  0.88300821  0.87673827  1
  V  V21  1  0.12657083  0.87562260  0.75154643  1
  V  V22  1  0.12371323  0.12788067  0.50152236  1
  V  V23  1  0.74512948  0.86965333  0.12320265  1
  V  V24  1  0.49721447  0.50328846  0.00008204  1
  V  V25  1  0.13209309  0.50052195  0.61222872  1
  V  V26  1  0.87343086  0.25004352  0.62427515  1
  V  V27  1  0.13132571  0.36727088  0.24538571  1
  V  V28  1  0.50022353  0.25123084  0.74932490  1
  V  V29  1  0.49626596  0.26029217  0.25495153  1
  V  V30  1  0.49784816  0.75156552  0.74923149  1
  V  V31  1  0.24906091  0.49271730  0.74667081  1
  V  V32  1  0.62700441  0.75093182  0.87584598  1
  V  V33  1  0.37395574  0.75210440  0.62289628  1
  V  V34  1  0.62956455  0.38033338  0.74951479  1
  V  V35  1  0.61976817  -0.00255414  0.12432778  1
  V  V36  1  0.24830874  0.12722689  0.38083396  1
  V  V37  1  0.00265047  0.74653153  0.74512041  1
  V  V38  1  0.49845326  0.37573769  0.87477927  1
  V  V39  1  0.61985084  0.25459953  0.37537700  1
  V  V40  1  0.12186974  -0.00340150  0.11763474  1
  V  V41  1  0.63304590  0.62816477  0.49806245  1
  V  V42  1  0.24555004  0.25613412  0.50537664  1
  V  V43  1  0.37385331  0.12673962  0.75020257  1
  V  V44  1  -0.00177948  0.25248098  0.75123665  1
  V  V45  1  0.00116103  0.50942550  0.49500300  1
  V  V46  1  0.62851565  -0.00011774  0.61785655  1
  V  V47  1  0.24501435  0.12700172  0.87665226  1
  V  V48  1  0.37093064  0.12517238  0.24971945  1
  V  V49  1  0.87624132  0.74398808  0.12640505  1
  V  V50  1  0.50161494  0.62510111  0.62326963  1
  V  V51  1  0.63599707  0.37695865  0.24506590  1
  V  V52  1  0.37397319  0.88133330  0.00092680  1
  V  V53  1  0.37080710  0.25713767  0.62624245  1
  V  V54  1  0.63002380  0.63344357  -0.00663891  1
  V  V55  1  0.37117591  0.37668453  0.00426155  1
  V  V56  1  0.37763775  0.37465531  0.49445599  1
  V  V57  1  0.12583403  0.25385509  0.87359518  1
  V  V58  1  0.50245073  0.12529056  0.61719199  1
  V  V59  1  -0.00228206  -0.00248012  0.50346420  1
  V  V60  1  0.00611010  0.36176454  0.37311234  1
  V  V61  1  -0.00296570  0.73970836  0.24587070  1
  V  V62  1  0.49929220  0.62540785  0.12392017  1
  V  V63  1  0.37563491  0.62601911  0.25566900  1
  V  V64  1  -0.00720459  0.37812809  0.87694533  1
  V  V65  1  -0.00025372  0.51186024  0.00020835  1
  V  V66  1  0.87247562  0.86853098  0.00086740  1
  V  V67  1  0.37445857  0.00330451  0.87819910  1
  V  V68  1  0.24655870  0.74316699  0.50042643  1
  V  V69  1  0.12375193  0.73890921  0.37928658  1
  V  V70  1  0.00189086  0.88021612  0.88185295  1
  V  V71  1  0.24986643  -0.00550737  0.25643651  1
  V  V72  1  0.25191621  0.25087763  0.00031316  1
  V  V73  1  -0.00332240  0.87058730  0.37856393  1
  V  V74  1  0.12904258  0.73786463  0.87669397  1
  V  V75  1  0.85803548  0.75170921  0.62250754  1
  V  V76  1  0.87032913  0.37449435  0.00875459  1
  V  V77  1  0.49897056  0.12129552  0.12093356  1
  V  V78  1  0.74458192  0.24756075  0.49956257  1
  V  V79  1  0.86451330  0.12405791  0.75694623  1
  V  V80  1  0.63264539  0.50073900  0.62560682  1
  V  V81  1  0.74433633  0.25360462  0.02238301  1
  V  V82  1  0.36791142  0.25312247  0.12554806  1
  V  V83  1  0.36935659  0.62452979  0.75304875  1
  V  V84  1  0.24937666  0.00081557  0.75067274  1
  Zn  Zn85  1  -0.04199466  0.03432837  0.04799255  1
  Zn  Zn86  1  0.49902885  0.00258303  0.49644823  1
  Zn  Zn87  1  0.25194663  0.87177502  0.12465859  1
  Zn  Zn88  1  0.37267135  0.75183213  0.12466965  1
  Zn  Zn89  1  -0.00116253  0.12260283  0.63169467  1
  Zn  Zn90  1  0.12866044  0.37432155  0.74297070  1
  Zn  Zn91  1  0.24711971  0.62015437  0.38067867  1
  Zn  Zn92  1  0.37831223  -0.00103232  0.37867256  1
  Zn  Zn93  1  0.87237400  0.61856006  0.75877153  1
  Zn  Zn94  1  0.00165750  0.62717939  0.61919790  1
  Zn  Zn95  1  0.37509092  0.87760699  0.49876304  1
  Zn  Zn96  1  0.74814043  -0.00108605  0.74554106  1
  Zn  Zn97  1  0.79493539  0.44580018  0.17695367  1
  Zn  Zn98  1  0.87607504  0.37500868  0.49846668  1
  Zn  Zn99  1  0.37625884  0.49253114  0.37101311  1
  Zn  Zn100  1  0.08955454  0.16422847  0.04119720  1
  Zn  Zn101  1  0.87339582  0.60851228  0.23191536  1
  Zn  Zn102  1  0.75375798  0.37770641  0.62613024  1
  Zn  Zn103  1  0.25162197  0.87458797  0.62322487  1
  Zn  Zn104  1  0.98201999  0.22422142  0.21827591  1
  Zn  Zn105  1  0.63421689  0.49779988  0.12353024  1
  Zn  Zn106  1  0.77383564  0.50684595  0.79562826  1
  Zn  Zn107  1  0.15084921  0.16080789  0.21670399  1
  Zn  Zn108  1  0.18615531  0.18641472  0.68792562  1
  Zn  Zn109  1  0.19042942  0.68824775  0.18631896  1
  Zn  Zn110  1  0.18619776  0.68182161  0.68536771  1
  Zn  Zn111  1  0.81922207  0.17087120  0.18246803  1
  Zn  Zn112  1  0.68597834  0.18616054  0.68611750  1
  Zn  Zn113  1  0.68876846  0.68311838  0.18311867  1
  Zn  Zn114  1  0.68852040  0.68093171  0.69803067  1
  Zn  Zn115  1  0.30579950  0.30991739  0.31521728  1
  Zn  Zn116  1  0.31354905  0.31571925  0.81383398  1
  Zn  Zn117  1  0.31556356  0.80862504  0.31778480  1
  Zn  Zn118  1  0.31119837  0.81249770  0.81449745  1
  Zn  Zn119  1  0.81670914  0.30830537  0.31096260  1
  Zn  Zn120  1  0.81350973  0.31658480  0.81610894  1
  Zn  Zn121  1  0.81021874  0.81410119  0.31021150  1
  Zn  Zn122  1  0.83016666  0.77469875  0.83250277  1
  Zn  Zn123  1  0.18970803  0.43574132  0.43192673  1
  Zn  Zn124  1  0.18665705  0.43855614  0.93587770  1
  Zn  Zn125  1  0.18817284  0.93145089  0.44080661  1
  Zn  Zn126  1  0.19322477  0.93133517  0.93573477  1
  Zn  Zn127  1  0.68890335  0.43391088  0.43664362  1
  Zn  Zn128  1  0.68016439  0.43249173  0.94340203  1
  Zn  Zn129  1  0.68241390  0.93791167  0.43590039  1
  Zn  Zn130  1  0.68609441  0.93065908  0.93873546  1
  Zn  Zn131  1  0.30413255  0.06342261  0.06635241  1
  Zn  Zn132  1  0.31516269  0.06288081  0.56364554  1
  Zn  Zn133  1  0.31165920  0.56317661  0.06727216  1
  Zn  Zn134  1  0.31459467  0.56216431  0.56326732  1
  Zn  Zn135  1  0.79080264  0.05527562  0.04528122  1
  Zn  Zn136  1  0.81156462  0.06649519  0.56000844  1
  Zn  Zn137  1  0.79337437  0.54550346  0.00604387  1
  Zn  Zn138  1  0.81693495  0.56757964  0.55996711  1
  Zn  Zn139  1  0.43951204  0.44067692  0.18559414  1
  Zn  Zn140  1  0.44247428  0.43888521  0.68433991  1
  Zn  Zn141  1  0.43673915  0.93639675  0.18899925  1
  Zn  Zn142  1  0.44149951  0.93977185  0.68935759  1
  Zn  Zn143  1  0.95655397  0.43144061  0.18591968  1
  Zn  Zn144  1  0.93904727  0.44082117  0.68442822  1
  Zn  Zn145  1  0.93637539  0.92796336  0.19319523  1
  Zn  Zn146  1  0.93588309  0.93161228  0.68857101  1
  Zn  Zn147  1  0.05719413  0.05639892  0.31878474  1
  Zn  Zn148  1  0.01551642  0.09976211  0.86771271  1
  Zn  Zn149  1  0.05949820  0.55895864  0.30938723  1
  Zn  Zn150  1  0.06106453  0.55948314  0.80924104  1
  Zn  Zn151  1  0.56251683  0.06839581  0.30627132  1
  Zn  Zn152  1  0.56189068  0.06287861  0.80676047  1
  Zn  Zn153  1  0.56361734  0.56160594  0.31147309  1
  Zn  Zn154  1  0.55897698  0.56353606  0.81228529  1
  Zn  Zn155  1  0.43359779  0.18820042  0.43716201  1
  Zn  Zn156  1  0.43919208  0.18805449  0.93548572  1
  Zn  Zn157  1  0.44243442  0.68788974  0.43894412  1
  Zn  Zn158  1  0.43775331  0.69309970  0.93652317  1
  Zn  Zn159  1  0.93550251  0.18204556  0.43943927  1
  Zn  Zn160  1  0.93019875  0.19148370  1.03626312  1
  Zn  Zn161  1  0.92954047  0.68789474  0.43521386  1
  Zn  Zn162  1  0.94254652  0.68948926  0.93689767  1
  Zn  Zn163  1  0.06562193  0.32866280  0.06392297  1
  Zn  Zn164  1  0.05996796  0.31854368  0.56310693  1
  Zn  Zn165  1  0.06266182  0.81101984  0.06193158  1
  Zn  Zn166  1  0.06154423  0.81353486  0.56021314  1
  Zn  Zn167  1  0.55749310  0.31050105  0.06609996  1
  Zn  Zn168  1  0.56138860  0.31418662  0.56245168  1
  Zn  Zn169  1  0.55660251  0.81448736  0.06194181  1
  Zn  Zn170  1  0.56404137  0.81467709  0.55931892  1
  O  O171  1  0.14120582  0.10092284  0.11840503  1
  O  O172  1  0.12295245  0.11386355  0.61951052  1
  O  O173  1  0.12585328  0.61257335  0.12783242  1
  O  O174  1  0.11923506  0.60574130  0.63103986  1
  O  O175  1  0.61129604  0.11391871  0.11260962  1
  O  O176  1  0.61310845  0.11297852  0.63374900  1
  O  O177  1  0.61230010  0.62975324  0.11193369  1
  O  O178  1  0.62177357  0.61929851  0.61648674  1
  O  O179  1  0.37158360  0.37247119  0.38991856  1
  O  O180  1  0.38038227  0.38400476  0.88305795  1
  O  O181  1  0.38882548  0.87585887  0.37511930  1
  O  O182  1  0.37957973  0.88256757  0.87926420  1
  O  O183  1  0.88848936  0.38117521  0.37161716  1
  O  O184  1  0.88558676  0.37043902  0.88847166  1
  O  O185  1  0.87677748  0.87986887  0.38444701  1
  O  O186  1  0.88248697  0.87183295  0.88187192  1
  O  O187  1  0.25034152  0.00419238  0.36998528  1
  O  O188  1  0.25308363  0.00760167  0.87008386  1
  O  O189  1  0.25345456  0.50517852  0.36442923  1
  O  O190  1  0.26260291  0.49702466  0.86705631  1
  O  O191  1  0.75030339  0.00533906  0.36953236  1
  O  O192  1  0.76154763  -0.01242732  0.86975649  1
  O  O193  1  0.76352147  0.50369540  0.37765650  1
  O  O194  1  0.75846872  0.49929187  0.90514413  1
  O  O195  1  0.23961325  0.50271266  0.13444024  1
  O  O196  1  0.23871301  0.50211878  0.62802233  1
  O  O197  1  0.24168415  0.99251733  0.14036795  1
  O  O198  1  0.24132484  0.99863394  0.63081051  1
  O  O199  1  0.74522749  0.51369147  0.10737947  1
  O  O200  1  0.73587828  0.49748341  0.61190523  1
  O  O201  1  0.73994161  0.99133795  0.13050098  1
  O  O202  1  0.73193194  1.00909291  0.62363045  1
  O  O203  1  0.01506979  0.36652177  0.25925119  1
  O  O204  1  -0.00240990  0.36570523  0.75882392  1
  O  O205  1  0.00850347  0.86418255  0.25974591  1
  O  O206  1  0.01130778  0.86648758  0.75598055  1
  O  O207  1  0.49345460  0.36304189  0.25055814  1
  O  O208  1  0.50833421  0.37091352  0.75377281  1
  O  O209  1  0.49652803  0.86262794  0.25669112  1
  O  O210  1  0.50401947  0.87002112  0.75915740  1
  O  O211  1  0.49119565  0.13530824  0.24017946  1
  O  O212  1  0.49209104  0.13295766  0.74209449  1
  O  O213  1  0.49502838  0.63028839  0.24287003  1
  O  O214  1  0.49044877  0.63051902  0.74274228  1
  O  O215  1  1.04478857  0.14118547  0.25324595  1
  O  O216  1  0.98911986  0.14163423  0.75485421  1
  O  O217  1  0.99293509  0.63629170  0.25236367  1
  O  O218  1  0.99871162  0.63956732  0.75209076  1
  O  O219  1  0.37144529  0.25849003  0.00418691  1
  O  O220  1  0.36734308  0.25616218  0.50752759  1
  O  O221  1  0.36379903  0.75973561  -0.00246583  1
  O  O222  1  0.37018146  0.74912547  0.50996093  1
  O  O223  1  0.85058722  0.25952157  -0.00193629  1
  O  O224  1  0.86827155  0.24834536  0.51004606  1
  O  O225  1  0.88442347  0.76289312  0.01173896  1
  O  O226  1  0.87831988  0.75835537  0.51207653  1
  O  O227  1  0.13244591  0.23855749  0.51474161  1
  O  O228  1  0.13847154  0.25999170  0.99307390  1
  O  O229  1  0.13279086  0.75442734  0.48992008  1
  O  O230  1  0.13960042  0.75739450  0.99268459  1
  O  O231  1  0.63246216  0.25792829  0.48940876  1
  O  O232  1  0.62916440  0.24824237  0.99474118  1
  O  O233  1  0.61777312  0.73714650  0.48855361  1
  O  O234  1  0.60761832  0.73990120  0.99034016  1
  O  O235  1  0.48742900  0.24210424  0.13307554  1
  O  O236  1  0.49308505  0.24447870  0.62939540  1
  O  O237  1  0.49785539  0.74301432  0.13352179  1
  O  O238  1  0.49271600  0.74540772  0.62834322  1
  O  O239  1  1.01378405  0.23611710  0.10608878  1
  O  O240  1  0.99108058  0.25050234  0.63387683  1
  O  O241  1  0.99076950  0.75877731  0.13600814  1
  O  O242  1  1.00881733  0.74699273  0.63516905  1
  O  O243  1  -0.00315093  0.26349446  0.38345304  1
  O  O244  1  0.01028070  0.26154849  0.86669910  1
  O  O245  1  0.00493031  0.75219358  0.36903032  1
  O  O246  1  0.01265599  0.76296438  0.86791576  1
  O  O247  1  0.50772415  0.24021295  0.36663261  1
  O  O248  1  0.50586108  0.25720567  0.86869894  1
  O  O249  1  0.50869695  0.75488475  0.36749888  1
  O  O250  1  0.50224750  0.76242355  0.86714041  1
  O  O251  1  0.24423679  0.13245571  0.49857613  1
  O  O252  1  0.25484932  0.14078366  0.99243687  1
  O  O253  1  0.25662047  0.63801029  0.49892204  1
  O  O254  1  0.25823822  0.63994844  1.00108246  1
  O  O255  1  0.75222689  0.13744946  0.48725062  1
  O  O256  1  0.73117551  0.14180633  0.99826318  1
  O  O257  1  0.73808700  0.61974926  0.48685707  1
  O  O258  1  0.72698646  0.64084934  0.99914682  1
  O  O259  1  0.26329185  0.36568398  -0.00806009  1
  O  O260  1  0.25500044  0.36212745  0.49603420  1
  O  O261  1  0.26190739  0.86614597  0.00100961  1
  O  O262  1  0.25461917  0.85997743  0.50279329  1
  O  O263  1  0.75041154  0.36114912  0.00571526  1
  O  O264  1  0.75549144  0.36028488  0.49981230  1
  O  O265  1  0.75932569  0.87561027  0.01142329  1
  O  O266  1  0.75893377  0.87761802  0.49644699  1
  O  O267  1  0.13112821  0.49781819  0.24053578  1
  O  O268  1  0.13590812  0.49778824  0.74476872  1
  O  O269  1  0.13288586  0.98686177  0.25003188  1
  O  O270  1  0.13087396  0.98962655  0.74086681  1
  O  O271  1  0.61678588  0.48058599  0.25115327  1
  O  O272  1  0.61691215  0.49226042  0.74027603  1
  O  O273  1  0.63309202  1.00597203  0.23580688  1
  O  O274  1  0.62620633  0.99282002  0.74175853  1
  O  O275  1  0.36313647  0.00523909  0.25099696  1
  O  O276  1  0.36809642  0.00651777  0.75545609  1
  O  O277  1  0.36811246  0.50679301  0.24887734  1
  O  O278  1  0.37152694  0.50502703  0.75388809  1
  O  O279  1  0.86758951  -0.01042224  0.26536189  1
  O  O280  1  0.86970640  0.00393550  0.75053341  1
  O  O281  1  0.87883160  0.49300734  0.25216095  1
  O  O282  1  0.88245314  0.50363804  0.75534173  1
  O  O283  1  0.11285970  0.38110704  0.36354879  1
  O  O284  1  0.12016101  0.36572063  0.87148354  1
  O  O285  1  0.11890288  0.86492357  0.36854953  1
  O  O286  1  0.12000063  0.87253636  0.86645672  1
  O  O287  1  0.63041532  0.36432841  0.36317212  1
  O  O288  1  0.61640740  0.36887911  0.86822660  1
  O  O289  1  0.61755099  0.86202483  0.37809623  1
  O  O290  1  0.61249270  0.87267718  0.86919760  1
  O  O291  1  0.37916030  0.13131947  0.12895680  1
  O  O292  1  0.38149431  0.13596067  0.63132244  1
  O  O293  1  0.38456905  0.62625957  0.13584069  1
  O  O294  1  0.38128831  0.63297244  0.63251108  1
  O  O295  1  0.87524740  0.11003349  0.10170365  1
  O  O296  1  0.87751051  0.13422192  0.63429717  1
  O  O297  1  0.86631138  0.64443907  0.12089738  1
  O  O298  1  0.88077185  0.64337396  0.62101843  1
  O  O299  1  0.26491987  0.24703237  0.11382026  1
  O  O300  1  0.26090614  0.24373635  0.61820743  1
  O  O301  1  0.25139351  0.75279403  0.11208842  1
  O  O302  1  0.25733583  0.74862491  0.61945635  1
  O  O303  1  0.74326991  0.24424548  0.11938058  1
  O  O304  1  0.75537243  0.24932505  0.61726189  1
  O  O305  1  0.75707364  0.76425664  0.13720437  1
  O  O306  1  0.76028453  0.74803791  0.63015674  1
  O  O307  1  0.25113277  0.23561450  0.38833210  1
  O  O308  1  0.24519286  0.24816011  0.87954246  1
  O  O309  1  0.24134882  0.74564039  0.38194976  1
  O  O310  1  0.24369111  0.75348992  0.88627218  1
  O  O311  1  0.74414212  0.24320202  0.37881166  1
  O  O312  1  0.73272529  0.25511801  0.87439715  1
  O  O313  1  0.73884525  0.73984752  0.36527664  1
  O  O314  1  0.72454354  0.76403737  0.87449509  1
  O  O315  1  0.00463591  0.11592853  -0.01720185  1
  O  O316  1  0.00862695  0.11695657  0.50311188  1
  O  O317  1  0.00107756  0.61017914  -0.00758075  1
  O  O318  1  -0.00261058  0.61254038  0.49291531  1
  O  O319  1  0.50574374  0.13331168  0.01088029  1
  O  O320  1  0.49443042  0.12671033  0.51339196  1
  O  O321  1  0.49449564  0.62243109  0.00965767  1
  O  O322  1  0.50949799  0.61645457  0.50433674  1
  O  O323  1  0.49111392  0.38397780  0.50390042  1
  O  O324  1  0.49146687  0.38170831  0.99531054  1
  O  O325  1  0.49811620  0.87527926  0.48586455  1
  O  O326  1  0.48639727  0.87037452  0.98738364  1
  O  O327  1  1.00145998  0.38515729  0.48485601  1
  O  O328  1  0.99070867  0.37839881  0.99325036  1
  O  O329  1  0.99385957  0.88073942  0.49465902  1
  O  O330  1  0.99236085  0.87468367  0.99155562  1
  O  O331  1  0.49673910  0.50540269  0.38844428  1
  O  O332  1  0.48748919  0.49545690  0.87917729  1
  O  O333  1  0.50435081  0.99090568  0.37098423  1
  O  O334  1  0.49118310  0.99069316  0.86791843  1
  O  O335  1  0.99075550  0.49357140  0.37645778  1
  O  O336  1  1.01731189  0.48728892  0.89008906  1
  O  O337  1  0.98933833  0.99183819  0.38191039  1
  O  O338  1  0.98712884  0.98334938  0.86605551  1
  O  O339  1  0.01659883  -0.00957625  0.13458657  1
  O  O340  1  0.00914415  -0.00053495  0.62300628  1
  O  O341  1  0.01405508  0.50043028  0.11340769  1
  O  O342  1  0.00657296  0.50249126  0.61018405  1
  O  O343  1  0.50562992  0.01029675  0.13277485  1
  O  O344  1  0.50631869  0.01059058  0.62573118  1
  O  O345  1  0.50333273  0.51144733  0.11962661  1
  O  O346  1  0.51058429  0.50557703  0.61531878  1
  O  O347  1  0.24062966  0.38923232  0.26077145  1
  O  O348  1  0.25284732  0.38817487  0.74950799  1
  O  O349  1  0.24262064  0.87771901  0.25502902  1
  O  O350  1  0.24063894  0.88016086  0.75051646  1
  O  O351  1  0.73979319  0.37226475  0.24687537  1
  O  O352  1  0.73713059  0.38223253  0.75275100  1
  O  O353  1  0.75092750  0.88799042  0.24067459  1
  O  O354  1  0.73195692  0.87211166  0.74950934  1
  O  O355  1  0.24884307  0.11447755  0.26302552  1
  O  O356  1  0.25455301  0.12111257  0.75658229  1
  O  O357  1  0.26074531  0.61874009  0.25024725  1
  O  O358  1  0.26400210  0.61335816  0.74406667  1
  O  O359  1  0.75885248  0.10759767  0.25979173  1
  O  O360  1  0.76109168  0.12512734  0.74944122  1
  O  O361  1  0.75065488  0.61972598  0.25839001  1
  O  O362  1  0.75466360  0.60898177  0.74632255  1
  O  O363  1  0.36399561  0.12194027  0.36955404  1
  O  O364  1  0.36866746  0.12275707  0.86968652  1
  O  O365  1  0.37816758  0.62392016  0.36292690  1
  O  O366  1  0.38343524  0.61602333  0.86387257  1
  O  O367  1  0.86540516  0.10979716  0.38175399  1
  O  O368  1  0.88425355  0.10358101  0.86327788  1
  O  O369  1  0.86560334  0.61512761  0.36940677  1
  O  O370  1  0.86544775  0.67032645  0.86191194  1
  O  O371  1  0.12292882  0.38965132  0.14171422  1
  O  O372  1  0.11674922  0.39447043  0.62805823  1
  O  O373  1  0.12755014  0.87773548  0.14008102  1
  O  O374  1  0.12633636  0.88212269  0.63358467  1
  O  O375  1  0.61708291  0.37493007  0.14048127  1
  O  O376  1  0.62591968  0.38237183  0.63396410  1
  O  O377  1  0.63031350  0.88650377  0.11233593  1
  O  O378  1  0.61278280  0.89028451  0.63305720  1
  O  O379  1  0.14746981  0.27063123  0.24292312  1
  O  O380  1  0.11725349  0.25409292  0.75309377  1
  O  O381  1  0.11887666  0.75443885  0.25603928  1
  O  O382  1  0.12439053  0.75770951  0.75581568  1
  O  O383  1  0.61121414  0.26601531  0.25850680  1
  O  O384  1  0.62022765  0.25893633  0.75429415  1
  O  O385  1  0.61324472  0.73940220  0.25848741  1
  O  O386  1  0.61544716  0.75531561  0.75449819  1
  O  O387  1  0.37432557  0.24604244  0.24415793  1
  O  O388  1  0.37879036  0.24817931  0.74361211  1
  O  O389  1  0.38482413  0.74103532  0.24904770  1
  O  O390  1  0.37622820  0.74236169  0.74428120  1
  O  O391  1  0.87678029  0.24662429  0.24077487  1
  O  O392  1  0.87716812  0.24557664  0.74556326  1
  O  O393  1  0.88393591  0.75421707  0.24267346  1
  O  O394  1  0.88873712  0.76183896  0.72940148  1
  O  O395  1  0.38230322  0.49078676  0.50230427  1
  O  O396  1  0.37560920  0.49503351  0.99434329  1
  O  O397  1  0.37962932  0.99611150  0.49774971  1
  O  O398  1  0.36344524  0.99137133  0.99375774  1
  O  O399  1  0.88362373  0.49670914  0.48941690  1
  O  O400  1  0.89624125  0.49238639  1.00257767  1
  O  O401  1  0.87742498  0.99216766  0.49517298  1
  O  O402  1  0.87062167  0.98520248  0.98842704  1
  O  O403  1  0.12977849  -0.01916489  0.01933776  1
  O  O404  1  0.12097773  0.00271323  0.51096822  1
  O  O405  1  0.12114417  0.49219009  0.01396003  1
  O  O406  1  0.12213771  0.49735722  0.50672569  1
  O  O407  1  0.63393482  0.01122005  0.00677123  1
  O  O408  1  0.61912427  -0.00343440  0.51418051  1
  O  O409  1  0.61174897  0.51760467  -0.00293901  1
  O  O410  1  0.61836861  0.50491461  0.50396590  1
  O  O411  1  0.38151023  0.36753960  0.11317018  1
  O  O412  1  0.38076984  0.36305871  0.61688551  1
  O  O413  1  0.37573655  0.87308383  0.11468552  1
  O  O414  1  0.37549833  0.86097028  0.62920771  1
  O  O415  1  0.87817308  0.38162890  0.11290720  1
  O  O416  1  0.87333379  0.36150084  0.62402751  1
  O  O417  1  0.86585461  0.87286615  0.11832443  1
  O  O418  1  0.87865122  0.86362565  0.61509572  1
  O  O419  1  0.13611943  0.11230289  0.39475906  1
  O  O420  1  0.12844524  0.14549571  0.87355550  1
  O  O421  1  0.12485854  0.63637162  0.36757290  1
  O  O422  1  0.12169679  0.63966792  0.86924707  1
  O  O423  1  0.63677494  0.13805283  0.36495268  1
  O  O424  1  0.61034859  0.13603697  0.88317103  1
  O  O425  1  0.63178741  0.62908565  0.37914462  1
  O  O426  1  0.61049248  0.63567954  0.88528696  1
