# generated using pymatgen
data_V85Zn86O256
_symmetry_space_group_name_H-M   'P 1'
_cell_length_a   16.98123775
_cell_length_b   16.98183262
_cell_length_c   16.98895049
_cell_angle_alpha   89.99728855
_cell_angle_beta   89.95464899
_cell_angle_gamma   89.88005095
_symmetry_Int_Tables_number   1
_chemical_formula_structural   V85Zn86O256
_chemical_formula_sum   'V85 Zn86 O256'
_cell_volume   4899.13448068
_cell_formula_units_Z   1
loop_
 _symmetry_equiv_pos_site_id
 _symmetry_equiv_pos_as_xyz
  1  'x, y, z'
loop_
 _atom_site_type_symbol
 _atom_site_label
 _atom_site_symmetry_multiplicity
 _atom_site_fract_x
 _atom_site_fract_y
 _atom_site_fract_z
 _atom_site_occupancy
  V  V0  1  -0.00638166  0.13124023  0.12288793  1
  V  V1  1  0.50106176  0.63013676  0.12939883  1
  V  V2  1  0.62313906  0.00158302  0.62647537  1
  V  V3  1  0.86671242  0.35799730  0.00659225  1
  V  V4  1  0.24819866  0.75096475  0.49730766  1
  V  V5  1  0.62431853  0.74904983  0.87606760  1
  V  V6  1  0.24736967  0.25579349  0.00780170  1
  V  V7  1  0.63241261  0.37611589  0.24901066  1
  V  V8  1  -0.00126175  0.50230604  0.49876183  1
  V  V9  1  0.63523669  0.63496242  0.49974018  1
  V  V10  1  0.49796110  0.62649181  0.62747100  1
  V  V11  1  0.63384665  0.24179903  0.87671510  1
  V  V12  1  0.87980262  -0.00303117  0.37786020  1
  V  V13  1  0.38008260  0.63188701  0.25007157  1
  V  V14  1  0.25325510  0.00382499  0.74858399  1
  V  V15  1  0.12462099  0.86824393  0.25246831  1
  V  V16  1  -0.00021726  0.87702602  0.87456886  1
  V  V17  1  0.63742871  0.12111105  -0.00406010  1
  V  V18  1  0.13240339  0.62199281  -0.00333284  1
  V  V19  1  0.25345530  0.75457471  -0.00335830  1
  V  V20  1  0.12305914  0.25458306  0.85816594  1
  V  V21  1  0.87590842  0.37312836  0.49959168  1
  V  V22  1  0.37832819  0.37457126  0.00823063  1
  V  V23  1  0.74877120  0.00997114  0.75581331  1
  V  V24  1  0.25022735  0.87656966  0.62455825  1
  V  V25  1  0.37645540  0.50132251  0.37789326  1
  V  V26  1  0.24625573  0.63059153  0.37267597  1
  V  V27  1  0.49901030  0.00173907  0.50150414  1
  V  V28  1  0.12443611  0.12788666  0.00018634  1
  V  V29  1  0.87787851  0.49864507  0.87998592  1
  V  V30  1  0.87387453  0.62751250  0.75073915  1
  V  V31  1  0.87531769  0.87186971  0.00205108  1
  V  V32  1  0.87238949  0.62290805  0.25260476  1
  V  V33  1  0.86648246  0.50406293  0.37626052  1
  V  V34  1  0.37315148  0.25372816  0.13011669  1
  V  V35  1  0.25745352  0.13045295  0.86870608  1
  V  V36  1  0.62358684  0.87489015  0.75256408  1
  V  V37  1  0.12290753  0.63292844  0.49492650  1
  V  V38  1  0.00146236  0.25310382  0.25496503  1
  V  V39  1  0.49429946  0.87545554  0.88357992  1
  V  V40  1  0.74969188  0.62523034  0.87583933  1
  V  V41  1  0.50184080  0.37196532  0.88102595  1
  V  V42  1  0.74632108  0.87144444  0.61937800  1
  V  V43  1  0.00149005  -0.00065566  -0.00041347  1
  V  V44  1  0.74866779  0.49812461  0.75178932  1
  V  V45  1  0.63193896  0.49989140  0.12837712  1
  V  V46  1  0.49856707  0.49896898  0.50185354  1
  V  V47  1  0.25491888  0.28803966  0.51396716  1
  V  V48  1  0.22600047  0.12891578  0.37698589  1
  V  V49  1  0.89370030  0.13187380  0.75108689  1
  V  V50  1  0.74860808  0.12382738  0.37562713  1
  V  V51  1  0.48353649  0.24691977  0.75015378  1
  V  V52  1  0.37327266  0.75021243  0.62510345  1
  V  V53  1  0.50013107  0.24916326  0.25389694  1
  V  V54  1  0.00459947  0.62275875  0.12567058  1
  V  V55  1  -0.00182674  0.63036930  0.62445937  1
  V  V56  1  0.49948455  0.37640664  0.38046166  1
  V  V57  1  0.37630238  0.00324411  0.37388044  1
  V  V58  1  0.37255172  -0.00190320  0.88207622  1
  V  V59  1  0.13395107  0.48924787  0.12504518  1
  V  V60  1  0.48342407  0.12982175  0.62871078  1
  V  V61  1  0.12478205  -0.00167092  0.12362387  1
  V  V62  1  0.62486390  0.37229644  0.75192712  1
  V  V63  1  0.74977933  0.37345017  0.62757242  1
  V  V64  1  0.00115875  0.37059195  0.86255871  1
  V  V65  1  0.87053965  0.12671062  0.24621368  1
  V  V66  1  0.62499004  0.12551783  0.50262653  1
  V  V67  1  0.25425467  0.49217150  0.24592215  1
  V  V68  1  0.62629525  0.62361246  -0.00041133  1
  V  V69  1  0.12947422  0.74447167  0.87310642  1
  V  V70  1  0.24997792  -0.00381409  0.24771687  1
  V  V71  1  0.50518675  0.86700950  0.36465732  1
  V  V72  1  0.37480243  0.75473161  0.12022070  1
  V  V73  1  0.37619183  0.87468360  0.50049667  1
  V  V74  1  0.36379078  0.62382615  0.75765616  1
  V  V75  1  0.13051961  0.49457159  0.62823363  1
  V  V76  1  0.50057045  0.49867642  0.00131817  1
  V  V77  1  0.11820295  0.00300716  0.61392487  1
  V  V78  1  0.74395196  0.87442583  0.13089679  1
  V  V79  1  0.87823936  0.87050360  0.49936892  1
  V  V80  1  -0.00287984  0.75145439  0.74965730  1
  V  V81  1  0.63639809  0.74972370  0.36603343  1
  V  V82  1  0.50041123  0.12529737  0.12176054  1
  V  V83  1  0.00744056  0.74615857  0.25849785  1
  V  V84  1  0.75236801  0.24967876  0.50516786  1
  Zn  Zn85  1  0.01779677  0.13328950  0.60075261  1
  Zn  Zn86  1  0.75250204  0.74906644  -0.00012727  1
  Zn  Zn87  1  0.37241098  0.12544195  0.25062717  1
  Zn  Zn88  1  0.61887402  -0.00525682  0.13114263  1
  Zn  Zn89  1  0.00884881  0.87373941  0.38274584  1
  Zn  Zn90  1  0.62385936  0.25215992  0.37899589  1
  Zn  Zn91  1  0.12452899  0.87557693  0.74909498  1
  Zn  Zn92  1  0.86468426  0.00577085  0.87957979  1
  Zn  Zn93  1  0.00710585  0.36909812  0.37885726  1
  Zn  Zn94  1  0.24377732  0.49356288  0.74679884  1
  Zn  Zn95  1  0.86638981  0.74735269  0.61824213  1
  Zn  Zn96  1  0.75221600  0.49950466  0.25138155  1
  Zn  Zn97  1  0.62519985  0.50057669  0.62529597  1
  Zn  Zn98  1  0.49411866  -0.00242171  0.00431935  1
  Zn  Zn99  1  0.91224744  0.26870478  0.65193525  1
  Zn  Zn100  1  0.49721871  0.75063073  0.75200087  1
  Zn  Zn101  1  0.14187591  0.36096778  0.25697694  1
  Zn  Zn102  1  0.87681380  0.74741192  0.12617686  1
  Zn  Zn103  1  0.74268719  -0.00828704  0.25403218  1
  Zn  Zn104  1  0.36511002  0.50392908  0.87949469  1
  Zn  Zn105  1  0.25575383  0.87785517  0.11820259  1
  Zn  Zn106  1  0.00489147  0.49282457  0.00071930  1
  Zn  Zn107  1  0.18563537  0.18424654  0.19075773  1
  Zn  Zn108  1  0.19526010  0.18887673  0.67758396  1
  Zn  Zn109  1  0.19132229  0.68402846  0.18415796  1
  Zn  Zn110  1  0.18455796  0.68601084  0.68452560  1
  Zn  Zn111  1  0.68917199  0.18716832  0.18613500  1
  Zn  Zn112  1  0.68002588  0.18986395  0.68741006  1
  Zn  Zn113  1  0.68972098  0.69169487  0.18601059  1
  Zn  Zn114  1  0.68586403  0.68805583  0.68878975  1
  Zn  Zn115  1  0.31930550  0.30313671  0.33824442  1
  Zn  Zn116  1  0.30493819  0.33153926  0.81996175  1
  Zn  Zn117  1  0.31601253  0.81374775  0.31085254  1
  Zn  Zn118  1  0.31220361  0.81427735  0.81063537  1
  Zn  Zn119  1  0.81709319  0.31027508  0.31523408  1
  Zn  Zn120  1  0.81373577  0.31156813  0.81891824  1
  Zn  Zn121  1  0.81806449  0.80586434  0.31219218  1
  Zn  Zn122  1  0.81038381  0.81417658  0.81235551  1
  Zn  Zn123  1  0.18478000  0.43596098  0.43502911  1
  Zn  Zn124  1  0.18909524  0.43454224  0.93469057  1
  Zn  Zn125  1  0.18846404  0.93988017  0.43480380  1
  Zn  Zn126  1  0.18713393  0.93676982  0.93500481  1
  Zn  Zn127  1  0.68402946  0.44017503  0.44002201  1
  Zn  Zn128  1  0.68839898  0.43514357  0.93987954  1
  Zn  Zn129  1  0.68729592  0.93689472  0.43812442  1
  Zn  Zn130  1  0.68409651  0.93822489  0.94156629  1
  Zn  Zn131  1  0.31179802  0.06855997  0.06191720  1
  Zn  Zn132  1  0.30309595  0.06516410  0.55602958  1
  Zn  Zn133  1  0.31318717  0.56479159  0.06296981  1
  Zn  Zn134  1  0.31178962  0.56196101  0.56170751  1
  Zn  Zn135  1  0.81326819  0.05637689  0.06360724  1
  Zn  Zn136  1  0.85071891  0.07920262  0.54966111  1
  Zn  Zn137  1  0.81430519  0.56032688  0.06345440  1
  Zn  Zn138  1  0.81149410  0.56098578  0.56643142  1
  Zn  Zn139  1  0.44461125  0.44021855  0.19107527  1
  Zn  Zn140  1  0.44094936  0.43994200  0.69430326  1
  Zn  Zn141  1  0.43939778  0.93645361  0.18885672  1
  Zn  Zn142  1  0.43592555  0.94150495  0.69122719  1
  Zn  Zn143  1  0.93703540  0.43896290  0.18350292  1
  Zn  Zn144  1  0.93832124  0.44417042  0.68612063  1
  Zn  Zn145  1  0.93594024  0.93800041  0.18979027  1
  Zn  Zn146  1  0.93319014  0.93977144  0.68617106  1
  Zn  Zn147  1  0.05685476  0.05718545  0.30623610  1
  Zn  Zn148  1  0.06929538  0.06300693  0.81042649  1
  Zn  Zn149  1  0.06700294  0.54617254  0.31445486  1
  Zn  Zn150  1  0.05945997  0.56187601  0.81110131  1
  Zn  Zn151  1  0.56456900  0.05934228  0.31144442  1
  Zn  Zn152  1  0.55664294  0.06358884  0.81242269  1
  Zn  Zn153  1  0.56683513  0.56652294  0.31475863  1
  Zn  Zn154  1  0.55968031  0.55957931  0.81374546  1
  Zn  Zn155  1  0.42842093  0.18989868  0.44593603  1
  Zn  Zn156  1  0.43963628  0.18993394  0.93803256  1
  Zn  Zn157  1  0.43964171  0.68735657  0.43959840  1
  Zn  Zn158  1  0.43981289  0.68785383  0.93823493  1
  Zn  Zn159  1  0.94358208  0.18579639  0.43448316  1
  Zn  Zn160  1  0.93569727  0.18632408  0.93089665  1
  Zn  Zn161  1  0.93217075  0.68968495  0.43548150  1
  Zn  Zn162  1  0.94229505  0.68601510  0.93835251  1
  Zn  Zn163  1  0.05440523  0.31432663  0.05910819  1
  Zn  Zn164  1  0.07758666  0.30983905  0.55333702  1
  Zn  Zn165  1  0.06575609  0.80965805  0.06493688  1
  Zn  Zn166  1  0.06179575  0.81613689  0.56523716  1
  Zn  Zn167  1  0.60132722  0.29775193  0.07739871  1
  Zn  Zn168  1  0.56180324  0.30953231  0.56773944  1
  Zn  Zn169  1  0.56330362  0.80930802  0.06152828  1
  Zn  Zn170  1  0.56063042  0.81301464  0.56099438  1
  O  O171  1  0.11558203  0.11820792  0.11980010  1
  O  O172  1  0.12948933  0.10758211  0.62694682  1
  O  O173  1  0.12240030  0.61663599  0.11500252  1
  O  O174  1  0.11663693  0.62190352  0.61284938  1
  O  O175  1  0.61390057  0.12527085  0.11161082  1
  O  O176  1  0.61608403  0.11942730  0.61858994  1
  O  O177  1  0.61819866  0.62022183  0.12221257  1
  O  O178  1  0.61545582  0.62573683  0.61698925  1
  O  O179  1  0.38842388  0.39313022  0.36781041  1
  O  O180  1  0.39136419  0.36594385  0.89399609  1
  O  O181  1  0.38409257  0.88226047  0.37901498  1
  O  O182  1  0.38449805  0.88225946  0.86967503  1
  O  O183  1  0.88025650  0.38436932  0.38449386  1
  O  O184  1  0.88185482  0.38189449  0.88167852  1
  O  O185  1  0.87112665  0.87908863  0.38496480  1
  O  O186  1  0.88489189  0.87590486  0.88332405  1
  O  O187  1  0.25751675  0.00566240  0.36621137  1
  O  O188  1  0.25290567  0.00898179  0.86963886  1
  O  O189  1  0.26149280  0.51337336  0.36879410  1
  O  O190  1  0.26425307  0.45239156  0.85192467  1
  O  O191  1  0.75503110  0.01014764  0.37509901  1
  O  O192  1  0.74715643  -0.00891925  0.85955685  1
  O  O193  1  0.76265844  0.49765289  0.37675220  1
  O  O194  1  0.75812629  0.50497629  0.87050860  1
  O  O195  1  0.24714233  0.50289978  0.13366609  1
  O  O196  1  0.23341024  0.51070355  0.62448585  1
  O  O197  1  0.24677006  0.99952951  0.13136275  1
  O  O198  1  0.24497973  0.99651907  0.63085046  1
  O  O199  1  0.73559994  0.50400259  0.12753943  1
  O  O200  1  0.74806044  0.49172967  0.63407813  1
  O  O201  1  0.74955480  0.98234754  0.12504719  1
  O  O202  1  0.73883604  0.98725986  0.64180124  1
  O  O203  1  -0.01164519  0.35530331  0.24572881  1
  O  O204  1  -0.01004727  0.37544007  0.76226212  1
  O  O205  1  0.00799582  0.86340724  0.24705121  1
  O  O206  1  -0.00230512  0.87075892  0.76017601  1
  O  O207  1  0.50726391  0.37019795  0.26189762  1
  O  O208  1  0.50442696  0.36855408  0.76136041  1
  O  O209  1  0.49961130  0.87622344  0.26624970  1
  O  O210  1  0.50980488  0.87608559  0.75820406  1
  O  O211  1  0.49975124  0.13500552  0.24391454  1
  O  O212  1  0.50213163  0.13389687  0.74013624  1
  O  O213  1  0.49103340  0.61986744  0.24156374  1
  O  O214  1  0.49461759  0.62566572  0.73940499  1
  O  O215  1  0.99161018  0.13136835  0.24196061  1
  O  O216  1  0.99407430  0.11993774  0.74369377  1
  O  O217  1  0.99929578  0.62710053  0.24403845  1
  O  O218  1  0.99278220  0.63167305  0.74468085  1
  O  O219  1  0.36979881  0.25559495  0.01170065  1
  O  O220  1  0.34223898  0.26187304  0.45737314  1
  O  O221  1  0.36410228  0.73958955  0.00758807  1
  O  O222  1  0.36836654  0.75418059  0.50583443  1
  O  O223  1  0.87770179  0.25830677  -0.00453862  1
  O  O224  1  0.86606224  0.26434759  0.49399662  1
  O  O225  1  0.87726958  0.75936396  0.00167972  1
  O  O226  1  0.86993237  0.76414340  0.49803920  1
  O  O227  1  0.15789237  0.27315427  0.48210228  1
  O  O228  1  0.13436720  0.24701331  1.00219477  1
  O  O229  1  0.12907990  0.74008620  0.50295213  1
  O  O230  1  0.13213639  0.74140708  0.99327540  1
  O  O231  1  0.63477572  0.24524588  0.49912179  1
  O  O232  1  0.61374810  0.23004087  0.98788461  1
  O  O233  1  0.62149440  0.73875028  0.49633949  1
  O  O234  1  0.62704841  0.74034033  0.99258893  1
  O  O235  1  0.49386470  0.24345868  0.13562665  1
  O  O236  1  0.49908428  0.24253090  0.63546873  1
  O  O237  1  0.49205301  0.73688851  0.11635999  1
  O  O238  1  0.49245412  0.74176711  0.62609311  1
  O  O239  1  0.99969691  0.23573149  0.13024162  1
  O  O240  1  1.01228748  0.24520988  0.61351833  1
  O  O241  1  1.00275609  0.73598723  0.13293068  1
  O  O242  1  0.99585199  0.74684700  0.63222005  1
  O  O243  1  -0.00047807  0.24925370  0.36034335  1
  O  O244  1  0.01740185  0.25253877  0.87502656  1
  O  O245  1  -0.00015955  0.75135738  0.36224385  1
  O  O246  1  0.00859610  0.75767404  0.87094033  1
  O  O247  1  0.49569029  0.26026048  0.37173289  1
  O  O248  1  0.50821784  0.25485002  0.86945809  1
  O  O249  1  0.50117208  0.76394365  0.37976529  1
  O  O250  1  0.50472162  0.75861021  0.87359420  1
  O  O251  1  0.25021680  0.12442067  0.47582279  1
  O  O252  1  0.24509008  0.13773264  0.99177762  1
  O  O253  1  0.24255212  0.63030812  0.49158711  1
  O  O254  1  0.23974296  0.63301749  1.00101010  1
  O  O255  1  0.75053810  0.13238747  0.49435519  1
  O  O256  1  0.73609566  0.11796746  1.00389355  1
  O  O257  1  0.73350937  0.62178267  0.50791400  1
  O  O258  1  0.74450688  0.62465149  0.99349877  1
  O  O259  1  0.26256309  0.36304215  -0.00085090  1
  O  O260  1  0.25942594  0.39098702  0.50617819  1
  O  O261  1  0.24425243  0.86029616  0.00077837  1
  O  O262  1  0.25649112  0.87007343  0.50263036  1
  O  O263  1  0.76775815  0.37659918  -0.00838705  1
  O  O264  1  0.75559906  0.37015659  0.50513014  1
  O  O265  1  0.76054106  0.87391927  0.00590834  1
  O  O266  1  0.75311761  0.87861061  0.51299212  1
  O  O267  1  0.14105371  0.50866240  0.23577850  1
  O  O268  1  0.12398991  0.50938427  0.73347095  1
  O  O269  1  0.13127814  0.99038652  0.24206673  1
  O  O270  1  0.13970250  0.99630882  0.74563396  1
  O  O271  1  0.62882070  0.49654364  0.24694297  1
  O  O272  1  0.63055228  0.49111736  0.75147069  1
  O  O273  1  0.63126410  1.00351790  0.24366827  1
  O  O274  1  0.62872600  0.99212970  0.74837571  1
  O  O275  1  0.36589601  -0.00289789  0.25714891  1
  O  O276  1  0.36105510  -0.00211215  0.76160038  1
  O  O277  1  0.37251623  0.51098884  0.25591110  1
  O  O278  1  0.37569407  0.51816660  0.75018519  1
  O  O279  1  0.86730819  0.00812961  0.25740701  1
  O  O280  1  0.86019026  0.00714326  0.75052297  1
  O  O281  1  0.87635277  0.50450968  0.25907054  1
  O  O282  1  0.86974347  0.50658159  0.76010210  1
  O  O283  1  0.11007022  0.41029126  0.35566397  1
  O  O284  1  0.11741966  0.36095540  0.87743343  1
  O  O285  1  0.12481410  0.88112595  0.35852236  1
  O  O286  1  0.11507058  0.86430492  0.87478454  1
  O  O287  1  0.61401784  0.37739392  0.36913010  1
  O  O288  1  0.61663690  0.36588285  0.87509304  1
  O  O289  1  0.61369713  0.86308457  0.38315985  1
  O  O290  1  0.61633203  0.87056261  0.86932855  1
  O  O291  1  0.38168898  0.13623750  0.12937515  1
  O  O292  1  0.38505355  0.11901035  0.61684899  1
  O  O293  1  0.38259744  0.63145338  0.13158922  1
  O  O294  1  0.38086374  0.62979981  0.63259249  1
  O  O295  1  0.88236041  0.11519595  0.13438363  1
  O  O296  1  0.86673709  0.12871279  0.65028614  1
  O  O297  1  0.88972350  0.61978826  0.13138583  1
  O  O298  1  0.87934850  0.62743078  0.63132173  1
  O  O299  1  0.26120440  0.24280400  0.12072792  1
  O  O300  1  0.25815518  0.24930012  0.60797045  1
  O  O301  1  0.25859543  0.74990094  0.11499773  1
  O  O302  1  0.25362939  0.75584878  0.61810756  1
  O  O303  1  0.70268312  0.27383922  0.12258680  1
  O  O304  1  0.74758080  0.25498703  0.61390629  1
  O  O305  1  0.75583568  0.76000251  0.11962368  1
  O  O306  1  0.75053719  0.76551002  0.63541151  1
  O  O307  1  0.23731005  0.22481552  0.34332926  1
  O  O308  1  0.24073439  0.24931931  0.88267114  1
  O  O309  1  0.25847746  0.73724970  0.37905544  1
  O  O310  1  0.23771914  0.75529029  0.87979326  1
  O  O311  1  0.74961025  0.24062371  0.38604291  1
  O  O312  1  0.73275701  0.24862702  0.86865513  1
  O  O313  1  0.73507628  0.75726839  0.37503372  1
  O  O314  1  0.74265716  0.74300102  0.87585924  1
  O  O315  1  0.00311492  0.11981322  0.00522643  1
  O  O316  1  -0.04398991  0.10965251  0.51093723  1
  O  O317  1  0.01267628  0.62233478  0.00887071  1
  O  O318  1  0.00362199  0.62245976  0.50275375  1
  O  O319  1  0.49736224  0.12229222  0.01216531  1
  O  O320  1  0.50309727  0.12361871  0.50673436  1
  O  O321  1  0.50608693  0.61802727  0.00706417  1
  O  O322  1  0.50463352  0.61903264  0.51133934  1
  O  O323  1  0.50817075  0.38638707  0.49301000  1
  O  O324  1  0.49670985  0.37909507  0.99627756  1
  O  O325  1  0.49357977  0.88306036  0.49552141  1
  O  O326  1  0.50597853  0.87811474  0.98748884  1
  O  O327  1  0.99131470  0.38644117  0.50041843  1
  O  O328  1  0.99003847  0.37582875  0.98531545  1
  O  O329  1  0.98394015  0.87147740  0.49910717  1
  O  O330  1  0.99556764  0.87759319  0.99464692  1
  O  O331  1  0.49557124  0.49769758  0.38222734  1
  O  O332  1  0.49722723  0.48747693  0.88184621  1
  O  O333  1  0.49473736  0.99028096  0.38060475  1
  O  O334  1  0.48765952  0.99363018  0.87521385  1
  O  O335  1  0.98644683  0.50602989  0.38956646  1
  O  O336  1  0.99307595  0.49154728  0.87481794  1
  O  O337  1  0.98355109  0.99178002  0.36495986  1
  O  O338  1  1.00624480  0.98855333  0.88050297  1
  O  O339  1  0.00493677  0.00795869  0.11993179  1
  O  O340  1  0.01736293  -0.00344455  0.63257935  1
  O  O341  1  0.01379494  0.50909971  0.12488287  1
  O  O342  1  0.00396586  0.51003109  0.61519006  1
  O  O343  1  0.49665707  0.01037399  0.12482172  1
  O  O344  1  0.50348550  0.00794322  0.62197256  1
  O  O345  1  0.50478748  0.51427896  0.12104241  1
  O  O346  1  0.49978859  0.50668816  0.61820205  1
  O  O347  1  0.25744832  0.39001079  0.26259429  1
  O  O348  1  0.28695405  0.37876845  0.71012897  1
  O  O349  1  0.24458974  0.88249411  0.24779615  1
  O  O350  1  0.24886880  0.88373632  0.74248992  1
  O  O351  1  0.73549843  0.37425185  0.26135134  1
  O  O352  1  0.74596174  0.37799176  0.74716897  1
  O  O353  1  0.76032411  0.87008623  0.23318133  1
  O  O354  1  0.73755656  0.88125732  0.74674055  1
  O  O355  1  0.24878802  0.10698631  0.25411135  1
  O  O356  1  0.24563968  0.11905087  0.76106344  1
  O  O357  1  0.26008397  0.61828167  0.25609874  1
  O  O358  1  0.26173787  0.62410113  0.74735678  1
  O  O359  1  0.75540224  0.12993080  0.25940867  1
  O  O360  1  0.73899170  0.10985305  0.74917710  1
  O  O361  1  0.76945343  0.62459213  0.23983933  1
  O  O362  1  0.75351221  0.61913760  0.75610495  1
  O  O363  1  0.37814436  0.10949477  0.37066977  1
  O  O364  1  0.36284982  0.11974106  0.88121895  1
  O  O365  1  0.37237398  0.61994643  0.36797466  1
  O  O366  1  0.37934504  0.62442591  0.86160535  1
  O  O367  1  0.86538287  0.11623389  0.36650451  1
  O  O368  1  0.88040642  0.11819773  0.85859128  1
  O  O369  1  0.87912037  0.61678694  0.36445954  1
  O  O370  1  0.87225050  0.61799536  0.87101588  1
  O  O371  1  0.11880184  0.38694974  0.12932455  1
  O  O372  1  0.11926511  0.39704315  0.61901602  1
  O  O373  1  0.12829684  0.88071566  0.13332872  1
  O  O374  1  0.13260707  0.88323504  0.62818721  1
  O  O375  1  0.60338296  0.39501190  0.14023493  1
  O  O376  1  0.63090522  0.37700584  0.63338849  1
  O  O377  1  0.64012369  0.87194281  0.11815572  1
  O  O378  1  0.62587720  0.87964633  0.63290317  1
  O  O379  1  0.10694145  0.25112977  0.24063276  1
  O  O380  1  0.13587461  0.24980052  0.76086134  1
  O  O381  1  0.12081112  0.75648852  0.24246875  1
  O  O382  1  0.11802869  0.74951946  0.75776184  1
  O  O383  1  0.61068945  0.25787985  0.25811311  1
  O  O384  1  0.61502886  0.25542586  0.75821942  1
  O  O385  1  0.62368420  0.73807392  0.26715640  1
  O  O386  1  0.62130729  0.75960149  0.75707723  1
  O  O387  1  0.38454093  0.25238818  0.24626152  1
  O  O388  1  0.38637844  0.25555224  0.76651127  1
  O  O389  1  0.36844916  0.73781119  0.23926563  1
  O  O390  1  0.37555443  0.73904583  0.74475569  1
  O  O391  1  0.88309027  0.23487525  0.25421242  1
  O  O392  1  0.87672664  0.23795680  0.75676900  1
  O  O393  1  0.88878066  0.73896821  0.24727847  1
  O  O394  1  0.88055396  0.74444594  0.75074291  1
  O  O395  1  0.38755352  0.51199487  0.48932791  1
  O  O396  1  0.37926111  0.49142559  1.00031557  1
  O  O397  1  0.37799283  0.99437209  0.49046170  1
  O  O398  1  0.36988373  1.00073712  0.98686901  1
  O  O399  1  0.87899920  0.49434065  0.49688213  1
  O  O400  1  0.87901631  0.50067259  0.98632953  1
  O  O401  1  0.86382978  0.98219977  0.48781222  1
  O  O402  1  0.88270883  0.98993868  0.99622314  1
  O  O403  1  0.12192824  0.00698548  0.00350753  1
  O  O404  1  0.12749292  -0.00788953  0.51462173  1
  O  O405  1  0.13046328  0.50499226  0.00494525  1
  O  O406  1  0.11465102  0.51292466  0.50746260  1
  O  O407  1  0.61772678  0.01125519  0.00350473  1
  O  O408  1  0.61839498  0.00580088  0.50626421  1
  O  O409  1  0.62037484  0.50352482  0.00877554  1
  O  O410  1  0.61392495  0.51376682  0.50024695  1
  O  O411  1  0.38682136  0.36607469  0.11843823  1
  O  O412  1  0.34708457  0.37875303  0.65779441  1
  O  O413  1  0.37749972  0.85858855  0.13034238  1
  O  O414  1  0.37085963  0.87110198  0.62070649  1
  O  O415  1  0.88239663  0.38212585  0.10358282  1
  O  O416  1  0.87043395  0.37481991  0.61718237  1
  O  O417  1  0.87083356  0.87355005  0.11464733  1
  O  O418  1  0.86684504  0.87663837  0.61300815  1
  O  O419  1  0.12747208  0.11170036  0.37435329  1
  O  O420  1  0.13309680  0.13835840  0.87999228  1
  O  O421  1  0.13568693  0.61617625  0.38345432  1
  O  O422  1  0.11653109  0.63408636  0.88386364  1
  O  O423  1  0.63382226  0.12567873  0.38392102  1
  O  O424  1  0.61850307  0.12584184  0.88791102  1
  O  O425  1  0.61736964  0.63781333  0.39005485  1
  O  O426  1  0.62852694  0.62790847  0.87940385  1
