# generated using pymatgen
data_V85Zn86O256
_symmetry_space_group_name_H-M   'P 1'
_cell_length_a   16.98044775
_cell_length_b   16.97313883
_cell_length_c   16.98716831
_cell_angle_alpha   90.09926303
_cell_angle_beta   89.84047198
_cell_angle_gamma   89.90849183
_symmetry_Int_Tables_number   1
_chemical_formula_structural   V85Zn86O256
_chemical_formula_sum   'V85 Zn86 O256'
_cell_volume   4895.86460188
_cell_formula_units_Z   1
loop_
 _symmetry_equiv_pos_site_id
 _symmetry_equiv_pos_as_xyz
  1  'x, y, z'
loop_
 _atom_site_type_symbol
 _atom_site_label
 _atom_site_symmetry_multiplicity
 _atom_site_fract_x
 _atom_site_fract_y
 _atom_site_fract_z
 _atom_site_occupancy
  V  V0  1  -0.00009330  0.87246602  0.87514979  1
  V  V1  1  0.49166123  0.74999874  0.24364328  1
  V  V2  1  0.35816277  0.00117039  0.86883248  1
  V  V3  1  0.49930796  0.24432937  0.24256471  1
  V  V4  1  0.74398528  0.74869191  0.00165391  1
  V  V5  1  0.38396856  0.37370221  -0.00919218  1
  V  V6  1  0.49456535  0.00803465  0.50539384  1
  V  V7  1  0.74823419  0.87608819  0.62689972  1
  V  V8  1  0.87441871  0.61857002  0.74860508  1
  V  V9  1  0.12416441  0.74000988  0.87938247  1
  V  V10  1  0.00447056  0.50242908  0.50202130  1
  V  V11  1  0.49735132  0.23491313  0.74481617  1
  V  V12  1  0.12547258  -0.00484381  0.13051783  1
  V  V13  1  0.01048421  0.87340326  0.37111413  1
  V  V14  1  0.87791289  0.87483348  0.49814315  1
  V  V15  1  0.87399170  0.37295461  0.49848753  1
  V  V16  1  0.12555639  0.38599202  0.24449477  1
  V  V17  1  0.24895104  0.74386217  0.00042231  1
  V  V18  1  0.86739909  0.12678987  0.25337855  1
  V  V19  1  0.11791208  0.25092007  0.87511284  1
  V  V20  1  0.62568331  0.37532670  0.24331950  1
  V  V21  1  0.24601164  -0.00300973  0.25358964  1
  V  V22  1  -0.00643714  0.38249466  0.88557040  1
  V  V23  1  0.12876979  0.37822365  0.75142827  1
  V  V24  1  0.37477983  0.36498429  0.50810352  1
  V  V25  1  0.14440715  0.24583721  0.37786336  1
  V  V26  1  0.86939298  0.00325115  0.37473509  1
  V  V27  1  0.87428613  0.00103719  0.87027798  1
  V  V28  1  0.87267458  0.87657732  0.00076279  1
  V  V29  1  0.62138996  0.25210993  0.87561347  1
  V  V30  1  0.25148781  0.38180609  0.12346080  1
  V  V31  1  0.36583460  0.62002833  0.75017630  1
  V  V32  1  0.87651931  0.25621468  0.12115680  1
  V  V33  1  0.62397674  0.75097058  0.37535890  1
  V  V34  1  0.12707166  0.87852863  0.74848355  1
  V  V35  1  0.00041266  0.37541072  0.37172312  1
  V  V36  1  0.24323427  0.88109723  0.62790532  1
  V  V37  1  0.49691292  0.87647241  0.37734079  1
  V  V38  1  0.62379762  0.87729256  0.24861577  1
  V  V39  1  0.87517922  0.74833428  0.62491857  1
  V  V40  1  0.37573752  0.87469308  0.00200264  1
  V  V41  1  0.75266677  0.12491532  0.87088052  1
  V  V42  1  0.62110361  0.00530342  0.62561750  1
  V  V43  1  0.60697006  0.00460248  0.12067112  1
  V  V44  1  0.25255948  0.86886911  0.12825451  1
  V  V45  1  0.50282562  0.49811850  0.49824034  1
  V  V46  1  0.37161022  0.61421089  0.24689935  1
  V  V47  1  0.87433780  0.49862401  0.88877800  1
  V  V48  1  0.49929546  0.75103222  0.75049660  1
  V  V49  1  0.37017414  0.00559150  0.37800035  1
  V  V50  1  0.01049011  0.75371203  0.24857090  1
  V  V51  1  0.74876603  0.49895760  0.75008443  1
  V  V52  1  0.74576599  0.62585433  0.87735498  1
  V  V53  1  0.62531120  0.62577175  0.49850953  1
  V  V54  1  0.25108878  0.24421365  -0.00377409  1
  V  V55  1  0.62155638  0.74703496  0.87750727  1
  V  V56  1  0.37839847  0.24392856  0.12226340  1
  V  V57  1  0.75540414  0.25559265  -0.00141820  1
  V  V58  1  0.74940652  0.88335016  0.12611677  1
  V  V59  1  0.62588870  0.50005455  0.62433049  1
  V  V60  1  0.12273363  0.50323966  0.10130968  1
  V  V61  1  0.00058503  0.00081346  0.00409158  1
  V  V62  1  0.74943482  0.50102114  0.24757728  1
  V  V63  1  0.61250051  0.12286748  0.00263407  1
  V  V64  1  -0.00139955  0.74781865  0.74944331  1
  V  V65  1  0.74980238  0.74930825  0.49892282  1
  V  V66  1  0.61870490  0.37350482  0.75288723  1
  V  V67  1  0.37406095  0.49892251  0.87176377  1
  V  V68  1  0.24236617  0.73512307  0.49548590  1
  V  V69  1  0.87478775  0.49953406  0.37290602  1
  V  V70  1  0.49858963  0.88459581  0.87870318  1
  V  V71  1  0.50032601  0.62641055  0.62307708  1
  V  V72  1  0.74940596  0.24477361  0.49207851  1
  V  V73  1  0.62263113  0.51040272  0.11953940  1
  V  V74  1  0.50289677  0.50643939  -0.00446369  1
  V  V75  1  0.13211770  0.50453980  0.62688132  1
  V  V76  1  0.62862789  0.12309070  0.49109695  1
  V  V77  1  0.01127970  0.01025118  0.50109419  1
  V  V78  1  0.00419034  0.62296079  0.11184630  1
  V  V79  1  0.36960593  0.12802152  0.25055305  1
  V  V80  1  0.37218209  0.74909708  0.62286228  1
  V  V81  1  0.87499004  0.62898280  0.24804041  1
  V  V82  1  0.75195744  0.36995787  0.62314058  1
  V  V83  1  0.50337752  0.37348368  0.37423104  1
  V  V84  1  0.00322611  0.24874745  0.24948125  1
  Zn  Zn85  1  0.22462464  0.57552760  0.34614016  1
  Zn  Zn86  1  0.63040968  0.23961394  0.36472700  1
  Zn  Zn87  1  0.74900034  0.62603112  0.37355961  1
  Zn  Zn88  1  0.37467102  0.21482298  0.61653190  1
  Zn  Zn89  1  0.89368905  0.22954855  0.62204003  1
  Zn  Zn90  1  0.91040300  0.13957022  0.74708079  1
  Zn  Zn91  1  0.74289889  0.00952615  0.25618566  1
  Zn  Zn92  1  0.87734284  0.75226790  0.12405106  1
  Zn  Zn93  1  0.75356125  0.00484507  0.74402667  1
  Zn  Zn94  1  0.00168766  0.12475443  0.12620878  1
  Zn  Zn95  1  0.62431982  0.87851558  0.75222155  1
  Zn  Zn96  1  0.75677056  0.38096292  0.11613429  1
  Zn  Zn97  1  0.12741227  0.73596456  0.37696864  1
  Zn  Zn98  1  0.07579570  0.06175495  0.66381025  1
  Zn  Zn99  1  0.13029571  0.12272737  0.00376902  1
  Zn  Zn100  1  0.37317725  0.50296906  0.37918255  1
  Zn  Zn101  1  0.49672918  0.63537569  0.11750395  1
  Zn  Zn102  1  0.00288017  0.62261309  0.62143344  1
  Zn  Zn103  1  0.25962520  0.37460879  0.63401370  1
  Zn  Zn104  1  0.36940115  0.87572438  0.50118790  1
  Zn  Zn105  1  0.24343556  0.61847225  0.87822343  1
  Zn  Zn106  1  0.24691971  0.12491311  0.85501466  1
  Zn  Zn107  1  0.18974559  0.18710591  0.18657506  1
  Zn  Zn108  1  0.19792353  0.20444923  0.69591112  1
  Zn  Zn109  1  0.18805170  0.68156633  0.18448553  1
  Zn  Zn110  1  0.18529380  0.69014974  0.68759990  1
  Zn  Zn111  1  0.68846714  0.18774965  0.17986795  1
  Zn  Zn112  1  0.68972093  0.18721824  0.68447945  1
  Zn  Zn113  1  0.68512909  0.69207453  0.18831715  1
  Zn  Zn114  1  0.68634832  0.68915816  0.68951423  1
  Zn  Zn115  1  0.29570789  0.35625007  0.32787468  1
  Zn  Zn116  1  0.30979139  0.30978603  0.80332773  1
  Zn  Zn117  1  0.31225526  0.81059009  0.31256411  1
  Zn  Zn118  1  0.31149172  0.81054893  0.81380438  1
  Zn  Zn119  1  0.81234620  0.31382795  0.30940482  1
  Zn  Zn120  1  0.81517676  0.31101350  0.80847037  1
  Zn  Zn121  1  0.81451573  0.81590981  0.31253290  1
  Zn  Zn122  1  0.81190251  0.81244648  0.81249609  1
  Zn  Zn123  1  0.18607430  0.42646247  0.44473614  1
  Zn  Zn124  1  0.19500861  0.43162903  0.93413320  1
  Zn  Zn125  1  0.19029450  0.93197261  0.44125352  1
  Zn  Zn126  1  0.18435632  0.92863152  0.94136411  1
  Zn  Zn127  1  0.68824643  0.43580783  0.43365048  1
  Zn  Zn128  1  0.68668303  0.43809481  0.93585915  1
  Zn  Zn129  1  0.68611436  0.93644065  0.43997714  1
  Zn  Zn130  1  0.68454579  0.93910417  0.93960904  1
  Zn  Zn131  1  0.31855479  0.05717240  0.06209814  1
  Zn  Zn132  1  0.30746202  0.06420337  0.68765110  1
  Zn  Zn133  1  0.31802807  0.56225661  0.06403172  1
  Zn  Zn134  1  0.31476827  0.55715743  0.56034029  1
  Zn  Zn135  1  0.81111145  0.06976065  0.06232829  1
  Zn  Zn136  1  0.81633648  0.06297917  0.56103103  1
  Zn  Zn137  1  0.81018550  0.56793234  0.06628605  1
  Zn  Zn138  1  0.81283282  0.55969789  0.56121935  1
  Zn  Zn139  1  0.44000081  0.43619000  0.18090416  1
  Zn  Zn140  1  0.44362422  0.43874258  0.68985990  1
  Zn  Zn141  1  0.43191111  0.93540673  0.18996364  1
  Zn  Zn142  1  0.43632715  0.93667683  0.69011786  1
  Zn  Zn143  1  0.94164100  0.44136014  0.18166667  1
  Zn  Zn144  1  0.96204041  0.39034944  0.67270534  1
  Zn  Zn145  1  0.93528470  0.93751261  0.19093468  1
  Zn  Zn146  1  0.94025933  0.93703159  0.68423888  1
  Zn  Zn147  1  0.06197971  0.06604450  0.31889976  1
  Zn  Zn148  1  0.06912332  0.06231564  0.82699172  1
  Zn  Zn149  1  0.05489735  0.56588144  0.30827443  1
  Zn  Zn150  1  0.05747994  0.55746190  0.81095320  1
  Zn  Zn151  1  0.55872964  0.06110099  0.30985141  1
  Zn  Zn152  1  0.56624731  0.06120375  0.81550017  1
  Zn  Zn153  1  0.55950026  0.56438692  0.31012108  1
  Zn  Zn154  1  0.55780861  0.56320221  0.81210110  1
  Zn  Zn155  1  0.44006029  0.18734506  0.43220486  1
  Zn  Zn156  1  0.43451180  0.18434638  0.92768872  1
  Zn  Zn157  1  0.43264223  0.68560384  0.43286970  1
  Zn  Zn158  1  0.43327583  0.68855092  0.93612928  1
  Zn  Zn159  1  0.93896468  0.18829461  0.43577176  1
  Zn  Zn160  1  0.93844915  0.18679354  0.93648309  1
  Zn  Zn161  1  0.93916264  0.68714677  0.43517233  1
  Zn  Zn162  1  0.93062145  0.68951294  0.93504581  1
  Zn  Zn163  1  0.06207407  0.31494263  0.06072387  1
  Zn  Zn164  1  0.06950658  0.30846447  0.55649644  1
  Zn  Zn165  1  0.06489101  0.81194410  0.06460500  1
  Zn  Zn166  1  0.06147096  0.81243575  0.55970541  1
  Zn  Zn167  1  0.56449537  0.31402367  0.05857495  1
  Zn  Zn168  1  0.56176239  0.30524165  0.56583755  1
  Zn  Zn169  1  0.56227135  0.81827459  0.06132448  1
  Zn  Zn170  1  0.56138084  0.81573590  0.56164333  1
  O  O171  1  0.12406867  0.11117791  0.12263854  1
  O  O172  1  0.13982914  0.14417364  0.59817461  1
  O  O173  1  0.11682875  0.61314725  0.12717938  1
  O  O174  1  0.12303953  0.60834021  0.63140487  1
  O  O175  1  0.63057042  0.11525697  0.11487098  1
  O  O176  1  0.63134648  0.11084836  0.61379446  1
  O  O177  1  0.62259641  0.61355565  0.12908926  1
  O  O178  1  0.62025324  0.62135486  0.61956716  1
  O  O179  1  0.39227896  0.37281306  0.38730918  1
  O  O180  1  0.36923715  0.38252241  0.88495646  1
  O  O181  1  0.38510598  0.88370260  0.37366133  1
  O  O182  1  0.37877585  0.88222639  0.87937370  1
  O  O183  1  0.88021232  0.38042265  0.37699880  1
  O  O184  1  0.88618847  0.38306486  0.86941281  1
  O  O185  1  0.88427830  0.88260425  0.37907295  1
  O  O186  1  0.87903873  0.88142818  0.88068495  1
  O  O187  1  0.26041563  -0.01130253  0.36661547  1
  O  O188  1  0.25579185  -0.00484428  0.87785853  1
  O  O189  1  0.26013834  0.47105545  0.36916821  1
  O  O190  1  0.26791321  0.50507092  0.88532712  1
  O  O191  1  0.76435424  -0.00878361  0.37428824  1
  O  O192  1  0.75962456  0.00647603  0.87734707  1
  O  O193  1  0.75611440  0.50222408  0.36582703  1
  O  O194  1  0.75361666  0.50551646  0.86941347  1
  O  O195  1  0.24230292  0.48813338  0.11340756  1
  O  O196  1  0.23626527  0.49292808  0.61736816  1
  O  O197  1  0.24456101  0.99202225  0.13235674  1
  O  O198  1  0.24701865  0.97828327  0.62626986  1
  O  O199  1  0.74114612  0.49848654  0.12808159  1
  O  O200  1  0.74268375  0.49336980  0.62953373  1
  O  O201  1  0.74672090  0.99077258  0.12548223  1
  O  O202  1  0.74159018  0.98960798  0.62188473  1
  O  O203  1  0.00665991  0.36766281  0.25050352  1
  O  O204  1  0.01815839  0.38029574  0.77132641  1
  O  O205  1  -0.00722927  0.86445953  0.25824470  1
  O  O206  1  0.00469169  0.86610185  0.75471419  1
  O  O207  1  0.50629406  0.36743851  0.25409860  1
  O  O208  1  0.51597017  0.36843567  0.74677539  1
  O  O209  1  0.50248139  0.87055834  0.25869245  1
  O  O210  1  0.49940958  0.86697052  0.76038461  1
  O  O211  1  0.48965411  0.13653622  0.25285544  1
  O  O212  1  0.50892394  0.13567067  0.75252162  1
  O  O213  1  0.49255661  0.63462104  0.24737834  1
  O  O214  1  0.49220874  0.63192491  0.74167742  1
  O  O215  1  0.99180738  0.13593594  0.24891790  1
  O  O216  1  1.02051813  0.11707029  0.74371859  1
  O  O217  1  0.98997226  0.63423847  0.23987276  1
  O  O218  1  0.98769400  0.62839550  0.74790358  1
  O  O219  1  0.37299788  0.25475617  0.00204684  1
  O  O220  1  0.39175886  0.26135109  0.50532003  1
  O  O221  1  0.36287814  0.76405976  -0.00984799  1
  O  O222  1  0.36886482  0.75157961  0.50954288  1
  O  O223  1  0.86753203  0.24177320  0.00957042  1
  O  O224  1  0.86580070  0.25475501  0.49964379  1
  O  O225  1  0.86176302  0.75948717  0.00018306  1
  O  O226  1  0.87055596  0.75395639  0.50464411  1
  O  O227  1  0.13366781  0.26807312  0.47693923  1
  O  O228  1  0.13581759  0.25226362  0.99433275  1
  O  O229  1  0.13885070  0.74563054  0.50308196  1
  O  O230  1  0.13366128  0.75747143  0.98834576  1
  O  O231  1  0.62940968  0.23819093  0.49721486  1
  O  O232  1  0.63329491  0.24431272  0.99433751  1
  O  O233  1  0.62893593  0.74573978  0.49549418  1
  O  O234  1  0.63319332  0.75742281  0.98967546  1
  O  O235  1  0.48976303  0.25882883  0.13178544  1
  O  O236  1  0.49459772  0.24985338  0.64126652  1
  O  O237  1  0.50834107  0.75296343  0.13812209  1
  O  O238  1  0.49068450  0.74807706  0.62772296  1
  O  O239  1  0.99514751  0.24935563  0.13199321  1
  O  O240  1  0.98884894  0.28851718  0.62561833  1
  O  O241  1  0.99939047  0.74528076  0.13243217  1
  O  O242  1  0.99268375  0.74631974  0.62978712  1
  O  O243  1  0.00197389  0.25741140  0.36282009  1
  O  O244  1  0.00976474  0.26090584  0.88329305  1
  O  O245  1  0.00143602  0.75619927  0.36713226  1
  O  O246  1  0.00442060  0.75358063  0.87075689  1
  O  O247  1  0.50568651  0.25726565  0.36107915  1
  O  O248  1  0.51848076  0.24580913  0.87089588  1
  O  O249  1  0.50363682  0.76051723  0.37013144  1
  O  O250  1  0.50598559  0.75628455  0.87085842  1
  O  O251  1  0.19169895  0.12402924  0.54591285  1
  O  O252  1  0.25430816  0.13842200  1.00425993  1
  O  O253  1  0.25824869  0.63515291  0.49688300  1
  O  O254  1  0.25922168  0.64038067  1.00195867  1
  O  O255  1  0.74229634  0.13396859  0.50191302  1
  O  O256  1  0.74503467  0.13523616  0.98950135  1
  O  O257  1  0.74406400  0.63152147  0.49823033  1
  O  O258  1  0.75383682  0.64088648  0.99468135  1
  O  O259  1  0.26103972  0.36315964  0.00581465  1
  O  O260  1  0.27301687  0.37075942  0.50325518  1
  O  O261  1  0.25561094  0.86618451  0.00887520  1
  O  O262  1  0.25005715  0.86367927  0.51517725  1
  O  O263  1  0.74615226  0.36004095  -0.00190724  1
  O  O264  1  0.75191324  0.36808791  0.50496080  1
  O  O265  1  0.75246273  0.86957348  0.00752822  1
  O  O266  1  0.75537735  0.86916666  0.50876974  1
  O  O267  1  0.11980152  0.48758715  0.24319216  1
  O  O268  1  0.12002512  0.49236773  0.73690917  1
  O  O269  1  0.13631533  1.00700378  0.24509984  1
  O  O270  1  0.11688277  0.97974529  0.75148855  1
  O  O271  1  0.62756569  0.49378415  0.24072472  1
  O  O272  1  0.62853081  0.49356151  0.74645370  1
  O  O273  1  0.62589290  0.99692875  0.24034101  1
  O  O274  1  0.62842628  0.99730375  0.73906923  1
  O  O275  1  0.36877504  0.00873420  0.25656253  1
  O  O276  1  0.36892391  -0.00688851  0.76429663  1
  O  O277  1  0.38455209  0.50983907  0.25161602  1
  O  O278  1  0.38407370  0.50791676  0.75876572  1
  O  O279  1  0.87312265  0.00998239  0.25700069  1
  O  O280  1  0.87663058  -0.00481571  0.76489097  1
  O  O281  1  0.87109949  0.50826051  0.25152480  1
  O  O282  1  0.86675829  0.51110332  0.75971450  1
  O  O283  1  0.11924663  0.36761674  0.35999726  1
  O  O284  1  0.11664002  0.37260528  0.87329677  1
  O  O285  1  0.11251945  0.86908803  0.37785499  1
  O  O286  1  0.11897423  0.86358328  0.86754881  1
  O  O287  1  0.61806153  0.37391016  0.36042557  1
  O  O288  1  0.63557346  0.36347272  0.86335802  1
  O  O289  1  0.61502859  0.87333377  0.36997419  1
  O  O290  1  0.61642336  0.86816136  0.87480930  1
  O  O291  1  0.37272954  0.13592221  0.13136562  1
  O  O292  1  0.37865971  0.10473814  0.61582910  1
  O  O293  1  0.37973286  0.62200387  0.14053565  1
  O  O294  1  0.38030298  0.63000686  0.63008093  1
  O  O295  1  0.87833938  0.13527697  0.13435362  1
  O  O296  1  0.87115237  0.11963834  0.63747610  1
  O  O297  1  0.88256102  0.62736157  0.13396051  1
  O  O298  1  0.87301643  0.62851799  0.63488003  1
  O  O299  1  0.25913988  0.25769196  0.11599979  1
  O  O300  1  0.28305494  0.26740624  0.66213392  1
  O  O301  1  0.23909746  0.76193912  0.11730885  1
  O  O302  1  0.25788491  0.74808760  0.61493855  1
  O  O303  1  0.75917635  0.25286308  0.11511747  1
  O  O304  1  0.74328786  0.26050468  0.61146434  1
  O  O305  1  0.74634562  0.76257263  0.11693099  1
  O  O306  1  0.75408478  0.75733721  0.61991746  1
  O  O307  1  0.24258031  0.25892857  0.35942294  1
  O  O308  1  0.24234545  0.24885664  0.88235285  1
  O  O309  1  0.24968110  0.75881455  0.39255640  1
  O  O310  1  0.24039427  0.74727519  0.88242646  1
  O  O311  1  0.74595315  0.25829437  0.38698864  1
  O  O312  1  0.74487594  0.24292132  0.88055652  1
  O  O313  1  0.74279118  0.75211734  0.38114919  1
  O  O314  1  0.74125910  0.74827344  0.88139325  1
  O  O315  1  -0.00051978  0.10941318  0.00237193  1
  O  O316  1  -0.00249619  0.11001035  0.49581277  1
  O  O317  1  -0.00747065  0.63608452  0.01384159  1
  O  O318  1  -0.00734383  0.60771961  0.50173225  1
  O  O319  1  0.51387881  0.13192946  -0.00562138  1
  O  O320  1  0.50925726  0.11339002  0.49443823  1
  O  O321  1  0.49141560  0.61335278  0.00199408  1
  O  O322  1  0.50507812  0.62014261  0.50373761  1
  O  O323  1  0.50324391  0.37788327  0.49164378  1
  O  O324  1  0.48992821  0.38364942  1.00303034  1
  O  O325  1  0.49799313  0.88351295  0.48960997  1
  O  O326  1  0.48868026  0.86737913  0.98892792  1
  O  O327  1  0.99267085  0.38521249  0.48860566  1
  O  O328  1  1.00175132  0.37629520  0.98550382  1
  O  O329  1  0.99497476  0.87893111  0.48992898  1
  O  O330  1  0.99418166  0.88253776  0.99679106  1
  O  O331  1  0.50374270  0.48806054  0.37977933  1
  O  O332  1  0.48959306  0.50366929  0.88377698  1
  O  O333  1  0.49227351  0.99344464  0.38042152  1
  O  O334  1  0.49230145  0.98808362  0.87047023  1
  O  O335  1  0.99409651  0.49394307  0.37907553  1
  O  O336  1  0.98942908  0.49231059  0.87737565  1
  O  O337  1  0.99255592  0.99225290  0.37984647  1
  O  O338  1  0.99360893  0.99246429  0.88621352  1
  O  O339  1  0.00740000  -0.00322319  0.12027949  1
  O  O340  1  0.00603587  -0.00981494  0.60659091  1
  O  O341  1  0.00965744  0.51024999  0.12361823  1
  O  O342  1  0.01053600  0.49240208  0.61647161  1
  O  O343  1  0.50817611  -0.00458936  0.12749447  1
  O  O344  1  0.50979582  -0.01396713  0.61438828  1
  O  O345  1  0.50845515  0.50158791  0.11431416  1
  O  O346  1  0.50868341  0.50691220  0.61862561  1
  O  O347  1  0.23900010  0.36942522  0.23011907  1
  O  O348  1  0.23227812  0.38577359  0.76438404  1
  O  O349  1  0.25966363  0.88554317  0.24032608  1
  O  O350  1  0.24051710  0.86107227  0.73755553  1
  O  O351  1  0.73953181  0.38079447  0.24649244  1
  O  O352  1  0.74113248  0.37921221  0.74078405  1
  O  O353  1  0.74277369  0.87554576  0.24003959  1
  O  O354  1  0.75030559  0.87629376  0.73710663  1
  O  O355  1  0.26179188  0.11405662  0.24449950  1
  O  O356  1  0.22239190  0.10797489  0.74546180  1
  O  O357  1  0.26626593  0.62760704  0.24890408  1
  O  O358  1  0.26357390  0.62917593  0.74955019  1
  O  O359  1  0.76229846  0.12861681  0.24790089  1
  O  O360  1  0.74227692  0.12296465  0.76639275  1
  O  O361  1  0.75932321  0.62195905  0.24842182  1
  O  O362  1  0.75575640  0.62105492  0.75585817  1
  O  O363  1  0.37800712  0.11542272  0.36518030  1
  O  O364  1  0.36728170  0.10532212  0.88012613  1
  O  O365  1  0.37640252  0.61950552  0.36012380  1
  O  O366  1  0.37375188  0.61862031  0.86418114  1
  O  O367  1  0.88122770  0.11506598  0.36495403  1
  O  O368  1  0.87004730  0.11660075  0.87236534  1
  O  O369  1  0.87456091  0.61950029  0.36254855  1
  O  O370  1  0.86737457  0.61904806  0.86761862  1
  O  O371  1  0.13023199  0.38431175  0.12532506  1
  O  O372  1  0.13104504  0.37766499  0.64179673  1
  O  O373  1  0.13533566  0.88740999  0.12280340  1
  O  O374  1  0.13557663  0.86300394  0.63372917  1
  O  O375  1  0.62511386  0.38367222  0.13341941  1
  O  O376  1  0.63291511  0.37964247  0.63087218  1
  O  O377  1  0.63100178  0.88626875  0.12754930  1
  O  O378  1  0.63428189  0.88224473  0.62373084  1
  O  O379  1  0.11672071  0.25888412  0.24845602  1
  O  O380  1  0.12790601  0.26647371  0.76494020  1
  O  O381  1  0.11261107  0.74492452  0.25047936  1
  O  O382  1  0.11737378  0.75496120  0.75813692  1
  O  O383  1  0.61783578  0.25662864  0.24367122  1
  O  O384  1  0.61985934  0.25452383  0.75543792  1
  O  O385  1  0.61615269  0.75766889  0.25696208  1
  O  O386  1  0.61883822  0.75451317  0.75938309  1
  O  O387  1  0.38170509  0.24370136  0.23926667  1
  O  O388  1  0.40112580  0.24989704  0.77328118  1
  O  O389  1  0.38619188  0.74175186  0.25609259  1
  O  O390  1  0.37907385  0.74156738  0.74140553  1
  O  O391  1  0.88270772  0.24533130  0.24407439  1
  O  O392  1  0.87067739  0.24647855  0.73939880  1
  O  O393  1  0.88079638  0.74162490  0.24830860  1
  O  O394  1  0.87756786  0.73962168  0.74692687  1
  O  O395  1  0.38752064  0.48938503  0.49848953  1
  O  O396  1  0.38407955  0.49186282  0.99437456  1
  O  O397  1  0.38397309  0.99537492  0.48703657  1
  O  O398  1  0.36863932  0.98439880  0.98734238  1
  O  O399  1  0.87962854  0.49278948  0.49247946  1
  O  O400  1  0.86315642  0.50314423  0.98752016  1
  O  O401  1  0.88378758  0.99406380  0.49106716  1
  O  O402  1  0.88099831  0.99655369  0.99327615  1
  O  O403  1  0.11584443  -0.00258415  0.00839738  1
  O  O404  1  0.11034031  -0.00043332  0.48755792  1
  O  O405  1  0.12736388  0.49830547  0.00256998  1
  O  O406  1  0.11617385  0.48492161  0.51493249  1
  O  O407  1  0.62808926  0.01019503  0.00857282  1
  O  O408  1  0.61683024  0.00475478  0.50490125  1
  O  O409  1  0.61525231  0.49282256  0.00680778  1
  O  O410  1  0.62242604  0.50526225  0.50394496  1
  O  O411  1  0.36847351  0.36742000  0.11577151  1
  O  O412  1  0.38463894  0.38269214  0.61045259  1
  O  O413  1  0.36388623  0.88093658  0.11527765  1
  O  O414  1  0.36273420  0.86343874  0.62850000  1
  O  O415  1  0.87498809  0.36129533  0.13132335  1
  O  O416  1  0.85701496  0.38367133  0.61684036  1
  O  O417  1  0.86500815  0.87528322  0.12019321  1
  O  O418  1  0.86721202  0.86953877  0.61951906  1
  O  O419  1  0.12599814  0.14698174  0.36661575  1
  O  O420  1  0.12936231  0.13682512  0.88730453  1
  O  O421  1  0.12801239  0.62208073  0.36994651  1
  O  O422  1  0.12425270  0.63570057  0.86608693  1
  O  O423  1  0.62434331  0.12099338  0.38504166  1
  O  O424  1  0.63443970  0.13029827  0.88425257  1
  O  O425  1  0.62527270  0.63234360  0.38039771  1
  O  O426  1  0.62886642  0.63835325  0.86909474  1
