# generated using pymatgen
data_V85Zn86O256
_symmetry_space_group_name_H-M   'P 1'
_cell_length_a   16.98611898
_cell_length_b   16.96508014
_cell_length_c   16.98543082
_cell_angle_alpha   90.11754582
_cell_angle_beta   90.06149199
_cell_angle_gamma   89.90327486
_symmetry_Int_Tables_number   1
_chemical_formula_structural   V85Zn86O256
_chemical_formula_sum   'V85 Zn86 O256'
_cell_volume   4894.68629608
_cell_formula_units_Z   1
loop_
 _symmetry_equiv_pos_site_id
 _symmetry_equiv_pos_as_xyz
  1  'x, y, z'
loop_
 _atom_site_type_symbol
 _atom_site_label
 _atom_site_symmetry_multiplicity
 _atom_site_fract_x
 _atom_site_fract_y
 _atom_site_fract_z
 _atom_site_occupancy
  V  V0  1  0.49990433  0.38010900  0.88162538  1
  V  V1  1  0.12674898  0.37485810  0.74989155  1
  V  V2  1  0.75065789  0.24932845  -0.00159410  1
  V  V3  1  0.75137379  0.12681159  0.87134291  1
  V  V4  1  0.00517207  0.50154897  0.00245707  1
  V  V5  1  0.11203922  0.75392839  0.36737162  1
  V  V6  1  0.37363559  0.62369939  0.74901485  1
  V  V7  1  0.00350598  0.37155943  0.87377694  1
  V  V8  1  0.00394627  0.37094458  0.38196495  1
  V  V9  1  0.61063968  0.62124365  0.00161304  1
  V  V10  1  0.49705707  0.24329341  0.24349920  1
  V  V11  1  0.36608453  0.87498976  -0.00627033  1
  V  V12  1  0.00137439  0.62552885  0.62696472  1
  V  V13  1  0.25912806  0.24896975  0.00354817  1
  V  V14  1  0.25250263  0.50129646  0.25090717  1
  V  V15  1  0.62047541  0.00463872  0.12509351  1
  V  V16  1  0.50130616  0.75116045  0.74561322  1
  V  V17  1  0.36185916  -0.00281730  0.37553714  1
  V  V18  1  0.37543309  0.36584998  0.50463521  1
  V  V19  1  0.24728221  0.24487578  0.48589411  1
  V  V20  1  0.12646449  0.50003956  0.62625928  1
  V  V21  1  0.25356192  0.75513632  0.49999989  1
  V  V22  1  -0.00040096  0.24852877  0.24949869  1
  V  V23  1  0.38201897  0.75364681  0.12000438  1
  V  V24  1  0.12672898  0.37121309  0.25688389  1
  V  V25  1  0.75357571  0.12607745  0.37782909  1
  V  V26  1  0.62639434  0.12669055  0.50008041  1
  V  V27  1  0.00207330  0.24555834  0.73870196  1
  V  V28  1  0.87667339  0.37574380  0.00125633  1
  V  V29  1  0.62822488  0.37572486  0.74443937  1
  V  V30  1  0.00106126  0.00499963  0.01430095  1
  V  V31  1  0.12020631  0.12424388  0.01313310  1
  V  V32  1  0.87523713  -0.01164911  0.37920056  1
  V  V33  1  0.62556011  0.87539042  0.74599149  1
  V  V34  1  0.87657801  0.50198580  0.87703823  1
  V  V35  1  0.87661676  0.00483987  0.87105195  1
  V  V36  1  0.62331540  0.75144432  0.87425314  1
  V  V37  1  0.50061863  0.49796558  0.50085415  1
  V  V38  1  0.62091767  0.85870869  0.25144457  1
  V  V39  1  0.25309395  0.36672758  0.62564869  1
  V  V40  1  0.11128060  0.87832277  0.24592382  1
  V  V41  1  0.12460391  0.87776015  0.74940613  1
  V  V42  1  0.62143270  0.37193434  0.24922611  1
  V  V43  1  0.75079769  0.00125290  0.74770334  1
  V  V44  1  0.62404886  -0.00093433  0.62336609  1
  V  V45  1  0.12104866  0.13002981  0.48256577  1
  V  V46  1  0.87231728  0.75403533  0.61445231  1
  V  V47  1  0.49057995  0.13080526  0.62360285  1
  V  V48  1  0.75071397  0.87822661  0.12058572  1
  V  V49  1  0.12414524  0.62437718  0.50134953  1
  V  V50  1  0.74930348  0.50135369  0.26023829  1
  V  V51  1  0.11940246  0.01156865  0.62513243  1
  V  V52  1  0.50127330  0.62242120  0.62435716  1
  V  V53  1  0.75199970  0.37518546  0.12580272  1
  V  V54  1  0.13394148  0.75096511  0.87922990  1
  V  V55  1  0.61588222  0.50336042  0.11930391  1
  V  V56  1  0.87169013  0.87717245  -0.00232652  1
  V  V57  1  0.75177406  0.87244895  0.61187597  1
  V  V58  1  0.74760333  0.00197168  0.25425465  1
  V  V59  1  0.25349693  0.87811064  0.61941493  1
  V  V60  1  0.13500187  0.62776967  0.00022844  1
  V  V61  1  -0.00420714  -0.01023506  0.49849774  1
  V  V62  1  0.36462887  0.12523495  0.24984176  1
  V  V63  1  0.49412191  -0.00338756  0.49535896  1
  V  V64  1  0.63519542  0.63080769  0.49603856  1
  V  V65  1  0.25689984  0.37067351  0.12593557  1
  V  V66  1  0.49212328  0.25262131  0.74704044  1
  V  V67  1  0.49505785  -0.00176303  -0.00757553  1
  V  V68  1  0.25293233  0.00260049  0.75442688  1
  V  V69  1  0.25020833  0.62851814  0.37373592  1
  V  V70  1  0.85756679  0.24809846  0.62261903  1
  V  V71  1  0.75036423  0.49592043  0.74676068  1
  V  V72  1  0.62780757  0.24742166  0.37605017  1
  V  V73  1  0.39016226  0.63623903  0.24701690  1
  V  V74  1  0.00075197  0.87947969  0.87479419  1
  V  V75  1  0.62622734  0.25104829  0.87431745  1
  V  V76  1  0.75051369  0.62558920  0.87772673  1
  V  V77  1  0.87936700  0.24529362  0.12690207  1
  V  V78  1  0.12596282  0.50692660  0.12613152  1
  V  V79  1  0.37668000  0.50144507  0.37655085  1
  V  V80  1  0.37869821  0.50085707  0.88555282  1
  V  V81  1  0.85869290  0.37232492  0.50545844  1
  V  V82  1  -0.00034113  0.75143376  0.75224361  1
  V  V83  1  0.87593757  0.62662602  0.75312163  1
  V  V84  1  0.37320509  0.12282376  0.75521179  1
  Zn  Zn85  1  0.62174816  0.12561622  -0.00214848  1
  Zn  Zn86  1  0.49305883  0.86006165  0.35990109  1
  Zn  Zn87  1  0.25205587  0.12363078  0.88118999  1
  Zn  Zn88  1  0.24263275  0.87341923  0.12626043  1
  Zn  Zn89  1  0.88978176  0.74119729  0.13220781  1
  Zn  Zn90  1  0.88334064  0.12266107  0.73962591  1
  Zn  Zn91  1  0.49177438  0.12894748  0.11988478  1
  Zn  Zn92  1  0.38221090  0.37436637  0.00908894  1
  Zn  Zn93  1  0.12879896  0.24621970  0.87505487  1
  Zn  Zn94  1  0.63305615  0.49574188  0.62258420  1
  Zn  Zn95  1  0.25427272  0.62576273  0.87663270  1
  Zn  Zn96  1  0.89867959  0.64182526  0.25451680  1
  Zn  Zn97  1  0.49528190  0.88106457  0.86780051  1
  Zn  Zn98  1  0.49802679  0.37016031  0.37665660  1
  Zn  Zn99  1  0.87581392  0.50091947  0.38001726  1
  Zn  Zn100  1  0.23702209  0.00143865  0.24177110  1
  Zn  Zn101  1  0.74591789  0.74959606  0.00033275  1
  Zn  Zn102  1  0.75678382  0.64078040  0.37955386  1
  Zn  Zn103  1  0.88152264  0.12210167  0.24862393  1
  Zn  Zn104  1  -0.00026004  0.49558518  0.50317816  1
  Zn  Zn105  1  0.37434980  0.75425794  0.62235136  1
  Zn  Zn106  1  0.25199446  0.49805491  0.75149694  1
  Zn  Zn107  1  0.18774616  0.18924022  0.18900456  1
  Zn  Zn108  1  0.18865245  0.18976822  0.68478971  1
  Zn  Zn109  1  0.19463660  0.69510325  0.18579820  1
  Zn  Zn110  1  0.18755271  0.69058289  0.68870244  1
  Zn  Zn111  1  0.68870240  0.18596176  0.18700171  1
  Zn  Zn112  1  0.68376900  0.18690381  0.68835485  1
  Zn  Zn113  1  0.71212830  0.67831414  0.17739829  1
  Zn  Zn114  1  0.68874728  0.68742217  0.68407544  1
  Zn  Zn115  1  0.31516333  0.31267080  0.31405527  1
  Zn  Zn116  1  0.31290089  0.31297827  0.81769709  1
  Zn  Zn117  1  0.30571325  0.81753919  0.30948698  1
  Zn  Zn118  1  0.31305273  0.81544526  0.80762853  1
  Zn  Zn119  1  0.81531376  0.31445128  0.31566985  1
  Zn  Zn120  1  0.81631752  0.31234224  0.81034129  1
  Zn  Zn121  1  0.82077351  0.80786592  0.30590225  1
  Zn  Zn122  1  0.81231119  0.81503359  0.80910570  1
  Zn  Zn123  1  0.19029342  0.43787467  0.44011006  1
  Zn  Zn124  1  0.19392752  0.43695426  0.93726385  1
  Zn  Zn125  1  0.17944697  0.93664306  0.43559448  1
  Zn  Zn126  1  0.18379066  0.94299476  0.93916026  1
  Zn  Zn127  1  0.68161029  0.43435733  0.43990316  1
  Zn  Zn128  1  0.68625979  0.43831793  0.93642919  1
  Zn  Zn129  1  0.68650780  0.81230880  0.43257052  1
  Zn  Zn130  1  0.68366700  0.94271583  0.93332385  1
  Zn  Zn131  1  0.30776120  0.05939414  0.06880130  1
  Zn  Zn132  1  0.30856702  0.06663926  0.56271960  1
  Zn  Zn133  1  0.31482799  0.56414811  0.06764584  1
  Zn  Zn134  1  0.31094735  0.56015714  0.56333149  1
  Zn  Zn135  1  0.81156157  0.06332357  0.05989212  1
  Zn  Zn136  1  0.81211373  0.06175331  0.56155919  1
  Zn  Zn137  1  0.81278672  0.56237635  0.06817608  1
  Zn  Zn138  1  0.81869740  0.56123940  0.56582882  1
  Zn  Zn139  1  0.43833872  0.44081574  0.19195892  1
  Zn  Zn140  1  0.43697298  0.43795974  0.68928813  1
  Zn  Zn141  1  0.43577502  0.93969838  0.18527791  1
  Zn  Zn142  1  0.43729687  0.94063233  0.68328882  1
  Zn  Zn143  1  0.95717026  0.46954688  0.20995295  1
  Zn  Zn144  1  0.93701959  0.43509874  0.68599239  1
  Zn  Zn145  1  0.93320750  0.93363033  0.19149759  1
  Zn  Zn146  1  0.93710017  0.93702546  0.68321386  1
  Zn  Zn147  1  0.05759665  0.06084291  0.31322671  1
  Zn  Zn148  1  0.06695805  0.06697424  0.81935574  1
  Zn  Zn149  1  0.06259293  0.56158264  0.31788038  1
  Zn  Zn150  1  0.06489133  0.56331836  0.81416755  1
  Zn  Zn151  1  0.55993978  0.05923354  0.31373068  1
  Zn  Zn152  1  0.56336394  0.06544300  0.81021615  1
  Zn  Zn153  1  0.56787315  0.56247922  0.31422068  1
  Zn  Zn154  1  0.56295827  0.56196050  0.81335692  1
  Zn  Zn155  1  0.43614438  0.18407627  0.43044368  1
  Zn  Zn156  1  0.43827185  0.18812324  0.93478796  1
  Zn  Zn157  1  0.43845299  0.68829119  0.43335477  1
  Zn  Zn158  1  0.43593309  0.69219287  0.93544691  1
  Zn  Zn159  1  0.93904366  0.18879899  0.44136398  1
  Zn  Zn160  1  0.93834523  0.18699906  0.93668666  1
  Zn  Zn161  1  0.93431523  0.68200008  0.43661156  1
  Zn  Zn162  1  0.95293507  0.70195656  0.95959337  1
  Zn  Zn163  1  0.06813452  0.31340945  0.06661365  1
  Zn  Zn164  1  0.06543159  0.30891260  0.56282409  1
  Zn  Zn165  1  0.05670619  0.80926206  0.06640552  1
  Zn  Zn166  1  0.06540104  0.81196886  0.56273538  1
  Zn  Zn167  1  0.56466041  0.31166224  0.06295844  1
  Zn  Zn168  1  0.56421001  0.31041315  0.56303215  1
  Zn  Zn169  1  0.56049710  0.81277849  0.06488182  1
  Zn  Zn170  1  0.54106299  0.79617428  0.53418365  1
  O  O171  1  0.12679275  0.12796630  0.11244396  1
  O  O172  1  0.12780852  0.11365344  0.62091704  1
  O  O173  1  0.13473962  0.61375178  0.11891469  1
  O  O174  1  0.12126149  0.62116025  0.62222063  1
  O  O175  1  0.62380636  0.11485646  0.12137767  1
  O  O176  1  0.61698754  0.12188497  0.61805478  1
  O  O177  1  0.63594447  0.61487092  0.11158685  1
  O  O178  1  0.61604907  0.61962473  0.61865280  1
  O  O179  1  0.37715371  0.38302646  0.38571978  1
  O  O180  1  0.38447085  0.38435828  0.87607386  1
  O  O181  1  0.37887415  0.89229814  0.36423693  1
  O  O182  1  0.37892672  0.86583141  0.88890185  1
  O  O183  1  0.88069868  0.37358072  0.39182915  1
  O  O184  1  0.88322445  0.38133352  0.88109432  1
  O  O185  1  0.86654840  0.89071385  0.37513808  1
  O  O186  1  0.87931268  0.88702948  0.87719785  1
  O  O187  1  0.26072943  -0.00319205  0.37664765  1
  O  O188  1  0.24441203  0.00087843  0.85735339  1
  O  O189  1  0.25591999  0.51030927  0.37257025  1
  O  O190  1  0.26317148  0.50107895  0.87008928  1
  O  O191  1  0.75759759  0.01134081  0.36467195  1
  O  O192  1  0.75517200  0.00693340  0.86712483  1
  O  O193  1  0.74723483  0.48802898  0.36384301  1
  O  O194  1  0.75596081  0.50751094  0.86889214  1
  O  O195  1  0.24382103  0.49337694  0.13121643  1
  O  O196  1  0.24450080  0.48815560  0.62657732  1
  O  O197  1  0.25151888  0.98770569  0.13006228  1
  O  O198  1  0.24085990  0.99520848  0.62968697  1
  O  O199  1  0.73985899  0.48780960  0.13581421  1
  O  O200  1  0.75182900  0.50509480  0.64335650  1
  O  O201  1  0.74337066  0.99862272  0.13258917  1
  O  O202  1  0.74516820  0.99380348  0.62861128  1
  O  O203  1  0.00900011  0.37279927  0.25968657  1
  O  O204  1  0.00540523  0.36873874  0.75689886  1
  O  O205  1  0.01076328  0.87544547  0.24977653  1
  O  O206  1  0.00606461  0.87266618  0.75508862  1
  O  O207  1  0.50781294  0.36612482  0.25217014  1
  O  O208  1  0.50589337  0.36893119  0.75673683  1
  O  O209  1  0.51604522  0.87862574  0.24469715  1
  O  O210  1  0.50562610  0.87054725  0.74730317  1
  O  O211  1  0.49534297  0.13074637  0.24832094  1
  O  O212  1  0.49330084  0.13214903  0.74363466  1
  O  O213  1  0.48799979  0.62356672  0.25874576  1
  O  O214  1  0.49536927  0.62882883  0.74153424  1
  O  O215  1  0.99994891  0.14318777  0.25729777  1
  O  O216  1  0.99939141  0.14091839  0.75963504  1
  O  O217  1  0.98869661  0.57738444  0.23747649  1
  O  O218  1  0.99577688  0.63067025  0.74708000  1
  O  O219  1  0.36404009  0.25009209  -0.00096417  1
  O  O220  1  0.36991554  0.26005875  0.49253766  1
  O  O221  1  0.37811205  0.76123641  0.00851195  1
  O  O222  1  0.35609763  0.74201343  0.50310322  1
  O  O223  1  0.87157917  0.25622373  0.00722836  1
  O  O224  1  0.87669522  0.26011227  0.51232860  1
  O  O225  1  0.85958950  0.77427972  -0.02043546  1
  O  O226  1  0.87833102  0.74375682  0.51589131  1
  O  O227  1  0.13063825  0.23683721  0.50075514  1
  O  O228  1  0.13177411  0.23992220  1.00097605  1
  O  O229  1  0.13315127  0.74408691  0.49055023  1
  O  O230  1  0.12192702  0.73964577  0.98886112  1
  O  O231  1  0.61661769  0.23878609  0.48911343  1
  O  O232  1  0.63255956  0.24924321  0.99226463  1
  O  O233  1  0.63759453  0.73344645  0.51114292  1
  O  O234  1  0.62571165  0.74402178  0.99022100  1
  O  O235  1  0.50492712  0.24853996  0.13819421  1
  O  O236  1  0.50665280  0.24141585  0.63626286  1
  O  O237  1  0.48356993  0.75198424  0.12453097  1
  O  O238  1  0.49605049  0.73806788  0.62594958  1
  O  O239  1  0.98826031  0.26350358  0.13539197  1
  O  O240  1  0.99571568  0.25447480  0.63594548  1
  O  O241  1  0.97916461  0.73140209  0.06903015  1
  O  O242  1  0.99481586  0.74705155  0.63226290  1
  O  O243  1  -0.00719574  0.26298628  0.36471742  1
  O  O244  1  -0.00229818  0.26340605  0.86803055  1
  O  O245  1  0.01467764  0.74188090  0.38039019  1
  O  O246  1  0.00980387  0.75898932  0.87111565  1
  O  O247  1  0.51202655  0.24812720  0.36416058  1
  O  O248  1  0.50521804  0.25778363  0.86506769  1
  O  O249  1  0.50858739  0.77115575  0.42399337  1
  O  O250  1  0.51185975  0.75092933  0.86605424  1
  O  O251  1  0.23689097  0.13414822  0.50517284  1
  O  O252  1  0.24278680  0.13117859  1.00306438  1
  O  O253  1  0.24482591  0.63046463  0.49195816  1
  O  O254  1  0.23901378  0.61994193  0.99748309  1
  O  O255  1  0.73639599  0.11687332  0.48994439  1
  O  O256  1  0.74803947  0.13198828  0.99006196  1
  O  O257  1  0.73658358  0.60838207  0.49992719  1
  O  O258  1  0.74601805  0.62605496  0.98528386  1
  O  O259  1  0.25206963  0.36668437  0.00969570  1
  O  O260  1  0.25687293  0.36762426  0.50547420  1
  O  O261  1  0.26466747  0.88426345  -0.00206861  1
  O  O262  1  0.23942549  0.86754987  0.50836159  1
  O  O263  1  0.75487568  0.37104843  0.00659759  1
  O  O264  1  0.75981750  0.37470077  0.50000651  1
  O  O265  1  0.75633275  0.88914924  0.00564224  1
  O  O266  1  0.73974077  0.87584898  0.51397671  1
  O  O267  1  0.13399128  0.49158482  0.24375530  1
  O  O268  1  0.12808665  0.49328138  0.74457626  1
  O  O269  1  0.12134802  0.98391557  0.26031498  1
  O  O270  1  0.13024268  0.99837472  0.74230623  1
  O  O271  1  0.62870312  0.48714794  0.24531064  1
  O  O272  1  0.63292742  0.49261721  0.75075171  1
  O  O273  1  0.63234111  0.99871072  0.24224284  1
  O  O274  1  0.62886084  0.99675442  0.74236901  1
  O  O275  1  0.37670738  0.00969418  0.26149147  1
  O  O276  1  0.36460142  0.00979423  0.74241196  1
  O  O277  1  0.37173316  0.51222700  0.25641007  1
  O  O278  1  0.37683163  0.51054255  0.75824321  1
  O  O279  1  0.86733136  0.00330414  0.25854979  1
  O  O280  1  0.87051851  0.00369339  0.75268006  1
  O  O281  1  0.85052248  0.48575111  0.25131751  1
  O  O282  1  0.86970740  0.50430608  0.75676368  1
  O  O283  1  0.12081514  0.38165194  0.36500095  1
  O  O284  1  0.11707779  0.37499532  0.87007998  1
  O  O285  1  0.12467415  0.85924861  0.36805206  1
  O  O286  1  0.12095902  0.87024738  0.87113503  1
  O  O287  1  0.62276506  0.36423098  0.36656489  1
  O  O288  1  0.61743994  0.37174335  0.86663049  1
  O  O289  1  0.62543927  0.87117151  0.35387384  1
  O  O290  1  0.62456796  0.86611642  0.86660518  1
  O  O291  1  0.37724394  0.11753578  0.14528839  1
  O  O292  1  0.38455799  0.12517576  0.63307692  1
  O  O293  1  0.37262367  0.63467800  0.13943290  1
  O  O294  1  0.38444781  0.62309830  0.63209466  1
  O  O295  1  0.86722155  0.14122182  0.12718955  1
  O  O296  1  0.87045759  0.14271536  0.62155607  1
  O  O297  1  0.82899545  0.64061647  0.14581752  1
  O  O298  1  0.88085681  0.63298580  0.63392061  1
  O  O299  1  0.24596222  0.26181441  0.11842094  1
  O  O300  1  0.24645666  0.26265387  0.61396253  1
  O  O301  1  0.27061856  0.75710175  0.13005992  1
  O  O302  1  0.24625769  0.76051425  0.61727250  1
  O  O303  1  0.75437927  0.25830256  0.12050204  1
  O  O304  1  0.75862190  0.25398431  0.63073825  1
  O  O305  1  0.74569847  0.77393773  0.11624593  1
  O  O306  1  0.76100830  0.75951797  0.63462949  1
  O  O307  1  0.24832001  0.25471275  0.38659255  1
  O  O308  1  0.24834505  0.25016878  0.88856826  1
  O  O309  1  0.24393345  0.74261302  0.38133836  1
  O  O310  1  0.23697285  0.75048587  0.86673892  1
  O  O311  1  0.73734301  0.24009200  0.36628688  1
  O  O312  1  0.74720026  0.24751622  0.87863978  1
  O  O313  1  0.75142838  0.75076270  0.36859503  1
  O  O314  1  0.73728340  0.74236443  0.86920433  1
  O  O315  1  0.01201682  0.12161107  -0.00260965  1
  O  O316  1  0.01609932  0.12184650  0.49684332  1
  O  O317  1  0.01609984  0.60464874  -0.01358582  1
  O  O318  1  0.00726266  0.62121247  0.50951460  1
  O  O319  1  0.49799715  0.11323771  0.00082592  1
  O  O320  1  0.50284043  0.12271139  0.50717884  1
  O  O321  1  0.51192405  0.62735766  -0.00610631  1
  O  O322  1  0.50762141  0.61554176  0.50796370  1
  O  O323  1  0.49305592  0.38084147  0.50229177  1
  O  O324  1  0.49913129  0.36658070  0.98610006  1
  O  O325  1  0.49570341  0.90090477  0.52118280  1
  O  O326  1  0.49437393  0.88631572  0.99659297  1
  O  O327  1  1.00025382  0.37233656  0.49268487  1
  O  O328  1  0.99874225  0.38051370  0.99102665  1
  O  O329  1  1.00915604  0.89104432  0.49815697  1
  O  O330  1  0.99111371  0.88731730  0.99340083  1
  O  O331  1  0.49663275  0.49777058  0.38735552  1
  O  O332  1  0.49295758  0.48975208  0.86904930  1
  O  O333  1  0.49863021  0.99343881  0.38918163  1
  O  O334  1  0.50646748  1.00011956  0.88775343  1
  O  O335  1  0.99708713  0.48388949  0.38122873  1
  O  O336  1  0.99689159  0.48886265  0.87984601  1
  O  O337  1  0.98881517  1.00615479  0.38884036  1
  O  O338  1  0.99483775  0.99667939  0.88003886  1
  O  O339  1  -0.01004028  0.00002507  0.11253888  1
  O  O340  1  0.00741377  -0.00222255  0.61217101  1
  O  O341  1  0.01605081  0.48458701  0.10975641  1
  O  O342  1  0.00797433  0.50680146  0.62702763  1
  O  O343  1  0.50759016  0.00192914  0.11401888  1
  O  O344  1  0.50260366  0.01529520  0.62036513  1
  O  O345  1  0.51674887  0.49348609  0.12905719  1
  O  O346  1  0.50002044  0.50699589  0.61724610  1
  O  O347  1  0.24636699  0.37891307  0.24644779  1
  O  O348  1  0.24670407  0.37219323  0.74116224  1
  O  O349  1  0.23173424  0.87785881  0.25053372  1
  O  O350  1  0.24434670  0.88404149  0.74136833  1
  O  O351  1  0.73727715  0.37472251  0.24398814  1
  O  O352  1  0.74011631  0.38492814  0.76107772  1
  O  O353  1  0.74188191  0.88760900  0.23911163  1
  O  O354  1  0.74297413  0.88399527  0.74500853  1
  O  O355  1  0.26069965  0.12463505  0.25062920  1
  O  O356  1  0.25844384  0.11986789  0.74606507  1
  O  O357  1  0.25701683  0.62186145  0.26070965  1
  O  O358  1  0.26383374  0.62496218  0.74811032  1
  O  O359  1  0.75040253  0.11725244  0.25833489  1
  O  O360  1  0.75136561  0.11869797  0.75423003  1
  O  O361  1  0.73002965  0.60258750  0.26442754  1
  O  O362  1  0.75324571  0.61757511  0.76087304  1
  O  O363  1  0.38074292  0.10986136  0.36256515  1
  O  O364  1  0.37285915  0.12673009  0.85951036  1
  O  O365  1  0.36905921  0.62348179  0.36702357  1
  O  O366  1  0.37691285  0.61974609  0.86673316  1
  O  O367  1  0.86345236  0.12371259  0.37718181  1
  O  O368  1  0.86828280  0.12144560  0.87116091  1
  O  O369  1  0.87083604  0.61606178  0.37010103  1
  O  O370  1  0.86749064  0.62113628  0.87235425  1
  O  O371  1  0.13696154  0.38527336  0.13411158  1
  O  O372  1  0.13354968  0.37996660  0.62977590  1
  O  O373  1  0.12263896  0.86019570  0.14073169  1
  O  O374  1  0.13233937  0.88532865  0.63069620  1
  O  O375  1  0.63328798  0.37863741  0.13070903  1
  O  O376  1  0.62037051  0.37592435  0.64008200  1
  O  O377  1  0.63082657  0.88832992  0.12803765  1
  O  O378  1  0.63284551  0.88169562  0.63176313  1
  O  O379  1  0.11583634  0.26429740  0.24127856  1
  O  O380  1  0.11831547  0.25684120  0.75088515  1
  O  O381  1  0.12532743  0.75120774  0.26302397  1
  O  O382  1  0.11861337  0.75675225  0.75718201  1
  O  O383  1  0.61860812  0.25442110  0.25500528  1
  O  O384  1  0.61665613  0.25777032  0.75545454  1
  O  O385  1  0.63474741  0.76280559  0.23212010  1
  O  O386  1  0.61975044  0.75348122  0.75479967  1
  O  O387  1  0.38376795  0.23507116  0.26221008  1
  O  O388  1  0.38673134  0.24472795  0.75297262  1
  O  O389  1  0.37727979  0.74089171  0.24872823  1
  O  O390  1  0.38248243  0.74061807  0.74786549  1
  O  O391  1  0.88175263  0.25224845  0.24278135  1
  O  O392  1  0.88179851  0.25340094  0.73527249  1
  O  O393  1  0.89377270  0.75548417  0.24356768  1
  O  O394  1  0.88261844  0.74467424  0.74780451  1
  O  O395  1  0.38298776  0.49343335  0.49616086  1
  O  O396  1  0.37328920  0.50094609  0.98919428  1
  O  O397  1  0.38327185  1.01304903  0.48695965  1
  O  O398  1  0.38739002  0.98851232  1.00495869  1
  O  O399  1  0.87828883  0.48335893  0.50437842  1
  O  O400  1  0.88431740  0.49679774  0.99932714  1
  O  O401  1  0.88925535  1.00538932  0.49697300  1
  O  O402  1  0.88135222  0.99767042  0.99144207  1
  O  O403  1  0.11584169  0.01387562  -0.00176309  1
  O  O404  1  0.11622920  0.01047321  0.50331425  1
  O  O405  1  0.12447638  0.50409906  0.00679606  1
  O  O406  1  0.12637558  0.50719341  0.50831796  1
  O  O407  1  0.61329429  0.00084838  0.00698220  1
  O  O408  1  0.60641769  0.01574691  0.50684198  1
  O  O409  1  0.63055954  0.50798192  0.00696793  1
  O  O410  1  0.61448044  0.50160031  0.50487853  1
  O  O411  1  0.36223818  0.38501193  0.12666780  1
  O  O412  1  0.36682307  0.38093936  0.61429824  1
  O  O413  1  0.37747368  0.86635660  0.11408854  1
  O  O414  1  0.35837203  0.87497431  0.62901523  1
  O  O415  1  0.86187687  0.36743645  0.12004548  1
  O  O416  1  0.87769839  0.36559850  0.61352922  1
  O  O417  1  0.86551495  0.88078127  0.11194199  1
  O  O418  1  0.86496289  0.86609441  0.62979858  1
  O  O419  1  0.12889052  0.12036631  0.38465973  1
  O  O420  1  0.13273213  0.12911561  0.88890958  1
  O  O421  1  0.13340699  0.63139435  0.37867861  1
  O  O422  1  0.13007366  0.63291476  0.88033020  1
  O  O423  1  0.63089271  0.12923908  0.38054912  1
  O  O424  1  0.63244831  0.13372438  0.87369401  1
  O  O425  1  0.62339694  0.62176285  0.39480018  1
  O  O426  1  0.63097367  0.63077017  0.88017458  1
