# generated using pymatgen
data_V85Zn86O256
_symmetry_space_group_name_H-M   'P 1'
_cell_length_a   16.97999823
_cell_length_b   16.99287952
_cell_length_c   16.99661198
_cell_angle_alpha   89.77105069
_cell_angle_beta   90.23362660
_cell_angle_gamma   90.20042814
_symmetry_Int_Tables_number   1
_chemical_formula_structural   V85Zn86O256
_chemical_formula_sum   'V85 Zn86 O256'
_cell_volume   4904.07686448
_cell_formula_units_Z   1
loop_
 _symmetry_equiv_pos_site_id
 _symmetry_equiv_pos_as_xyz
  1  'x, y, z'
loop_
 _atom_site_type_symbol
 _atom_site_label
 _atom_site_symmetry_multiplicity
 _atom_site_fract_x
 _atom_site_fract_y
 _atom_site_fract_z
 _atom_site_occupancy
  V  V0  1  0.25244697  0.61633274  0.37012696  1
  V  V1  1  0.12481052  0.38073402  0.74815438  1
  V  V2  1  0.62549559  0.50172833  0.12077887  1
  V  V3  1  -0.00164819  0.61812638  0.61925041  1
  V  V4  1  0.25742728  0.12216478  0.87187456  1
  V  V5  1  0.50399377  0.00250148  0.00017879  1
  V  V6  1  0.87941721  0.50447358  0.36964958  1
  V  V7  1  0.51001018  0.87506874  0.36920147  1
  V  V8  1  0.25186536  0.24943440  0.49951234  1
  V  V9  1  -0.00069169  0.37692183  0.87603406  1
  V  V10  1  0.63885225  0.63083350  -0.00283603  1
  V  V11  1  -0.00606085  0.25129181  0.74471832  1
  V  V12  1  0.50250071  0.24975763  0.24770339  1
  V  V13  1  0.62829543  0.23909896  0.88075160  1
  V  V14  1  0.73746201  0.62314853  0.37334091  1
  V  V15  1  0.49694862  0.86799074  0.87829232  1
  V  V16  1  0.36411336  0.65074684  0.75012102  1
  V  V17  1  0.87078200  0.13225131  0.74692172  1
  V  V18  1  0.75149728  0.23725250  0.00051632  1
  V  V19  1  0.11978434  0.11768730  0.50580232  1
  V  V20  1  0.12505639  0.25140041  0.87610257  1
  V  V21  1  0.50206976  0.62938185  0.12071836  1
  V  V22  1  0.12404844  0.00606565  0.12891263  1
  V  V23  1  0.00265818  0.50115492  0.00394200  1
  V  V24  1  0.25118407  0.12502903  0.37223040  1
  V  V25  1  -0.00313737  0.75063582  0.74567096  1
  V  V26  1  0.00090350  0.37427507  0.37887231  1
  V  V27  1  0.37570859  0.24537692  0.62694558  1
  V  V28  1  0.49775814  0.24628482  0.75040854  1
  V  V29  1  0.37557207  0.12539409  0.24741303  1
  V  V30  1  0.49863615  0.12528363  0.62536076  1
  V  V31  1  0.24721905  0.75001934  0.00520168  1
  V  V32  1  0.62317563  -0.00790123  0.13409777  1
  V  V33  1  0.63885668  0.74793515  0.87901247  1
  V  V34  1  -0.00238551  0.00229131  0.00441187  1
  V  V35  1  0.37611211  0.86398282  0.50261407  1
  V  V36  1  0.86950305  0.00929968  0.87993104  1
  V  V37  1  0.12327894  0.89300183  0.74758647  1
  V  V38  1  0.75607885  0.37247255  0.11927759  1
  V  V39  1  0.75410106  0.37401547  0.62659619  1
  V  V40  1  0.62330830  0.87838127  0.75408387  1
  V  V41  1  0.62554360  0.00197290  0.62710140  1
  V  V42  1  0.74654136  0.00891823  0.75879927  1
  V  V43  1  0.12596125  0.24909469  0.37161217  1
  V  V44  1  0.25989821  0.50556570  0.75742807  1
  V  V45  1  0.12267125  0.61466737  0.49765656  1
  V  V46  1  0.50346697  0.37447636  0.37540368  1
  V  V47  1  0.37140711  0.87526924  0.00136859  1
  V  V48  1  0.37260915  0.62083647  0.24758253  1
  V  V49  1  0.37836338  -0.00042363  0.37233505  1
  V  V50  1  0.50152288  0.00032878  0.49833922  1
  V  V51  1  0.62841619  0.24976968  0.37362260  1
  V  V52  1  0.25699636  0.26066389  -0.00105067  1
  V  V53  1  0.12653042  0.62524232  0.00092617  1
  V  V54  1  0.49483797  0.38712773  0.87431326  1
  V  V55  1  0.12956350  0.74686548  0.37161191  1
  V  V56  1  0.51188160  0.75308159  0.25023059  1
  V  V57  1  0.75872476  0.12446067  0.36908016  1
  V  V58  1  -0.01548151  0.24628528  0.24748314  1
  V  V59  1  0.75622135  0.87005671  0.62491989  1
  V  V60  1  0.62855937  0.37650444  0.74807943  1
  V  V61  1  -0.00094344  0.62315224  0.12959221  1
  V  V62  1  0.86983861  0.50487071  0.87565163  1
  V  V63  1  0.12198511  0.87523088  0.25258197  1
  V  V64  1  0.87346221  0.74826499  0.11901670  1
  V  V65  1  0.87276464  0.62760735  0.74599360  1
  V  V66  1  -0.00583760  0.74756915  0.25153399  1
  V  V67  1  0.37823329  0.25911276  0.11794624  1
  V  V68  1  0.87887706  0.37626249  0.50284521  1
  V  V69  1  0.62715895  0.12584628  0.49977053  1
  V  V70  1  0.51764507  0.50247219  0.50689002  1
  V  V71  1  0.75764436  -0.00279409  0.25099372  1
  V  V72  1  -0.01535308  0.12859893  0.12968991  1
  V  V73  1  0.75032401  0.50327401  0.74717946  1
  V  V74  1  0.50723778  0.12526897  0.11934442  1
  V  V75  1  0.62696599  0.37572791  0.24645441  1
  V  V76  1  -0.00297020  0.87668014  0.88060107  1
  V  V77  1  0.75741385  0.24766322  0.50626376  1
  V  V78  1  0.12429612  0.12831533  0.00251799  1
  V  V79  1  0.88108226  -0.00892365  0.38841124  1
  V  V80  1  0.49406571  0.75632293  0.73974714  1
  V  V81  1  0.74850165  0.86921062  0.12659684  1
  V  V82  1  0.37722635  0.37864078  0.49935447  1
  V  V83  1  0.24974009  0.00249441  0.24874300  1
  V  V84  1  0.12643184  0.74795428  0.87618076  1
  Zn  Zn85  1  0.75182168  0.73563095  0.50790082  1
  Zn  Zn86  1  0.25900617  0.02119338  0.72771056  1
  Zn  Zn87  1  0.49400370  0.50001024  -0.00758592  1
  Zn  Zn88  1  -0.00267753  0.86931073  0.39424585  1
  Zn  Zn89  1  0.37874806  0.00432055  0.86765338  1
  Zn  Zn90  1  0.04677002  -0.04100904  0.55722775  1
  Zn  Zn91  1  0.25103474  0.37731869  0.62460166  1
  Zn  Zn92  1  0.13413073  0.38941673  0.24600199  1
  Zn  Zn93  1  0.25503553  0.87844405  0.62751789  1
  Zn  Zn94  1  0.49934112  0.62466360  0.62136066  1
  Zn  Zn95  1  0.62601857  0.74793952  0.38657718  1
  Zn  Zn96  1  0.92257479  0.81386433  0.56324684  1
  Zn  Zn97  1  0.12506173  0.49786638  0.62078340  1
  Zn  Zn98  1  0.37381236  0.75062155  0.12732802  1
  Zn  Zn99  1  0.26034899  0.73957225  0.50886498  1
  Zn  Zn100  1  0.86510500  0.87049976  -0.00272661  1
  Zn  Zn101  1  -0.00714329  0.12551484  0.62208339  1
  Zn  Zn102  1  0.75936009  0.50178173  0.24288073  1
  Zn  Zn103  1  0.87561274  0.37163707  0.00264896  1
  Zn  Zn104  1  0.24855986  0.87854601  0.12593007  1
  Zn  Zn105  1  0.25223307  0.39156393  0.13382080  1
  Zn  Zn106  1  0.37469125  0.49580638  0.37041091  1
  Zn  Zn107  1  0.17155693  0.22104556  0.16942549  1
  Zn  Zn108  1  0.18508432  0.19362037  0.68752666  1
  Zn  Zn109  1  0.18916298  0.56102685  0.18293515  1
  Zn  Zn110  1  0.18377751  0.69133402  0.68486615  1
  Zn  Zn111  1  0.69020194  0.18570744  0.18527632  1
  Zn  Zn112  1  0.68585207  0.18989748  0.68878161  1
  Zn  Zn113  1  0.69368504  0.68364269  0.19464694  1
  Zn  Zn114  1  0.67750852  0.68682604  0.68693512  1
  Zn  Zn115  1  0.31400829  0.31245060  0.30838007  1
  Zn  Zn116  1  0.31210736  0.31489843  0.81282683  1
  Zn  Zn117  1  0.31587170  0.80875511  0.31196879  1
  Zn  Zn118  1  0.30768325  0.82172699  0.81547815  1
  Zn  Zn119  1  0.81039933  0.31703946  0.31321501  1
  Zn  Zn120  1  0.81210650  0.31435059  0.82058902  1
  Zn  Zn121  1  0.81075958  0.81127073  0.31235605  1
  Zn  Zn122  1  0.81481521  0.81780016  0.80606360  1
  Zn  Zn123  1  0.18983549  0.43501380  0.43424958  1
  Zn  Zn124  1  0.18906622  0.44256210  0.93673236  1
  Zn  Zn125  1  0.19221750  0.93653816  0.43384926  1
  Zn  Zn126  1  0.18316108  0.94012039  0.93825329  1
  Zn  Zn127  1  0.69382390  0.43746058  0.43603925  1
  Zn  Zn128  1  0.68227913  0.43613758  0.93565092  1
  Zn  Zn129  1  0.69125480  0.93870768  0.44063050  1
  Zn  Zn130  1  0.68428315  0.93722369  0.94329528  1
  Zn  Zn131  1  0.31426667  0.06762510  0.06011482  1
  Zn  Zn132  1  0.31120499  0.05803181  0.55770976  1
  Zn  Zn133  1  0.31852183  0.55568222  0.04746178  1
  Zn  Zn134  1  0.31212346  0.56360398  0.57245924  1
  Zn  Zn135  1  0.80783695  0.05744873  0.06315085  1
  Zn  Zn136  1  0.81412801  0.05865012  0.56665681  1
  Zn  Zn137  1  0.81706726  0.56274113  0.06360402  1
  Zn  Zn138  1  0.81461006  0.55903468  0.55966012  1
  Zn  Zn139  1  0.44076680  0.44013922  0.18532419  1
  Zn  Zn140  1  0.43696194  0.43545040  0.68718092  1
  Zn  Zn141  1  0.43671348  0.93572588  0.18716942  1
  Zn  Zn142  1  0.43356839  0.94135110  0.68700639  1
  Zn  Zn143  1  0.94457564  0.43319241  0.19043787  1
  Zn  Zn144  1  0.93611473  0.43873642  0.68666037  1
  Zn  Zn145  1  0.93453847  0.93555071  0.19122404  1
  Zn  Zn146  1  0.93434343  0.94578883  0.69758651  1
  Zn  Zn147  1  0.05885908  0.06455421  0.31500924  1
  Zn  Zn148  1  0.05765429  0.06931624  0.81705461  1
  Zn  Zn149  1  0.05985223  0.56065150  0.31360780  1
  Zn  Zn150  1  0.06041098  0.56353916  0.81329897  1
  Zn  Zn151  1  0.56659089  0.06399457  0.31055865  1
  Zn  Zn152  1  0.55837141  0.06269071  0.81420686  1
  Zn  Zn153  1  0.55796643  0.55785969  0.30907396  1
  Zn  Zn154  1  0.56724936  0.57470989  0.78909711  1
  Zn  Zn155  1  0.43841344  0.18841860  0.43725683  1
  Zn  Zn156  1  0.43978375  0.19178227  0.93589359  1
  Zn  Zn157  1  0.44338176  0.68286225  0.43370258  1
  Zn  Zn158  1  0.41743819  0.66285753  0.94352520  1
  Zn  Zn159  1  0.93684825  0.18649868  0.43524808  1
  Zn  Zn160  1  0.93678070  0.18975774  0.93820120  1
  Zn  Zn161  1  0.93538040  0.68778858  0.43846407  1
  Zn  Zn162  1  0.93646687  0.68606337  0.93663311  1
  Zn  Zn163  1  0.06443029  0.31696774  0.06440163  1
  Zn  Zn164  1  0.06404178  0.30741504  0.56259471  1
  Zn  Zn165  1  0.06261519  0.81274809  0.06715263  1
  Zn  Zn166  1  0.09608845  0.79496174  0.57341025  1
  Zn  Zn167  1  0.56406564  0.31559250  0.05630727  1
  Zn  Zn168  1  0.56641437  0.31389656  0.56293581  1
  Zn  Zn169  1  0.56477210  0.81186364  0.06115166  1
  Zn  Zn170  1  0.57228452  0.81500223  0.55782987  1
  O  O171  1  0.11575498  0.12482647  0.12038406  1
  O  O172  1  0.12910389  0.13111945  0.60719797  1
  O  O173  1  0.10960768  0.62592529  0.11050926  1
  O  O174  1  0.11646707  0.62505331  0.61357758  1
  O  O175  1  0.61252353  0.11474970  0.12893066  1
  O  O176  1  0.61983815  0.12145489  0.61966339  1
  O  O177  1  0.62369116  0.61920921  0.12051512  1
  O  O178  1  0.59670053  0.61288928  0.67946048  1
  O  O179  1  0.38477097  0.37125840  0.38407864  1
  O  O180  1  0.39596819  0.37146517  0.86520043  1
  O  O181  1  0.38733831  0.88018215  0.38026831  1
  O  O182  1  0.38077948  0.87725874  0.88728873  1
  O  O183  1  0.88217584  0.37827116  0.38308500  1
  O  O184  1  0.88270376  0.38714303  0.87705280  1
  O  O185  1  0.87524700  0.88666042  0.37535653  1
  O  O186  1  0.88275832  0.88513618  0.87545825  1
  O  O187  1  0.25836920  0.00610575  0.36760085  1
  O  O188  1  0.24782624  0.01876178  0.88194942  1
  O  O189  1  0.25384843  0.51225904  0.37755811  1
  O  O190  1  0.24397261  0.50159233  0.85651038  1
  O  O191  1  0.75738728  0.00453490  0.36998518  1
  O  O192  1  0.75627529  -0.00713905  0.86974034  1
  O  O193  1  0.76323971  0.50276502  0.37060372  1
  O  O194  1  0.76172059  0.49237901  0.86441449  1
  O  O195  1  0.24687251  0.50093057  0.10702939  1
  O  O196  1  0.24333999  0.49401504  0.63750664  1
  O  O197  1  0.24263838  1.00341464  0.13087962  1
  O  O198  1  0.24774073  0.99153375  0.62046171  1
  O  O199  1  0.74113071  0.49335279  0.12288457  1
  O  O200  1  0.75648133  0.48670271  0.63558368  1
  O  O201  1  0.74230346  0.99464348  0.13380065  1
  O  O202  1  0.74476873  0.99486060  0.63928108  1
  O  O203  1  0.00421484  0.35941172  0.25965872  1
  O  O204  1  0.00424521  0.37020321  0.75519175  1
  O  O205  1  0.01032393  0.86870878  0.25223547  1
  O  O206  1  0.00346681  0.87116212  0.76232015  1
  O  O207  1  0.50730885  0.36905759  0.25410101  1
  O  O208  1  0.51055551  0.36545881  0.75221598  1
  O  O209  1  0.49370170  0.86577138  0.25853197  1
  O  O210  1  0.50266649  0.87347938  0.75937288  1
  O  O211  1  0.49671722  0.13051139  0.24130549  1
  O  O212  1  0.50492442  0.13844971  0.74308404  1
  O  O213  1  0.49753545  0.63361490  0.24116228  1
  O  O214  1  0.47472602  0.64721049  0.76374399  1
  O  O215  1  1.00118225  0.13802554  0.24510528  1
  O  O216  1  0.98945310  0.13671973  0.75386573  1
  O  O217  1  1.00641415  0.63658153  0.23980882  1
  O  O218  1  0.99482704  0.63295193  0.74167943  1
  O  O219  1  0.37050424  0.24780203  0.00654585  1
  O  O220  1  0.37312698  0.25779765  0.50571361  1
  O  O221  1  0.36451131  0.75727642  -0.00237865  1
  O  O222  1  0.37967705  0.76057252  0.49387310  1
  O  O223  1  0.85605495  0.25406819  -0.01108092  1
  O  O224  1  0.86401132  0.25765196  0.49323492  1
  O  O225  1  0.88118700  0.75273499  0.01290353  1
  O  O226  1  0.86365960  0.74641374  0.49918408  1
  O  O227  1  0.13155986  0.24229676  0.49007967  1
  O  O228  1  0.13342334  0.24617150  0.99433856  1
  O  O229  1  0.12690174  0.73384286  0.48025001  1
  O  O230  1  0.12630558  0.74665462  0.99469626  1
  O  O231  1  0.63625105  0.24611821  0.49399058  1
  O  O232  1  0.63112310  0.25184791  0.98664781  1
  O  O233  1  0.63878804  0.74885207  0.49990997  1
  O  O234  1  0.62693243  0.74949682  0.98557448  1
  O  O235  1  0.49840879  0.24388898  0.12457019  1
  O  O236  1  0.49636287  0.24609566  0.63106277  1
  O  O237  1  0.50194117  0.74575217  0.13341797  1
  O  O238  1  0.50738028  0.75794768  0.63933282  1
  O  O239  1  1.00008385  0.24486577  0.14055049  1
  O  O240  1  1.00241226  0.24618226  0.64111953  1
  O  O241  1  0.99385496  0.74397618  0.13173325  1
  O  O242  1  1.00236414  0.74358446  0.63576415  1
  O  O243  1  0.00457133  0.25371634  0.36639009  1
  O  O244  1  0.00549065  0.25764825  0.86967943  1
  O  O245  1  0.00733252  0.74814830  0.36632505  1
  O  O246  1  0.00418904  0.76047942  0.87076043  1
  O  O247  1  0.50880529  0.25358837  0.36884588  1
  O  O248  1  0.50988804  0.25700152  0.86780907  1
  O  O249  1  0.50484994  0.75716416  0.36794377  1
  O  O250  1  0.49899549  0.76443303  0.87093574  1
  O  O251  1  0.24264134  0.13015865  0.49136165  1
  O  O252  1  0.24492364  0.13553828  0.98996186  1
  O  O253  1  0.24462677  0.62465544  0.49247077  1
  O  O254  1  0.23427390  0.63729090  1.00119388  1
  O  O255  1  0.74720729  0.13114060  0.49494015  1
  O  O256  1  0.74864015  0.13820546  1.00671722  1
  O  O257  1  0.75741631  0.61578570  0.47874033  1
  O  O258  1  0.73817535  0.62388025  1.00448408  1
  O  O259  1  0.24702599  0.36211018  -0.00425327  1
  O  O260  1  0.25967321  0.36724449  0.49941962  1
  O  O261  1  0.25677764  0.87302005  -0.00111561  1
  O  O262  1  0.27084687  0.87233721  0.48930843  1
  O  O263  1  0.74884294  0.36997507  0.00661503  1
  O  O264  1  0.75708904  0.36678287  0.50732407  1
  O  O265  1  0.74975090  0.88168109  0.01969722  1
  O  O266  1  0.74784940  0.88313461  0.52485338  1
  O  O267  1  0.11282625  0.49974179  0.23908406  1
  O  O268  1  0.12732059  0.49105836  0.75080088  1
  O  O269  1  0.12841284  0.99452680  0.24972616  1
  O  O270  1  0.12450000  0.99286680  0.76330136  1
  O  O271  1  0.62381108  0.49355285  0.23517149  1
  O  O272  1  0.64191110  0.48432190  0.76123275  1
  O  O273  1  0.63468371  1.00166820  0.24065087  1
  O  O274  1  0.62950710  0.99869025  0.74915311  1
  O  O275  1  0.37080364  0.00524751  0.25297363  1
  O  O276  1  0.36269034  -0.01374817  0.75791129  1
  O  O277  1  0.38994360  0.51592803  0.25282054  1
  O  O278  1  0.36132567  0.49866351  0.74852905  1
  O  O279  1  0.86289934  -0.00092271  0.25942270  1
  O  O280  1  0.86420763  0.01160007  0.76267823  1
  O  O281  1  0.87672204  0.48809778  0.26565877  1
  O  O282  1  0.86979456  0.50669376  0.75672121  1
  O  O283  1  0.11575385  0.36500221  0.37876167  1
  O  O284  1  0.11860388  0.37148396  0.86659045  1
  O  O285  1  0.12423138  0.86679483  0.36892778  1
  O  O286  1  0.11260948  0.87140505  0.86948548  1
  O  O287  1  0.62436568  0.36881752  0.36740476  1
  O  O288  1  0.61888915  0.36387559  0.86395521  1
  O  O289  1  0.61280601  0.87793918  0.38025846  1
  O  O290  1  0.61661155  0.86797564  0.87508553  1
  O  O291  1  0.38898079  0.13117583  0.12867137  1
  O  O292  1  0.38201150  0.13798276  0.61418992  1
  O  O293  1  0.38851687  0.62885062  0.13118909  1
  O  O294  1  0.38248715  0.62276862  0.64195526  1
  O  O295  1  0.88595436  0.12031675  0.12193438  1
  O  O296  1  0.86956740  0.12699927  0.64316661  1
  O  O297  1  0.88728201  0.63403124  0.12179168  1
  O  O298  1  0.88368110  0.61849370  0.63554081  1
  O  O299  1  0.26846829  0.24011408  0.11125988  1
  O  O300  1  0.26024070  0.25206058  0.61988012  1
  O  O301  1  0.25064432  0.75904036  0.10796893  1
  O  O302  1  0.21435641  0.77209622  0.60948661  1
  O  O303  1  0.73791570  0.25850583  0.10877683  1
  O  O304  1  0.74798206  0.25727398  0.61509657  1
  O  O305  1  0.76173207  0.75707499  0.13680175  1
  O  O306  1  0.74117684  0.76792533  0.63731122  1
  O  O307  1  0.24437171  0.24433871  0.37944739  1
  O  O308  1  0.24683679  0.24330438  0.88021337  1
  O  O309  1  0.24272467  0.73756651  0.37276516  1
  O  O310  1  0.23200278  0.76243707  0.88516307  1
  O  O311  1  0.74754429  0.24260480  0.38167480  1
  O  O312  1  0.73622380  0.25361035  0.88475468  1
  O  O313  1  0.74840174  0.73174750  0.36863566  1
  O  O314  1  0.73686432  0.75706134  0.86701555  1
  O  O315  1  0.00344226  0.12333343  0.00898395  1
  O  O316  1  0.01580868  0.13327611  0.50053586  1
  O  O317  1  0.00429753  0.61920925  0.00675867  1
  O  O318  1  0.00869572  0.62996633  0.50975585  1
  O  O319  1  0.49290093  0.11414517  0.00785573  1
  O  O320  1  0.50758204  0.12070468  0.50383081  1
  O  O321  1  0.51769582  0.64075031  0.01519174  1
  O  O322  1  0.49758256  0.60667588  0.50124983  1
  O  O323  1  0.49653070  0.37897722  0.49499823  1
  O  O324  1  0.50822002  0.38207362  0.97995322  1
  O  O325  1  0.49367298  0.88017892  0.49071117  1
  O  O326  1  0.49176106  0.88055806  0.99544213  1
  O  O327  1  0.99107072  0.36077600  0.49003789  1
  O  O328  1  0.99928164  0.38347211  0.99704343  1
  O  O329  1  1.01403337  0.86124837  0.50975790  1
  O  O330  1  1.00081318  0.88231344  0.99204416  1
  O  O331  1  0.49886150  0.49170636  0.38717589  1
  O  O332  1  0.51191490  0.48698322  0.85832995  1
  O  O333  1  0.49842457  0.99510056  0.37685746  1
  O  O334  1  0.50128900  0.99027464  0.88410331  1
  O  O335  1  0.99091876  0.48485949  0.37295436  1
  O  O336  1  0.99142031  0.49599053  0.88223659  1
  O  O337  1  0.98444597  0.99782164  0.37297488  1
  O  O338  1  0.99010786  0.99528878  0.88255579  1
  O  O339  1  0.00377078  0.00908158  0.12480294  1
  O  O340  1  -0.01110452  0.01405763  0.63056035  1
  O  O341  1  -0.01016408  0.50728345  0.11262614  1
  O  O342  1  0.00452599  0.51331858  0.63113263  1
  O  O343  1  0.50541636  0.00495342  0.12132994  1
  O  O344  1  0.50586507  0.00592646  0.61990704  1
  O  O345  1  0.51027848  0.51066180  0.11997480  1
  O  O346  1  0.49912529  0.49089359  0.60802016  1
  O  O347  1  0.25061102  0.38050314  0.25042948  1
  O  O348  1  0.24036625  0.38339650  0.75038972  1
  O  O349  1  0.24058146  0.88183669  0.25078287  1
  O  O350  1  0.22628886  0.87314480  0.75110194  1
  O  O351  1  0.74295989  0.37418971  0.23794314  1
  O  O352  1  0.74925701  0.37769792  0.74352614  1
  O  O353  1  0.75231138  0.88450256  0.23939049  1
  O  O354  1  0.74332985  0.88919163  0.74642868  1
  O  O355  1  0.25795357  0.12017793  0.25570184  1
  O  O356  1  0.23899427  0.12952391  0.76758730  1
  O  O357  1  0.26200518  0.62262575  0.25566931  1
  O  O358  1  0.25480674  0.61645907  0.73668000  1
  O  O359  1  0.74480643  0.11653920  0.26127921  1
  O  O360  1  0.75256996  0.11651329  0.75030989  1
  O  O361  1  0.75319663  0.61581857  0.26539297  1
  O  O362  1  0.76135748  0.61449317  0.74046710  1
  O  O363  1  0.37279946  0.12062683  0.36830682  1
  O  O364  1  0.36120738  0.12699151  0.87741885  1
  O  O365  1  0.36793710  0.62431546  0.36634493  1
  O  O366  1  0.35270041  0.64451208  0.84942814  1
  O  O367  1  0.86407522  0.11379867  0.38020745  1
  O  O368  1  0.87758137  0.11427128  0.86955448  1
  O  O369  1  0.88209538  0.60495728  0.37537742  1
  O  O370  1  0.88317946  0.61503317  0.86110089  1
  O  O371  1  0.14386343  0.33709103  0.13970527  1
  O  O372  1  0.12432705  0.37418060  0.63603388  1
  O  O373  1  0.12397905  0.88525057  0.13629025  1
  O  O374  1  0.10691747  0.88837241  0.64610902  1
  O  O375  1  0.63005264  0.38478344  0.12515190  1
  O  O376  1  0.63865669  0.36662380  0.63786258  1
  O  O377  1  0.63115016  0.88333325  0.12461094  1
  O  O378  1  0.63174661  0.88509095  0.63559995  1
  O  O379  1  0.11740847  0.24302943  0.26861700  1
  O  O380  1  0.11610468  0.26040752  0.75640207  1
  O  O381  1  0.11476420  0.76106973  0.26032048  1
  O  O382  1  0.11135221  0.75560346  0.75949430  1
  O  O383  1  0.62136630  0.25464103  0.25306103  1
  O  O384  1  0.62013300  0.25638795  0.75953210  1
  O  O385  1  0.61409955  0.74482707  0.25490164  1
  O  O386  1  0.61225336  0.75978125  0.76648616  1
  O  O387  1  0.38437980  0.24399889  0.23978849  1
  O  O388  1  0.38621192  0.25769401  0.73823799  1
  O  O389  1  0.38609825  0.73933715  0.24835246  1
  O  O390  1  0.37266608  0.75726502  0.74242675  1
  O  O391  1  0.88622258  0.25084769  0.25682649  1
  O  O392  1  0.88207525  0.24305492  0.76356594  1
  O  O393  1  0.88931079  0.75796044  0.24172631  1
  O  O394  1  0.88680145  0.74130888  0.75797944  1
  O  O395  1  0.37754327  0.48468175  0.50033788  1
  O  O396  1  0.39758423  0.55203696  0.97397153  1
  O  O397  1  0.38442847  0.99340863  0.48998732  1
  O  O398  1  0.38455570  0.99190102  0.99896472  1
  O  O399  1  0.87222643  0.48329062  0.48749051  1
  O  O400  1  0.88394100  0.50197991  0.98996674  1
  O  O401  1  0.87154154  0.99968219  0.48835866  1
  O  O402  1  0.87866192  0.99800084  0.99332640  1
  O  O403  1  0.11676991  0.00762659  0.00793174  1
  O  O404  1  0.12631326  0.01301118  0.49204765  1
  O  O405  1  0.11100096  0.51067165  -0.01132770  1
  O  O406  1  0.12746769  0.51089526  0.49748861  1
  O  O407  1  0.61059579  -0.00465863  0.01242525  1
  O  O408  1  0.62095523  0.00672220  0.50663949  1
  O  O409  1  0.62014969  0.51142767  0.00480190  1
  O  O410  1  0.61648821  0.49112541  0.50002189  1
  O  O411  1  0.37872222  0.36214575  0.12679817  1
  O  O412  1  0.37670215  0.36185942  0.61489242  1
  O  O413  1  0.37300166  0.87269723  0.11307359  1
  O  O414  1  0.37980735  0.87678238  0.60442089  1
  O  O415  1  0.86040381  0.38126679  0.12369782  1
  O  O416  1  0.86732603  0.37674623  0.61624577  1
  O  O417  1  0.86846782  0.86737932  0.12279224  1
  O  O418  1  0.86116472  0.87552406  0.63985202  1
  O  O419  1  0.12988717  0.13089545  0.38439269  1
  O  O420  1  0.12935990  0.13330247  0.88403998  1
  O  O421  1  0.13202442  0.62758254  0.37746372  1
  O  O422  1  0.11109272  0.63958663  0.88581666  1
  O  O423  1  0.63580519  0.12934647  0.38088711  1
  O  O424  1  0.61972312  0.14037247  0.87247247  1
  O  O425  1  0.63555521  0.61774723  0.37273887  1
  O  O426  1  0.61933314  0.64260661  0.88004596  1
