# generated using pymatgen
data_V85Zn86O256
_symmetry_space_group_name_H-M   'P 1'
_cell_length_a   16.95794640
_cell_length_b   16.94930235
_cell_length_c   16.94409726
_cell_angle_alpha   90.02025231
_cell_angle_beta   89.98573753
_cell_angle_gamma   89.94636229
_symmetry_Int_Tables_number   1
_chemical_formula_structural   V85Zn86O256
_chemical_formula_sum   'V85 Zn86 O256'
_cell_volume   4870.16067741
_cell_formula_units_Z   1
loop_
 _symmetry_equiv_pos_site_id
 _symmetry_equiv_pos_as_xyz
  1  'x, y, z'
loop_
 _atom_site_type_symbol
 _atom_site_label
 _atom_site_symmetry_multiplicity
 _atom_site_fract_x
 _atom_site_fract_y
 _atom_site_fract_z
 _atom_site_occupancy
  V  V0  1  0.74986249  0.75144455  0.00075151  1
  V  V1  1  0.24984752  0.49742750  0.74840323  1
  V  V2  1  0.88132930  0.62960781  0.74920658  1
  V  V3  1  0.49577743  0.74907281  0.75130872  1
  V  V4  1  0.49340959  0.00001840  0.49428942  1
  V  V5  1  0.62474356  0.50286445  0.62334661  1
  V  V6  1  0.88021326  0.87468228  -0.00092294  1
  V  V7  1  0.00287109  0.00641800  -0.00051323  1
  V  V8  1  0.38108929  0.10671797  0.24768893  1
  V  V9  1  0.50440074  0.36500365  0.37417998  1
  V  V10  1  0.37424124  0.75054974  0.62638929  1
  V  V11  1  0.61072289  0.50316461  0.12473146  1
  V  V12  1  0.37431262  0.12107520  0.75957007  1
  V  V13  1  0.50029843  0.50156355  0.49816403  1
  V  V14  1  0.39024185  0.37677106  0.00097552  1
  V  V15  1  0.87590529  0.61280985  0.25388389  1
  V  V16  1  0.87400302  0.87624247  0.49862327  1
  V  V17  1  0.87098081  0.25133013  0.12282143  1
  V  V18  1  0.74799282  0.87563091  0.62407936  1
  V  V19  1  0.12966023  0.25340941  0.37179736  1
  V  V20  1  0.74875137  0.50178964  0.74886071  1
  V  V21  1  0.87694111  0.75013124  0.62733180  1
  V  V22  1  0.49922324  0.62731864  0.62525298  1
  V  V23  1  0.62158550  0.13177691  0.49701710  1
  V  V24  1  0.24927686  0.24629071  0.50556757  1
  V  V25  1  0.12872623  0.37716798  0.74992016  1
  V  V26  1  0.12366944  -0.00117391  0.62807643  1
  V  V27  1  0.00133896  0.74801013  0.24593837  1
  V  V28  1  -0.00037044  0.87533974  0.37419909  1
  V  V29  1  0.87416407  0.12647785  0.75109751  1
  V  V30  1  0.00698921  0.62116230  0.61559072  1
  V  V31  1  0.74982400  0.13222873  0.87959786  1
  V  V32  1  0.74412161  0.75136626  0.48788157  1
  V  V33  1  0.87315023  0.25109264  0.62506925  1
  V  V34  1  0.19288589  0.43304425  0.56732405  1
  V  V35  1  0.87127121  0.37369717  0.00038023  1
  V  V36  1  0.62774802  0.37306408  0.25396047  1
  V  V37  1  -0.00068877  0.12396157  0.62489391  1
  V  V38  1  0.61208815  0.62358509  0.00524607  1
  V  V39  1  0.87826437  0.74506394  0.12548390  1
  V  V40  1  0.49460285  0.12872364  0.62830096  1
  V  V41  1  0.12517016  0.00355404  0.12216382  1
  V  V42  1  0.50340433  0.86452869  0.37388099  1
  V  V43  1  0.11321152  0.75142400  0.87115977  1
  V  V44  1  0.74947217  0.00048771  0.24696625  1
  V  V45  1  0.25295752  0.62254304  0.86995244  1
  V  V46  1  0.25111931  0.74804180  0.00161093  1
  V  V47  1  0.74572900  0.13212751  0.37447936  1
  V  V48  1  0.87525222  0.50162545  0.87578416  1
  V  V49  1  0.74803802  0.00066525  0.75046526  1
  V  V50  1  0.25555737  0.10659461  0.37200271  1
  V  V51  1  0.00616853  0.25319069  0.25055904  1
  V  V52  1  0.11024584  0.87277215  0.75616986  1
  V  V53  1  0.12056219  0.61981721  0.00983243  1
  V  V54  1  0.24107008  0.25584248  0.00525964  1
  V  V55  1  0.38374464  0.49454586  0.87475782  1
  V  V56  1  0.25220418  0.87636532  0.12715080  1
  V  V57  1  0.37567012  0.37448602  0.50589721  1
  V  V58  1  -0.00103403  0.37968195  0.37571554  1
  V  V59  1  0.75501877  0.38817046  0.13218339  1
  V  V60  1  0.74903885  0.62593133  0.87558121  1
  V  V61  1  0.37731634  0.62535541  0.24191846  1
  V  V62  1  0.87738279  0.12646066  0.24906714  1
  V  V63  1  0.87693972  0.00122604  0.37482066  1
  V  V64  1  0.74804053  0.60784799  0.37070266  1
  V  V65  1  -0.00033001  0.25282902  0.75000583  1
  V  V66  1  -0.00099570  0.37862195  0.87454007  1
  V  V67  1  0.25313526  -0.00371451  0.75948107  1
  V  V68  1  0.61802725  0.25485356  0.87636106  1
  V  V69  1  0.62435792  0.00205190  0.62656768  1
  V  V70  1  0.37029107  0.49777139  0.36704624  1
  V  V71  1  0.24394607  0.62536947  0.37727133  1
  V  V72  1  0.62259950  0.75485256  0.87667782  1
  V  V73  1  0.74852902  0.37764838  0.62535763  1
  V  V74  1  0.37258787  0.87580085  0.49442817  1
  V  V75  1  0.87901684  -0.00434755  0.87535573  1
  V  V76  1  0.12849640  0.48736028  0.14018468  1
  V  V77  1  0.62769161  0.12824300  0.00946870  1
  V  V78  1  0.24417989  0.12467626  0.88360964  1
  V  V79  1  0.49276121  0.00831321  0.00004923  1
  V  V80  1  0.62700663  0.86727580  0.25440167  1
  V  V81  1  0.74783001  0.25127102  0.49942392  1
  V  V82  1  0.37647850  0.87689443  -0.00698867  1
  V  V83  1  0.12868010  0.87611451  0.24965136  1
  V  V84  1  0.87616638  0.38512768  0.49677180  1
  Zn  Zn85  1  0.61878109  0.38026060  0.75878144  1
  Zn  Zn86  1  0.36669102  0.25491365  0.63314541  1
  Zn  Zn87  1  0.49247678  0.88491388  0.86916568  1
  Zn  Zn88  1  0.25566712  0.37560372  0.14332526  1
  Zn  Zn89  1  -0.00332618  0.50502711  0.00837582  1
  Zn  Zn90  1  0.74856302  0.87582598  0.12513803  1
  Zn  Zn91  1  0.01641753  0.50303257  0.49866455  1
  Zn  Zn92  1  0.50500593  0.23802451  0.24191946  1
  Zn  Zn93  1  0.62311227  0.87698717  0.75056439  1
  Zn  Zn94  1  0.00014104  0.00074113  0.49960332  1
  Zn  Zn95  1  0.38291586  0.24118054  0.12629443  1
  Zn  Zn96  1  0.48933155  0.26059810  0.75926787  1
  Zn  Zn97  1  0.39149552  0.74239187  0.11947993  1
  Zn  Zn98  1  0.12509759  0.12055753  0.49682685  1
  Zn  Zn99  1  0.61897291  0.63245722  0.48541581  1
  Zn  Zn100  1  0.24737994  0.87236936  0.62710853  1
  Zn  Zn101  1  0.51324930  0.73715222  0.24450048  1
  Zn  Zn102  1  0.24262719  0.74490421  0.50531061  1
  Zn  Zn103  1  0.11961203  0.74396859  0.38571579  1
  Zn  Zn104  1  0.61745124  0.00281821  0.12958212  1
  Zn  Zn105  1  0.00934094  0.13087090  0.12165026  1
  Zn  Zn106  1  0.12006152  0.24761431  0.88129833  1
  Zn  Zn107  1  0.19721777  0.18547923  0.19071587  1
  Zn  Zn108  1  0.18606283  0.18401669  0.69305092  1
  Zn  Zn109  1  0.19371864  0.68504296  0.19225070  1
  Zn  Zn110  1  0.18700921  0.68695916  0.68917979  1
  Zn  Zn111  1  0.69156218  0.19523160  0.18852132  1
  Zn  Zn112  1  0.68477909  0.18914447  0.68978082  1
  Zn  Zn113  1  0.69318142  0.68344734  0.18714137  1
  Zn  Zn114  1  0.68702702  0.68916486  0.68580157  1
  Zn  Zn115  1  0.32267173  0.29842857  0.31454536  1
  Zn  Zn116  1  0.31065020  0.31141144  0.81851462  1
  Zn  Zn117  1  0.31550797  0.80695875  0.31248704  1
  Zn  Zn118  1  0.30711017  0.81041858  0.81171913  1
  Zn  Zn119  1  0.81542973  0.31595505  0.31085598  1
  Zn  Zn120  1  0.80871461  0.31494214  0.81267355  1
  Zn  Zn121  1  0.81425800  0.81128908  0.31102573  1
  Zn  Zn122  1  0.81098852  0.81361242  0.81199753  1
  Zn  Zn123  1  0.19210238  0.43359851  0.31593812  1
  Zn  Zn124  1  0.18969509  0.43619795  0.93551184  1
  Zn  Zn125  1  0.18367807  0.92765029  0.44186995  1
  Zn  Zn126  1  0.18633319  0.93490705  0.93853355  1
  Zn  Zn127  1  0.68604154  0.43845873  0.43918367  1
  Zn  Zn128  1  0.68870087  0.43979133  0.94352558  1
  Zn  Zn129  1  0.68527275  0.94197114  0.43662953  1
  Zn  Zn130  1  0.68808053  0.94196053  0.94069353  1
  Zn  Zn131  1  0.31088064  0.06195712  0.06427258  1
  Zn  Zn132  1  0.30992685  0.06170920  0.56690669  1
  Zn  Zn133  1  0.30909078  0.55504521  0.06085038  1
  Zn  Zn134  1  0.31817273  0.56678069  0.55849686  1
  Zn  Zn135  1  0.81489087  0.06543099  0.06237759  1
  Zn  Zn136  1  0.81147953  0.06341250  0.56168309  1
  Zn  Zn137  1  0.81045366  0.56529508  0.06241966  1
  Zn  Zn138  1  0.81162289  0.56684630  0.55965378  1
  Zn  Zn139  1  0.43861090  0.43260472  0.18817087  1
  Zn  Zn140  1  0.43908339  0.44070876  0.69087612  1
  Zn  Zn141  1  0.44107611  0.93228573  0.18311074  1
  Zn  Zn142  1  0.43706414  0.93750508  0.68540959  1
  Zn  Zn143  1  0.94830867  0.43727473  0.18501844  1
  Zn  Zn144  1  0.93809317  0.44150605  0.68514742  1
  Zn  Zn145  1  0.93901154  0.93624229  0.18473661  1
  Zn  Zn146  1  0.93512052  0.93699947  0.68805986  1
  Zn  Zn147  1  0.06654296  0.06330450  0.30968239  1
  Zn  Zn148  1  0.06302537  0.06319902  0.81340890  1
  Zn  Zn149  1  0.05719405  0.56510690  0.31211422  1
  Zn  Zn150  1  0.06412147  0.56312788  0.81078611  1
  Zn  Zn151  1  0.56218297  0.05598256  0.31511685  1
  Zn  Zn152  1  0.56200467  0.06599203  0.81724136  1
  Zn  Zn153  1  0.56168037  0.55490392  0.30928854  1
  Zn  Zn154  1  0.56361042  0.56822984  0.81120293  1
  Zn  Zn155  1  0.43189131  0.18579297  0.43432761  1
  Zn  Zn156  1  0.43488543  0.19002662  0.94297365  1
  Zn  Zn157  1  0.43224778  0.68747182  0.43479903  1
  Zn  Zn158  1  0.43450743  0.68591760  0.93436743  1
  Zn  Zn159  1  0.93729056  0.18902904  0.43833059  1
  Zn  Zn160  1  0.93815798  0.18839015  0.93760890  1
  Zn  Zn161  1  0.93335604  0.68805188  0.43591432  1
  Zn  Zn162  1  0.93794400  0.68601974  0.93882182  1
  Zn  Zn163  1  0.05935992  0.31808610  0.06412695  1
  Zn  Zn164  1  0.05914990  0.30625088  0.55816825  1
  Zn  Zn165  1  0.06287475  0.81320600  0.06080886  1
  Zn  Zn166  1  0.06052966  0.81292850  0.56482703  1
  Zn  Zn167  1  0.56576803  0.31185483  0.06675666  1
  Zn  Zn168  1  0.55955773  0.31527050  0.56817501  1
  Zn  Zn169  1  0.56255714  0.81892538  0.06646853  1
  Zn  Zn170  1  0.56310985  0.81389770  0.56131796  1
  O  O171  1  0.12977525  0.10749457  0.13313282  1
  O  O172  1  0.11781800  0.11359802  0.62889783  1
  O  O173  1  0.13315461  0.62012794  0.11262148  1
  O  O174  1  0.10441343  0.63544212  0.63040799  1
  O  O175  1  0.63435114  0.12790198  0.11204216  1
  O  O176  1  0.61617272  0.12170034  0.61849211  1
  O  O177  1  0.63102086  0.61097908  0.12164158  1
  O  O178  1  0.61410830  0.62195309  0.62145798  1
  O  O179  1  0.38295589  0.38004343  0.38566385  1
  O  O180  1  0.37274684  0.38548283  0.88445879  1
  O  O181  1  0.38371686  0.86883702  0.38636528  1
  O  O182  1  0.37139451  0.86960798  0.88889124  1
  O  O183  1  0.88656802  0.36643482  0.38548741  1
  O  O184  1  0.87704918  0.38028604  0.88223331  1
  O  O185  1  0.88011222  0.88171254  0.37824340  1
  O  O186  1  0.86835729  0.88635273  0.88321351  1
  O  O187  1  0.24248347  0.00886369  0.38084278  1
  O  O188  1  0.24306055  0.00760360  0.86825784  1
  O  O189  1  0.26069729  0.50938094  0.37504303  1
  O  O190  1  0.25411009  0.50539760  0.86622316  1
  O  O191  1  0.75562729  0.01162479  0.36692557  1
  O  O192  1  0.75836424  0.00968607  0.87120903  1
  O  O193  1  0.75611872  0.50928697  0.37862373  1
  O  O194  1  0.75496286  0.50654931  0.87049499  1
  O  O195  1  0.23214599  0.49576518  0.12046125  1
  O  O196  1  0.25139086  0.49802479  0.62727025  1
  O  O197  1  0.23952787  0.98391965  0.11297027  1
  O  O198  1  0.23852736  1.00027337  0.63904839  1
  O  O199  1  0.75027751  0.49099753  0.12696000  1
  O  O200  1  0.74493607  0.49861134  0.62861118  1
  O  O201  1  0.75374823  1.00226235  0.13962296  1
  O  O202  1  0.74494442  0.99682011  0.63017759  1
  O  O203  1  -0.00681076  0.36173279  0.26116100  1
  O  O204  1  0.00698715  0.37307169  0.75252640  1
  O  O205  1  0.00653573  0.86654123  0.25316347  1
  O  O206  1  0.01051300  0.87863541  0.75279454  1
  O  O207  1  0.50824676  0.37542904  0.26096287  1
  O  O208  1  0.50876227  0.36909526  0.73786205  1
  O  O209  1  0.51067816  0.87836943  0.26011505  1
  O  O210  1  0.50300378  0.86631550  0.75202728  1
  O  O211  1  0.48702232  0.12039994  0.26214717  1
  O  O212  1  0.49035158  0.12405659  0.74431773  1
  O  O213  1  0.48422678  0.62350291  0.25872847  1
  O  O214  1  0.50305346  0.63799956  0.73867272  1
  O  O215  1  0.99446696  0.13523936  0.24879500  1
  O  O216  1  0.99320991  0.13189703  0.74617811  1
  O  O217  1  0.98671399  0.63690777  0.25625273  1
  O  O218  1  0.98631336  0.62037496  0.74038845  1
  O  O219  1  0.36782033  0.26468057  -0.00006288  1
  O  O220  1  0.36483072  0.25885936  0.49882792  1
  O  O221  1  0.36598951  0.75390506  0.00128691  1
  O  O222  1  0.37549551  0.75918416  0.50996723  1
  O  O223  1  0.88439544  0.26140107  0.01100778  1
  O  O224  1  0.86768999  0.25672610  0.50698815  1
  O  O225  1  0.87262308  0.75533388  0.00512355  1
  O  O226  1  0.86475927  0.75672422  0.50693056  1
  O  O227  1  0.13216503  0.24503134  0.49112892  1
  O  O228  1  0.13657942  0.25335288  1.00343449  1
  O  O229  1  0.13113440  0.76242206  0.49677920  1
  O  O230  1  0.13108432  0.74207205  0.99153898  1
  O  O231  1  0.62905777  0.23807310  0.50720398  1
  O  O232  1  0.62142134  0.23587373  0.99141663  1
  O  O233  1  0.63845239  0.74786277  0.50543891  1
  O  O234  1  0.62995688  0.74514178  0.99451372  1
  O  O235  1  0.49604777  0.25260137  0.12784312  1
  O  O236  1  0.49544567  0.23515710  0.62412157  1
  O  O237  1  0.50222776  0.75318146  0.13181278  1
  O  O238  1  0.49547242  0.74635567  0.63115212  1
  O  O239  1  0.99393084  0.25128843  0.13393078  1
  O  O240  1  0.99311332  0.24449627  0.63071339  1
  O  O241  1  0.99041023  0.75496412  0.13275346  1
  O  O242  1  0.98290318  0.74073722  0.61875792  1
  O  O243  1  0.00884146  0.25375952  0.36981302  1
  O  O244  1  -0.00043765  0.25825613  0.86809849  1
  O  O245  1  -0.00134209  0.75666310  0.36399294  1
  O  O246  1  0.01455513  0.74566797  0.87695984  1
  O  O247  1  0.49810848  0.26291609  0.37814342  1
  O  O248  1  0.51430812  0.24453559  0.87675929  1
  O  O249  1  0.50015702  0.76062875  0.37205927  1
  O  O250  1  0.50600564  0.74925693  0.86661938  1
  O  O251  1  0.25081568  0.12843858  0.48979651  1
  O  O252  1  0.26078898  0.13880442  0.99224821  1
  O  O253  1  0.25811121  0.62644362  0.48302642  1
  O  O254  1  0.24040941  0.63093931  0.99194477  1
  O  O255  1  0.74144144  0.12971991  0.49411805  1
  O  O256  1  0.73826091  0.11813329  0.99178952  1
  O  O257  1  0.75205648  0.63164132  0.48392311  1
  O  O258  1  0.74375731  0.63315249  0.99403207  1
  O  O259  1  0.25372095  0.36173045  -0.00198644  1
  O  O260  1  0.25445347  0.36963658  0.50752421  1
  O  O261  1  0.25537096  0.86580263  0.00481935  1
  O  O262  1  0.26265189  0.87421263  0.50557832  1
  O  O263  1  0.76576935  0.37975451  0.01088621  1
  O  O264  1  0.75660272  0.37019360  0.50338687  1
  O  O265  1  0.76129637  0.87098978  0.00126624  1
  O  O266  1  0.75352268  0.87101947  0.50310660  1
  O  O267  1  0.12503732  0.50000947  0.24384046  1
  O  O268  1  0.13405675  0.48870428  0.75163195  1
  O  O269  1  0.11798473  0.98372667  0.23858219  1
  O  O270  1  0.13036273  0.99205224  0.74789529  1
  O  O271  1  0.62280755  0.48929496  0.23398460  1
  O  O272  1  0.63171981  0.50302442  0.74360320  1
  O  O273  1  0.63570292  0.99543912  0.24961906  1
  O  O274  1  0.63024151  1.00184257  0.74538231  1
  O  O275  1  0.37868855  0.00601136  0.24797062  1
  O  O276  1  0.36336248  0.00648268  0.74633907  1
  O  O277  1  0.38096195  0.50729470  0.25948967  1
  O  O278  1  0.36051856  0.49018813  0.76181283  1
  O  O279  1  0.86942699  0.00528137  0.25437714  1
  O  O280  1  0.86970194  0.00541515  0.75802836  1
  O  O281  1  0.88515483  0.51489184  0.24347573  1
  O  O282  1  0.86798921  0.50897262  0.75497175  1
  O  O283  1  0.11657801  0.36050746  0.37365453  1
  O  O284  1  0.11764946  0.37297915  0.86601462  1
  O  O285  1  0.11938298  0.87354639  0.36259551  1
  O  O286  1  0.12906351  0.85868442  0.87263775  1
  O  O287  1  0.61716421  0.38473184  0.36548154  1
  O  O288  1  0.63559102  0.35785525  0.88218209  1
  O  O289  1  0.61641844  0.88209584  0.36701671  1
  O  O290  1  0.62537728  0.86256969  0.87759207  1
  O  O291  1  0.36588875  0.12165728  0.14329125  1
  O  O292  1  0.38071564  0.12542985  0.63657666  1
  O  O293  1  0.36662741  0.61901945  0.13821920  1
  O  O294  1  0.38862894  0.63637989  0.61877169  1
  O  O295  1  0.87623396  0.13671181  0.12982845  1
  O  O296  1  0.87779068  0.13025368  0.63142054  1
  O  O297  1  0.86835460  0.63590094  0.13768981  1
  O  O298  1  0.87799717  0.63233837  0.63127220  1
  O  O299  1  0.25544218  0.25010893  0.11284959  1
  O  O300  1  0.24881742  0.23776428  0.61094673  1
  O  O301  1  0.24724478  0.75646927  0.11186540  1
  O  O302  1  0.26252230  0.74851710  0.62800675  1
  O  O303  1  0.76598845  0.26364401  0.12943857  1
  O  O304  1  0.75333097  0.25613232  0.62064990  1
  O  O305  1  0.76108012  0.75171178  0.11851046  1
  O  O306  1  0.75818456  0.75465491  0.61675774  1
  O  O307  1  0.24363919  0.24329651  0.38773370  1
  O  O308  1  0.24567737  0.24341205  0.88795917  1
  O  O309  1  0.24946333  0.73583036  0.37636149  1
  O  O310  1  0.24563553  0.74011765  0.88362680  1
  O  O311  1  0.75562236  0.23801879  0.38000429  1
  O  O312  1  0.74416332  0.23772546  0.87291767  1
  O  O313  1  0.75611768  0.74548633  0.38445515  1
  O  O314  1  0.74155529  0.74585708  0.87944595  1
  O  O315  1  -0.00422901  0.11239850  0.00333962  1
  O  O316  1  0.00267723  0.12249374  0.50852249  1
  O  O317  1  0.01644338  0.62576822  -0.00144152  1
  O  O318  1  -0.00611118  0.62201046  0.50937999  1
  O  O319  1  0.50931504  0.11538250  -0.00265564  1
  O  O320  1  0.50210857  0.11942327  0.50484439  1
  O  O321  1  0.51317159  0.62992159  -0.00267319  1
  O  O322  1  0.50060272  0.62137552  0.50500804  1
  O  O323  1  0.49504070  0.38025512  0.49433836  1
  O  O324  1  0.48857750  0.37372224  0.99920738  1
  O  O325  1  0.49491620  0.88069835  0.49440633  1
  O  O326  1  0.49129711  0.88338798  0.99549135  1
  O  O327  1  0.99249669  0.37501040  0.49376099  1
  O  O328  1  0.98991191  0.38060950  0.99338258  1
  O  O329  1  0.99056291  0.87731613  0.49288022  1
  O  O330  1  0.98661570  0.88345440  1.00314816  1
  O  O331  1  0.49133195  0.49112222  0.38137548  1
  O  O332  1  0.48165162  0.50869904  0.86602178  1
  O  O333  1  0.50138187  0.99035966  0.39061126  1
  O  O334  1  0.50658693  0.99840645  0.89142468  1
  O  O335  1  1.01126042  0.48432587  0.37957738  1
  O  O336  1  0.99196782  0.49544644  0.87414236  1
  O  O337  1  0.99494531  0.99455350  0.37439893  1
  O  O338  1  0.98683011  1.00685721  0.88206389  1
  O  O339  1  0.00689544  0.00245613  0.11725662  1
  O  O340  1  0.00746644  0.00528047  0.62767415  1
  O  O341  1  0.02187642  0.49819422  0.12220408  1
  O  O342  1  -0.00285490  0.51544484  0.62020652  1
  O  O343  1  0.50269607  -0.00506264  0.10629811  1
  O  O344  1  0.50405227  0.01025608  0.61790698  1
  O  O345  1  0.51266554  0.49610608  0.12143348  1
  O  O346  1  0.50201046  0.51112123  0.61933605  1
  O  O347  1  0.25699566  0.36622501  0.25532479  1
  O  O348  1  0.23959749  0.38130990  0.75368980  1
  O  O349  1  0.24145047  0.86233916  0.23806894  1
  O  O350  1  0.24111841  0.88351172  0.75092467  1
  O  O351  1  0.74330662  0.37330353  0.24359110  1
  O  O352  1  0.74594914  0.38370965  0.74340700  1
  O  O353  1  0.74500982  0.88628233  0.25448735  1
  O  O354  1  0.74727034  0.88275384  0.74296060  1
  O  O355  1  0.25989564  0.12367385  0.26604329  1
  O  O356  1  0.25586243  0.11707099  0.76010524  1
  O  O357  1  0.26467551  0.62649236  0.26273327  1
  O  O358  1  0.24196444  0.61165136  0.75854624  1
  O  O359  1  0.75417532  0.12146308  0.25708056  1
  O  O360  1  0.75518000  0.12032640  0.75784174  1
  O  O361  1  0.76366112  0.62762507  0.26109589  1
  O  O362  1  0.75785860  0.62141842  0.75486741  1
  O  O363  1  0.36234824  0.11981754  0.37061566  1
  O  O364  1  0.36569270  0.12942389  0.86608562  1
  O  O365  1  0.36802743  0.61576663  0.36739346  1
  O  O366  1  0.36103035  0.61109065  0.88299016  1
  O  O367  1  0.86680723  0.12148696  0.37015132  1
  O  O368  1  0.86762151  0.11868697  0.87226346  1
  O  O369  1  0.86723565  0.62638479  0.36190141  1
  O  O370  1  0.87028978  0.62331755  0.86815983  1
  O  O371  1  0.12939299  0.38425695  0.12730508  1
  O  O372  1  0.12909813  0.37553507  0.62703968  1
  O  O373  1  0.13171469  0.87884844  0.12992434  1
  O  O374  1  0.12443543  0.88221644  0.63796053  1
  O  O375  1  0.63583378  0.38653474  0.12671564  1
  O  O376  1  0.63383667  0.38544221  0.62145083  1
  O  O377  1  0.63151758  0.88261909  0.13752375  1
  O  O378  1  0.63045534  0.88439824  0.62526479  1
  O  O379  1  0.11585980  0.24134764  0.25732897  1
  O  O380  1  0.11893689  0.26217975  0.74834844  1
  O  O381  1  0.11504158  0.75661707  0.24687048  1
  O  O382  1  0.13048261  0.75645060  0.76469919  1
  O  O383  1  0.62241887  0.26698500  0.24376848  1
  O  O384  1  0.62315881  0.24864265  0.76732127  1
  O  O385  1  0.63285781  0.76344095  0.24799667  1
  O  O386  1  0.61736104  0.75126638  0.75961077  1
  O  O387  1  0.38354636  0.23135981  0.24918880  1
  O  O388  1  0.37201412  0.23970527  0.75015083  1
  O  O389  1  0.37827839  0.73491901  0.24516747  1
  O  O390  1  0.38484089  0.75699990  0.74123091  1
  O  O391  1  0.88439264  0.24591990  0.24287643  1
  O  O392  1  0.87879139  0.24681154  0.74511613  1
  O  O393  1  0.88301049  0.74795469  0.24142689  1
  O  O394  1  0.86686018  0.74134193  0.74057112  1
  O  O395  1  0.38060741  0.49181240  0.49187697  1
  O  O396  1  0.36766389  0.48851520  0.98578870  1
  O  O397  1  0.38448079  0.98900227  0.51163373  1
  O  O398  1  0.38539226  0.99461000  1.00182197  1
  O  O399  1  0.87560276  0.48626258  0.50437876  1
  O  O400  1  0.87755846  0.49567421  0.99478738  1
  O  O401  1  0.87412756  0.99425464  0.49331287  1
  O  O402  1  0.88061449  0.99398206  0.99480589  1
  O  O403  1  0.11204863  -0.01101665  0.00801477  1
  O  O404  1  0.12346276  -0.00272115  0.51621502  1
  O  O405  1  0.12648310  0.51357755  -0.00107673  1
  O  O406  1  0.13572220  0.48594478  0.50743508  1
  O  O407  1  0.61864199  0.01275671  0.00279976  1
  O  O408  1  0.61645005  0.01182523  0.50653963  1
  O  O409  1  0.63114180  0.50939588  0.01349707  1
  O  O410  1  0.61701125  0.50553761  0.50559531  1
  O  O411  1  0.37068248  0.38371851  0.10817242  1
  O  O412  1  0.38161005  0.37425216  0.60983242  1
  O  O413  1  0.36502746  0.87195108  0.11382481  1
  O  O414  1  0.37583703  0.86526234  0.61644904  1
  O  O415  1  0.87374460  0.37228913  0.12067682  1
  O  O416  1  0.86934103  0.37038112  0.61832387  1
  O  O417  1  0.87157662  0.86599836  0.11695099  1
  O  O418  1  0.86876145  0.86885796  0.62088979  1
  O  O419  1  0.13729258  0.13164941  0.37451440  1
  O  O420  1  0.13752298  0.12958935  0.87072730  1
  O  O421  1  0.13987081  0.62351576  0.36732593  1
  O  O422  1  0.13267115  0.63422253  0.88027663  1
  O  O423  1  0.63412671  0.11902959  0.38592591  1
  O  O424  1  0.63301461  0.13347438  0.88415430  1
  O  O425  1  0.64211428  0.61800651  0.36782799  1
  O  O426  1  0.62916837  0.63427318  0.88364738  1
