# generated using pymatgen
data_V85Zn86O256
_symmetry_space_group_name_H-M   'P 1'
_cell_length_a   16.99368074
_cell_length_b   16.99684423
_cell_length_c   17.01232681
_cell_angle_alpha   90.21296879
_cell_angle_beta   90.12322648
_cell_angle_gamma   90.02566685
_symmetry_Int_Tables_number   1
_chemical_formula_structural   V85Zn86O256
_chemical_formula_sum   'V85 Zn86 O256'
_cell_volume   4913.77669872
_cell_formula_units_Z   1
loop_
 _symmetry_equiv_pos_site_id
 _symmetry_equiv_pos_as_xyz
  1  'x, y, z'
loop_
 _atom_site_type_symbol
 _atom_site_label
 _atom_site_symmetry_multiplicity
 _atom_site_fract_x
 _atom_site_fract_y
 _atom_site_fract_z
 _atom_site_occupancy
  V  V0  1  0.37184696  0.74716774  0.62030432  1
  V  V1  1  0.12979460  0.49379478  0.62589949  1
  V  V2  1  0.62917043  0.50356864  0.12556824  1
  V  V3  1  0.25222602  0.00516555  0.74672617  1
  V  V4  1  0.62316166  0.12481075  0.50115445  1
  V  V5  1  0.62525633  0.87772117  0.25081138  1
  V  V6  1  0.87964733  0.88172996  -0.00312313  1
  V  V7  1  0.11113490  0.36938278  0.76841522  1
  V  V8  1  0.87431570  0.75167961  0.12176723  1
  V  V9  1  0.74802982  0.86926807  0.61731552  1
  V  V10  1  0.13346013  0.24041763  0.37657880  1
  V  V11  1  0.74602534  0.24839008  0.00295875  1
  V  V12  1  0.87722515  0.13624139  0.74557092  1
  V  V13  1  0.87567137  0.38236379  -0.00584756  1
  V  V14  1  0.37537475  0.86816820  0.49465978  1
  V  V15  1  0.37526529  0.62449355  0.74948340  1
  V  V16  1  0.00018166  0.62148223  0.62633974  1
  V  V17  1  -0.00399072  0.13811482  0.61819233  1
  V  V18  1  0.87759003  0.36640266  0.50493938  1
  V  V19  1  0.37564240  0.25027514  0.11748686  1
  V  V20  1  0.50024991  0.62897941  0.12384415  1
  V  V21  1  0.75266725  0.24781366  0.50362448  1
  V  V22  1  0.62806334  0.38202793  0.25068649  1
  V  V23  1  0.10371721  0.00573026  0.11663573  1
  V  V24  1  0.92293919  0.19567980  0.07584577  1
  V  V25  1  0.25106729  0.49676387  0.75200213  1
  V  V26  1  0.62478336  0.63953224  -0.00273601  1
  V  V27  1  0.23456192  0.50045512  0.25167756  1
  V  V28  1  0.36437866  0.36538622  0.50510182  1
  V  V29  1  0.37697715  0.50059295  0.87799821  1
  V  V30  1  0.62121462  0.11948377  0.01755666  1
  V  V31  1  0.24882780  0.86858612  0.61595375  1
  V  V32  1  0.12223217  0.62731359  -0.00035966  1
  V  V33  1  -0.00337399  -0.00120870  0.49815935  1
  V  V34  1  0.24964283  0.62779405  0.87580473  1
  V  V35  1  0.75243377  0.49664165  0.76015572  1
  V  V36  1  0.75444201  0.36769003  0.62931561  1
  V  V37  1  0.00032641  0.49384319  0.50051364  1
  V  V38  1  0.24352667  0.37776727  0.12221989  1
  V  V39  1  0.37054148  0.00377047  0.37493065  1
  V  V40  1  0.00285200  0.75394291  0.24918061  1
  V  V41  1  0.62307452  0.36946163  0.75267682  1
  V  V42  1  -0.00150914  0.74774265  0.74894089  1
  V  V43  1  0.75387432  0.37606912  0.12785532  1
  V  V44  1  0.62976937  0.62315051  0.49887444  1
  V  V45  1  0.74331569  0.63310217  0.87444437  1
  V  V46  1  0.49681922  0.13657266  0.63766425  1
  V  V47  1  0.63259869  0.74601184  0.37986277  1
  V  V48  1  0.37509513  0.50045176  0.37112422  1
  V  V49  1  0.49750531  0.37537974  0.37562943  1
  V  V50  1  0.12292658  -0.00046293  0.61399349  1
  V  V51  1  0.49714897  0.87929076  0.87516080  1
  V  V52  1  0.24755700  0.00485136  0.24548683  1
  V  V53  1  0.13043876  0.62681347  0.48965009  1
  V  V54  1  0.50095698  0.74875677  0.75356660  1
  V  V55  1  0.87356075  0.61901933  0.75708934  1
  V  V56  1  0.74759534  0.12529188  0.37642071  1
  V  V57  1  0.12361233  0.87112271  0.74474676  1
  V  V58  1  0.75200123  0.00258127  0.75076404  1
  V  V59  1  -0.00077083  0.62683998  0.12274806  1
  V  V60  1  0.00198146  0.87494699  0.37460571  1
  V  V61  1  0.62416719  0.24994779  0.37531662  1
  V  V62  1  0.16427975  0.19669117  0.94588383  1
  V  V63  1  0.87788280  0.00231912  0.87009936  1
  V  V64  1  0.12661348  0.87566444  0.25275576  1
  V  V65  1  0.24846603  0.75015572  -0.00067001  1
  V  V66  1  0.62087194  -0.00082203  0.62477780  1
  V  V67  1  -0.00727952  0.50146968  -0.01324524  1
  V  V68  1  0.74469662  0.00363652  0.24767179  1
  V  V69  1  0.00380038  0.37007901  0.37073112  1
  V  V70  1  0.49939412  0.49696450  0.50777244  1
  V  V71  1  0.50090496  0.74974791  0.25072021  1
  V  V72  1  0.62528377  0.24111056  0.87654233  1
  V  V73  1  0.74724636  0.88016719  0.12272647  1
  V  V74  1  0.36657064  0.12875624  0.25171639  1
  V  V75  1  0.37385551  0.75313742  0.12308653  1
  V  V76  1  0.36679830  0.87916006  -0.00361257  1
  V  V77  1  0.49975163  0.37153644  0.87569467  1
  V  V78  1  0.62531373  0.87000018  0.75531147  1
  V  V79  1  0.00263910  0.24998770  0.24628291  1
  V  V80  1  0.00304080  0.87625338  0.87219115  1
  V  V81  1  0.87314908  0.13387904  0.25135947  1
  V  V82  1  0.36937773  0.01183077  0.86875299  1
  V  V83  1  0.86828286  0.74584745  0.61912832  1
  V  V84  1  0.49867688  0.24442993  0.24658484  1
  Zn  Zn85  1  0.25350570  0.35749010  0.63792971  1
  Zn  Zn86  1  0.79390894  0.68207921  0.43940265  1
  Zn  Zn87  1  0.25250830  0.63594997  0.37489522  1
  Zn  Zn88  1  0.86229274  0.50477327  0.37456009  1
  Zn  Zn89  1  0.37352855  0.62586023  0.24999792  1
  Zn  Zn90  1  0.62511043  0.49908677  0.62741169  1
  Zn  Zn91  1  0.11507294  0.49293568  0.12547310  1
  Zn  Zn92  1  0.49764342  0.00151446  0.49823303  1
  Zn  Zn93  1  0.32721617  0.18216034  0.69753564  1
  Zn  Zn94  1  0.86164546  0.62278689  0.25976980  1
  Zn  Zn95  1  0.86959331  0.86777839  0.49313732  1
  Zn  Zn96  1  0.50092171  0.87531884  0.37701354  1
  Zn  Zn97  1  0.50014914  0.62300920  0.62508964  1
  Zn  Zn98  1  0.74414133  0.75902655  -0.01037708  1
  Zn  Zn99  1  0.50171348  0.50184692  0.00034530  1
  Zn  Zn100  1  0.87275285  -0.00046666  0.37590055  1
  Zn  Zn101  1  0.37496336  0.37566214  0.00117037  1
  Zn  Zn102  1  0.12532439  0.75235188  0.87366155  1
  Zn  Zn103  1  0.24907621  0.22501128  0.51528638  1
  Zn  Zn104  1  0.48133561  0.02125454  0.02619343  1
  Zn  Zn105  1  0.18271865  0.80532877  0.43307575  1
  Zn  Zn106  1  0.24477885  0.87803113  0.12146731  1
  Zn  Zn107  1  0.17130121  0.20252323  0.15537774  1
  Zn  Zn108  1  0.16433306  0.18965309  0.68956896  1
  Zn  Zn109  1  0.18749579  0.68772346  0.18897583  1
  Zn  Zn110  1  0.18690841  0.68337060  0.68503746  1
  Zn  Zn111  1  0.68611091  0.19194124  0.18761839  1
  Zn  Zn112  1  0.68779249  0.18601592  0.68983794  1
  Zn  Zn113  1  0.68740907  0.69515359  0.18373026  1
  Zn  Zn114  1  0.68511516  0.68379686  0.68471718  1
  Zn  Zn115  1  0.31056167  0.31763159  0.30511651  1
  Zn  Zn116  1  0.29914715  0.31100864  0.82862751  1
  Zn  Zn117  1  0.31271315  0.81462816  0.30783875  1
  Zn  Zn118  1  0.31043339  0.81649138  0.80939694  1
  Zn  Zn119  1  0.81305844  0.31735627  0.31748966  1
  Zn  Zn120  1  0.81000655  0.30941573  0.81972506  1
  Zn  Zn121  1  0.81501114  0.81435197  0.30805871  1
  Zn  Zn122  1  0.81351456  0.81173201  0.80679785  1
  Zn  Zn123  1  0.18444561  0.43450587  0.43239808  1
  Zn  Zn124  1  0.18555041  0.44354842  0.94368289  1
  Zn  Zn125  1  0.18753670  1.06113611  0.43278343  1
  Zn  Zn126  1  0.17553260  1.02293777  0.93113037  1
  Zn  Zn127  1  0.68808084  0.43544020  0.44259127  1
  Zn  Zn128  1  0.68685099  0.44023397  0.94161105  1
  Zn  Zn129  1  0.68547076  0.93862735  0.43522130  1
  Zn  Zn130  1  0.68980101  0.94271504  0.93463174  1
  Zn  Zn131  1  0.29949378  0.07191564  0.05914228  1
  Zn  Zn132  1  0.31811978  0.05470625  0.56482720  1
  Zn  Zn133  1  0.31070656  0.56436524  0.06421403  1
  Zn  Zn134  1  0.31316306  0.55717579  0.56184683  1
  Zn  Zn135  1  0.80504653  0.05962026  0.05689162  1
  Zn  Zn136  1  0.81375289  0.05972948  0.56374569  1
  Zn  Zn137  1  0.80948275  0.56464984  0.06148317  1
  Zn  Zn138  1  0.81314175  0.55088943  0.57046768  1
  Zn  Zn139  1  0.43890054  0.43880416  0.18749692  1
  Zn  Zn140  1  0.43707014  0.32014217  0.69416259  1
  Zn  Zn141  1  0.43492677  0.94165961  0.18757396  1
  Zn  Zn142  1  0.43585891  0.93688883  0.68697307  1
  Zn  Zn143  1  0.93233275  0.44190043  0.19126108  1
  Zn  Zn144  1  0.93681532  0.43494504  0.68896461  1
  Zn  Zn145  1  0.93084287  0.94099583  0.19036082  1
  Zn  Zn146  1  0.93511235  0.93455978  0.68388231  1
  Zn  Zn147  1  0.05747521  0.06438523  0.30337895  1
  Zn  Zn148  1  0.06058315  0.05768056  0.79470896  1
  Zn  Zn149  1  0.03547025  0.55413422  0.30387287  1
  Zn  Zn150  1  0.06451270  0.56129492  0.81277653  1
  Zn  Zn151  1  0.55689560  0.06256456  0.31087130  1
  Zn  Zn152  1  0.56036306  0.05934848  0.81554056  1
  Zn  Zn153  1  0.69007679  0.56190416  0.31134639  1
  Zn  Zn154  1  0.56338568  0.55944939  0.81192133  1
  Zn  Zn155  1  0.43689800  0.18429648  0.44012089  1
  Zn  Zn156  1  0.44128826  0.18890641  0.93505888  1
  Zn  Zn157  1  0.44432146  0.68289257  0.43524381  1
  Zn  Zn158  1  0.43783413  0.69105062  0.93760521  1
  Zn  Zn159  1  0.93925957  0.18653517  0.43353683  1
  Zn  Zn160  1  0.99511651  0.15852863  0.90517873  1
  Zn  Zn161  1  0.95737460  0.68496235  0.43504798  1
  Zn  Zn162  1  0.93407886  0.69130834  0.93692331  1
  Zn  Zn163  1  0.06285944  0.30938197  0.02989161  1
  Zn  Zn164  1  0.07355573  0.31187602  0.55765476  1
  Zn  Zn165  1  0.06516136  0.82087486  0.06057385  1
  Zn  Zn166  1  0.05598558  0.80925524  0.56277619  1
  Zn  Zn167  1  0.56112178  0.31368813  0.06144123  1
  Zn  Zn168  1  0.56507209  0.31266653  0.56206398  1
  Zn  Zn169  1  0.54210089  0.85022219  0.07998599  1
  Zn  Zn170  1  0.55924113  0.80938943  0.56301163  1
  O  O171  1  0.12448953  0.10275098  0.13320082  1
  O  O172  1  0.10367666  0.11081305  0.62924543  1
  O  O173  1  0.11250206  0.62984773  0.11684369  1
  O  O174  1  0.12076113  0.61247584  0.61835249  1
  O  O175  1  0.62389179  0.12489531  0.11734744  1
  O  O176  1  0.61832229  0.11792012  0.62197412  1
  O  O177  1  0.61862770  0.62222579  0.11766546  1
  O  O178  1  0.61870596  0.61989522  0.61666771  1
  O  O179  1  0.37939766  0.38097343  0.37979290  1
  O  O180  1  0.38144855  0.38439810  0.87944929  1
  O  O181  1  0.37529864  0.88178068  0.38127790  1
  O  O182  1  0.37817403  0.88440934  0.87834432  1
  O  O183  1  0.88656078  0.37554863  0.38831044  1
  O  O184  1  0.87131692  0.36824936  0.89585475  1
  O  O185  1  0.88619004  0.87795953  0.37425648  1
  O  O186  1  0.88018806  0.88015192  0.87735694  1
  O  O187  1  0.26036006  0.00099159  0.35929176  1
  O  O188  1  0.25603830  -0.00598386  0.85668059  1
  O  O189  1  0.25420039  0.49831250  0.36171642  1
  O  O190  1  0.25662349  0.50750115  0.87077698  1
  O  O191  1  0.74958241  0.00652556  0.36552614  1
  O  O192  1  0.76242803  -0.00488879  0.85911009  1
  O  O193  1  0.75111189  0.48719370  0.36913166  1
  O  O194  1  0.74724976  0.50848400  0.86515786  1
  O  O195  1  0.24967580  0.49636646  0.13728161  1
  O  O196  1  0.24477676  0.49824876  0.63684441  1
  O  O197  1  0.24826731  0.99915455  0.13669861  1
  O  O198  1  0.24236165  0.98629143  0.62524305  1
  O  O199  1  0.73684468  0.49296015  0.12115482  1
  O  O200  1  0.74694151  0.48411938  0.63840931  1
  O  O201  1  0.75343940  0.98996157  0.13422385  1
  O  O202  1  0.74078494  0.99132033  0.63192063  1
  O  O203  1  -0.01170499  0.36234289  0.26058702  1
  O  O204  1  0.01287136  0.38544491  0.75166395  1
  O  O205  1  0.00466338  0.87346489  0.25589951  1
  O  O206  1  0.00205262  0.86715659  0.75181112  1
  O  O207  1  0.50665407  0.36794983  0.25843168  1
  O  O208  1  0.51401918  0.37554288  0.76063640  1
  O  O209  1  0.50920870  0.86486229  0.24989670  1
  O  O210  1  0.50574164  0.86926683  0.75469878  1
  O  O211  1  0.49041438  0.13768458  0.25074445  1
  O  O212  1  0.50935520  0.12396746  0.73541315  1
  O  O213  1  0.50129137  0.64067605  0.23402047  1
  O  O214  1  0.49555769  0.63251568  0.74971309  1
  O  O215  1  0.98252173  0.13357383  0.25100511  1
  O  O216  1  0.98779070  0.12147951  0.73095858  1
  O  O217  1  1.00712449  0.64434818  0.23676536  1
  O  O218  1  0.99153935  0.62576692  0.74595623  1
  O  O219  1  0.37869317  0.25003978  0.01501675  1
  O  O220  1  0.36625103  0.26307476  0.48646595  1
  O  O221  1  0.36782790  0.75723105  0.00322252  1
  O  O222  1  0.38441725  0.75483175  0.50959365  1
  O  O223  1  0.86585777  0.25996143  0.01548589  1
  O  O224  1  0.86957332  0.25900122  0.49501635  1
  O  O225  1  0.87010833  0.76322222  0.00574289  1
  O  O226  1  0.87686636  0.74483446  0.51045647  1
  O  O227  1  0.13529861  0.24974342  0.48214786  1
  O  O228  1  0.15333260  0.23852635  1.04273899  1
  O  O229  1  0.11903249  0.73298700  0.50145016  1
  O  O230  1  0.13064740  0.74718453  0.99726331  1
  O  O231  1  0.63177707  0.24504958  0.49447842  1
  O  O232  1  0.62744985  0.24126319  0.99658642  1
  O  O233  1  0.61614927  0.73845094  0.49139209  1
  O  O234  1  0.62640533  0.74016486  1.00653614  1
  O  O235  1  0.48613159  0.26107828  0.13591546  1
  O  O236  1  0.50217731  0.24116207  0.62824112  1
  O  O237  1  0.49493155  0.74948408  0.12991808  1
  O  O238  1  0.48812549  0.75061346  0.63664757  1
  O  O239  1  0.99275902  0.25172728  0.12779598  1
  O  O240  1  1.00633747  0.23595375  0.61363295  1
  O  O241  1  0.99130850  0.74971389  0.12656321  1
  O  O242  1  0.98854613  0.74222175  0.62951797  1
  O  O243  1  0.00917532  0.25220745  0.36740731  1
  O  O244  1  0.06371396  0.24446876  0.92845933  1
  O  O245  1  -0.00231931  0.76156424  0.36090248  1
  O  O246  1  -0.00213797  0.75903549  0.86625674  1
  O  O247  1  0.50281805  0.25792884  0.36835077  1
  O  O248  1  0.51006978  0.26322156  0.88046093  1
  O  O249  1  0.50942113  0.75014719  0.36457245  1
  O  O250  1  0.49068966  0.76149108  0.85993886  1
  O  O251  1  0.26101372  0.11691780  0.49430013  1
  O  O252  1  0.22804633  0.11736041  0.98400789  1
  O  O253  1  0.23392893  0.61419473  0.49634405  1
  O  O254  1  0.24302217  0.63066218  0.99581404  1
  O  O255  1  0.74430403  0.12767734  0.49730519  1
  O  O256  1  0.73792900  0.13901097  1.00704577  1
  O  O257  1  0.73675705  0.61560383  0.51143058  1
  O  O258  1  0.74329181  0.62939019  0.99006008  1
  O  O259  1  0.25688297  0.39048806  0.01797253  1
  O  O260  1  0.26140935  0.37874211  0.50005274  1
  O  O261  1  0.26210209  0.86883845  -0.00092994  1
  O  O262  1  0.25723726  0.86523931  0.50839668  1
  O  O263  1  0.75468757  0.37203550  0.00923305  1
  O  O264  1  0.75757848  0.36859404  0.51076491  1
  O  O265  1  0.75567445  0.87705453  0.00564534  1
  O  O266  1  0.74854080  0.87928411  0.51372800  1
  O  O267  1  0.13202852  0.50510904  0.24841659  1
  O  O268  1  0.13265963  0.49724888  0.74266021  1
  O  O269  1  0.12966568  0.99282258  0.24594936  1
  O  O270  1  0.13091749  0.98969768  0.73340123  1
  O  O271  1  0.62143643  0.48897523  0.24074459  1
  O  O272  1  0.63462121  0.48771846  0.75045275  1
  O  O273  1  0.63352908  0.99064805  0.25683277  1
  O  O274  1  0.63286103  0.99278975  0.74307534  1
  O  O275  1  0.36891234  0.00747005  0.25362954  1
  O  O276  1  0.36342935  -0.00653027  0.75428598  1
  O  O277  1  0.37276928  0.50230626  0.26052776  1
  O  O278  1  0.36341830  0.50614511  0.76389794  1
  O  O279  1  0.86097582  0.01223155  0.25123337  1
  O  O280  1  0.86749296  0.00135087  0.75152501  1
  O  O281  1  0.91746357  0.51984650  0.27127221  1
  O  O282  1  0.86533536  0.50994879  0.74345234  1
  O  O283  1  0.11106580  0.36142533  0.37746093  1
  O  O284  1  0.12440020  0.38874651  0.86627866  1
  O  O285  1  0.11355639  0.87452404  0.36500905  1
  O  O286  1  0.10995800  0.87498513  0.86249405  1
  O  O287  1  0.61563915  0.36948593  0.36980458  1
  O  O288  1  0.61877015  0.37052506  0.87160996  1
  O  O289  1  0.62301123  0.86767508  0.36685743  1
  O  O290  1  0.61577634  0.88452221  0.86246520  1
  O  O291  1  0.36681664  0.14310764  0.13089204  1
  O  O292  1  0.39351030  0.11787815  0.62674740  1
  O  O293  1  0.38494355  0.63334266  0.12384280  1
  O  O294  1  0.37561938  0.63143311  0.62894139  1
  O  O295  1  0.86147727  0.13324259  0.13352061  1
  O  O296  1  0.88462272  0.12208913  0.63307364  1
  O  O297  1  0.88312715  0.63879346  0.12021056  1
  O  O298  1  0.87797038  0.62834395  0.63335779  1
  O  O299  1  0.26698558  0.27069207  0.14138909  1
  O  O300  1  0.24736668  0.24285719  0.62934336  1
  O  O301  1  0.25649490  0.75170947  0.11825074  1
  O  O302  1  0.26141975  0.75599723  0.63149064  1
  O  O303  1  0.73704601  0.26546457  0.11438589  1
  O  O304  1  0.74508864  0.26006409  0.62069519  1
  O  O305  1  0.76167034  0.76361262  0.12319620  1
  O  O306  1  0.75758375  0.75679332  0.63101596  1
  O  O307  1  0.23031814  0.25630356  0.35717604  1
  O  O308  1  0.22872097  0.25326742  0.89496848  1
  O  O309  1  0.24561035  0.74672406  0.36364084  1
  O  O310  1  0.24945474  0.74496872  0.87923391  1
  O  O311  1  0.74315196  0.24524145  0.38248074  1
  O  O312  1  0.73783794  0.25782318  0.89391127  1
  O  O313  1  0.73927944  0.75975324  0.37580711  1
  O  O314  1  0.74966758  0.73884661  0.87034492  1
  O  O315  1  -0.03269448  0.13166138  0.01566304  1
  O  O316  1  -0.01135047  0.11346850  0.51101506  1
  O  O317  1  0.00013222  0.62307681  0.00544041  1
  O  O318  1  0.01054225  0.61201311  0.50743869  1
  O  O319  1  0.51482782  0.12638638  -0.00028617  1
  O  O320  1  0.50634359  0.12359495  0.51213441  1
  O  O321  1  0.50668563  0.62864808  0.00855530  1
  O  O322  1  0.50942439  0.61283170  0.50029418  1
  O  O323  1  0.49071611  0.37518428  0.49303026  1
  O  O324  1  0.49903771  0.38102930  0.98954548  1
  O  O325  1  0.48837714  0.87707466  0.49939811  1
  O  O326  1  0.48376873  0.86653636  0.98208391  1
  O  O327  1  0.99501593  0.37546635  0.49744142  1
  O  O328  1  0.98765234  0.39151475  1.01410740  1
  O  O329  1  0.99915607  0.87963761  0.48978271  1
  O  O330  1  0.98757537  0.87098350  0.98736504  1
  O  O331  1  0.49020385  0.48410667  0.38541089  1
  O  O332  1  0.49190268  0.49198367  0.87448289  1
  O  O333  1  0.48659234  0.99628333  0.37480054  1
  O  O334  1  0.48832331  0.98889274  0.87073785  1
  O  O335  1  1.01061108  0.48525066  0.39360678  1
  O  O336  1  0.99677688  0.50899217  0.88803964  1
  O  O337  1  0.99917032  0.99363696  0.38224679  1
  O  O338  1  0.98808028  0.98597182  0.86028048  1
  O  O339  1  0.00402274  -0.00102314  0.12944951  1
  O  O340  1  0.00637682  -0.00609720  0.61331247  1
  O  O341  1  -0.00229774  0.51695305  0.12175297  1
  O  O342  1  0.00897488  0.50040343  0.61732837  1
  O  O343  1  0.51282974  -0.03939996  0.11171362  1
  O  O344  1  0.51127243  0.00462342  0.62625952  1
  O  O345  1  0.50789209  0.51233519  0.12496163  1
  O  O346  1  0.49965861  0.49643215  0.61001832  1
  O  O347  1  0.25408416  0.39461691  0.23931176  1
  O  O348  1  0.23998440  0.38738942  0.75432131  1
  O  O349  1  0.24092950  0.88565976  0.24705703  1
  O  O350  1  0.24386655  0.87973941  0.73474632  1
  O  O351  1  0.73565784  0.36410635  0.24255569  1
  O  O352  1  0.74821367  0.37920901  0.74865273  1
  O  O353  1  0.74547118  0.88478858  0.24379650  1
  O  O354  1  0.74258427  0.88063329  0.74051385  1
  O  O355  1  0.26227018  0.11928702  0.24569834  1
  O  O356  1  0.24256399  0.10773940  0.73348659  1
  O  O357  1  0.25264368  0.61158110  0.24969288  1
  O  O358  1  0.25380280  0.61655614  0.75519398  1
  O  O359  1  0.75133390  0.12194694  0.25516129  1
  O  O360  1  0.76558963  0.11340411  0.73911342  1
  O  O361  1  0.75082316  0.62524041  0.24147608  1
  O  O362  1  0.75269050  0.61659558  0.75523938  1
  O  O363  1  0.38083545  0.11508818  0.36432366  1
  O  O364  1  0.38140813  0.11069623  0.87717112  1
  O  O365  1  0.37381346  0.61219839  0.37497939  1
  O  O366  1  0.37089696  0.62027173  0.86961356  1
  O  O367  1  0.86546722  0.12337123  0.36719706  1
  O  O368  1  0.89693658  0.11379915  0.85493026  1
  O  O369  1  0.87496145  0.62742148  0.38066615  1
  O  O370  1  0.86463504  0.63077165  0.86244685  1
  O  O371  1  0.14132888  0.37641071  0.12161920  1
  O  O372  1  0.13033535  0.38434605  0.63041862  1
  O  O373  1  0.12405273  0.88647498  0.13700235  1
  O  O374  1  0.13063678  0.87790302  0.62295226  1
  O  O375  1  0.62756905  0.38479803  0.13128490  1
  O  O376  1  0.63361982  0.37373312  0.63589282  1
  O  O377  1  0.64034670  0.86246371  0.13958759  1
  O  O378  1  0.62878799  0.88033994  0.63262728  1
  O  O379  1  0.10728268  0.24218760  0.25055520  1
  O  O380  1  0.12339493  0.26990896  0.75530904  1
  O  O381  1  0.11414325  0.76520307  0.23810045  1
  O  O382  1  0.11707602  0.75343965  0.74715492  1
  O  O383  1  0.61503936  0.25759176  0.25488539  1
  O  O384  1  0.63882517  0.26137858  0.76282720  1
  O  O385  1  0.62020430  0.75837725  0.25898576  1
  O  O386  1  0.61487514  0.76054910  0.74187876  1
  O  O387  1  0.38224383  0.24552005  0.24716269  1
  O  O388  1  0.37228454  0.25938039  0.76187083  1
  O  O389  1  0.38532394  0.75059463  0.24255354  1
  O  O390  1  0.38085383  0.74570942  0.74091615  1
  O  O391  1  0.87937311  0.24145200  0.25578144  1
  O  O392  1  0.86843198  0.23424269  0.75596086  1
  O  O393  1  0.88546860  0.75418159  0.23648304  1
  O  O394  1  0.87828645  0.73881220  0.73932126  1
  O  O395  1  0.37918444  0.48928407  0.49099427  1
  O  O396  1  0.37722234  0.50641761  0.98660045  1
  O  O397  1  0.37540280  0.98532493  0.49049653  1
  O  O398  1  0.36999867  0.99557362  0.99158305  1
  O  O399  1  0.88684185  0.48794525  0.50275219  1
  O  O400  1  0.88001918  0.49443256  1.00488339  1
  O  O401  1  0.88369496  0.99199778  0.49892623  1
  O  O402  1  0.86517690  0.99131987  0.98448009  1
  O  O403  1  0.11944876  -0.01576792  0.01892755  1
  O  O404  1  0.11391532  0.00127950  0.50614648  1
  O  O405  1  0.11152276  0.50969130  0.00584362  1
  O  O406  1  0.12026219  0.50172706  0.50938730  1
  O  O407  1  0.63258355  0.02073248  -0.00678235  1
  O  O408  1  0.62338375  0.00452577  0.51005934  1
  O  O409  1  0.62251877  0.51099641  0.01055123  1
  O  O410  1  0.61571771  0.50410592  0.50080642  1
  O  O411  1  0.37121982  0.36904903  0.12341179  1
  O  O412  1  0.37342276  0.36992424  0.60849350  1
  O  O413  1  0.37175520  0.86871196  0.11367419  1
  O  O414  1  0.36759889  0.86837231  0.61534600  1
  O  O415  1  0.85830605  0.38411700  0.12520153  1
  O  O416  1  0.86693541  0.37654499  0.61718579  1
  O  O417  1  0.86876032  0.87265078  0.11579865  1
  O  O418  1  0.86529075  0.86223615  0.62376430  1
  O  O419  1  0.12170787  0.13424062  0.37061901  1
  O  O420  1  0.10940586  0.11068086  0.88360331  1
  O  O421  1  0.11652176  0.61447029  0.39042027  1
  O  O422  1  0.13119233  0.62845828  0.88151913  1
  O  O423  1  0.62716007  0.13009937  0.38000054  1
  O  O424  1  0.62003667  0.13838056  0.87558412  1
  O  O425  1  0.63180122  0.63467933  0.38559014  1
  O  O426  1  0.63216712  0.62020117  0.88417500  1
