# generated using pymatgen
data_V85Zn86O256
_symmetry_space_group_name_H-M   'P 1'
_cell_length_a   17.00718136
_cell_length_b   17.00385002
_cell_length_c   16.98018574
_cell_angle_alpha   89.80819239
_cell_angle_beta   90.08714237
_cell_angle_gamma   90.05688592
_symmetry_Int_Tables_number   1
_chemical_formula_structural   V85Zn86O256
_chemical_formula_sum   'V85 Zn86 O256'
_cell_volume   4910.42291220
_cell_formula_units_Z   1
loop_
 _symmetry_equiv_pos_site_id
 _symmetry_equiv_pos_as_xyz
  1  'x, y, z'
loop_
 _atom_site_type_symbol
 _atom_site_label
 _atom_site_symmetry_multiplicity
 _atom_site_fract_x
 _atom_site_fract_y
 _atom_site_fract_z
 _atom_site_occupancy
  V  V0  1  0.26401124  0.37144674  0.12429537  1
  V  V1  1  0.00595941  0.25728276  0.74787115  1
  V  V2  1  0.50033268  0.74221525  0.74975433  1
  V  V3  1  0.74926433  0.12618944  0.37882814  1
  V  V4  1  0.00698371  0.61749923  0.13029632  1
  V  V5  1  0.24562393  0.37646559  0.63205901  1
  V  V6  1  -0.00729693  0.38110499  0.87897544  1
  V  V7  1  0.74806964  0.75085489  0.49890772  1
  V  V8  1  0.36897274  0.87413502  0.49883097  1
  V  V9  1  0.00102649  0.50008605  0.50466486  1
  V  V10  1  0.00060670  0.12591058  0.12585628  1
  V  V11  1  0.75141282  0.00289418  0.24761768  1
  V  V12  1  0.62590030  0.12790720  -0.02089578  1
  V  V13  1  0.87971965  0.00009847  0.38331478  1
  V  V14  1  0.11665896  0.87091841  0.25432822  1
  V  V15  1  0.74884251  0.24738149  -0.01037982  1
  V  V16  1  0.62658490  0.37794479  0.24835508  1
  V  V17  1  0.62376615  0.75295250  0.36893882  1
  V  V18  1  0.12864687  0.61556795  0.01038775  1
  V  V19  1  0.37314570  0.37491877  0.49813509  1
  V  V20  1  0.62693671  0.87453725  0.75032676  1
  V  V21  1  0.37449022  0.50125673  0.37343970  1
  V  V22  1  0.50333706  0.50191893  0.49779029  1
  V  V23  1  0.62559713  0.00787985  0.12229301  1
  V  V24  1  -0.00428371  0.11569616  0.62919298  1
  V  V25  1  0.75070813  0.62673642  0.37280618  1
  V  V26  1  0.25624596  0.87343124  0.12708120  1
  V  V27  1  0.50011816  0.37593829  0.37398371  1
  V  V28  1  0.49725398  0.47733104  0.00671037  1
  V  V29  1  0.37521077  0.74743734  0.62625269  1
  V  V30  1  0.50204688  0.63529446  0.11778684  1
  V  V31  1  0.50528923  0.26268112  0.75790813  1
  V  V32  1  0.87577419  0.12615400  0.25125668  1
  V  V33  1  0.88031462  0.87121703  -0.00881585  1
  V  V34  1  0.62602883  0.24715012  0.38081258  1
  V  V35  1  0.74713328  0.37881429  0.64195470  1
  V  V36  1  0.00793790  0.37131899  0.37628075  1
  V  V37  1  0.37938279  0.48470590  0.88261587  1
  V  V38  1  0.87395712  0.37660012  0.50069278  1
  V  V39  1  0.74845563  0.24865975  0.50068319  1
  V  V40  1  0.75546068  0.37202324  0.12670770  1
  V  V41  1  0.62730331  0.49838522  0.63635854  1
  V  V42  1  0.37367445  0.00312671  0.37342259  1
  V  V43  1  0.88679273  0.75084939  0.12799773  1
  V  V44  1  0.24810880  0.62766041  0.37610321  1
  V  V45  1  0.75088407  0.87581706  0.12429465  1
  V  V46  1  0.25049360  0.00244131  0.25132819  1
  V  V47  1  0.62450135  -0.00045010  0.62421977  1
  V  V48  1  0.50016824  0.87303745  0.87443471  1
  V  V49  1  0.25486636  0.62482162  0.87708618  1
  V  V50  1  0.62764553  0.72866016  0.87808717  1
  V  V51  1  0.75217789  0.50246369  0.24702692  1
  V  V52  1  0.86172187  0.62185566  0.75759720  1
  V  V53  1  0.37050794  -0.00216009  0.87011800  1
  V  V54  1  0.11908916  0.75169667  0.87542534  1
  V  V55  1  0.37244294  0.24912756  0.61960783  1
  V  V56  1  0.87612638  0.25100492  0.12199130  1
  V  V57  1  0.50251214  0.00334779  0.49887018  1
  V  V58  1  0.37082086  0.11981672  0.74643869  1
  V  V59  1  0.88391079  0.63307787  0.25070433  1
  V  V60  1  0.24591417  0.13209684  0.37706403  1
  V  V61  1  -0.00101991  -0.00128886  -0.00472897  1
  V  V62  1  0.24489702  0.50156082  0.24121558  1
  V  V63  1  0.50137848  0.00130701  -0.00168638  1
  V  V64  1  0.88183275  0.88064037  0.50046544  1
  V  V65  1  0.49608764  0.24681207  0.24428140  1
  V  V66  1  0.25663675  0.74965488  0.00658146  1
  V  V67  1  0.74582015  0.74026655  0.00048856  1
  V  V68  1  0.12512841  0.62340211  0.50584384  1
  V  V69  1  0.37605333  0.87413802  0.00233927  1
  V  V70  1  0.87757641  0.74646542  0.62519056  1
  V  V71  1  0.00509351  0.25082761  0.25477119  1
  V  V72  1  0.12526669  0.00045123  0.12400758  1
  V  V73  1  0.26256564  0.25240112  0.00510072  1
  V  V74  1  0.11511819  0.12239543  0.49728696  1
  V  V75  1  0.24755671  0.12322307  0.87255584  1
  V  V76  1  0.50165986  0.12521727  0.62039288  1
  V  V77  1  0.24635754  0.88031597  0.64181299  1
  V  V78  1  0.87531470  0.50145866  0.37546617  1
  V  V79  1  0.50052314  0.87598306  0.37343319  1
  V  V80  1  0.12430454  0.37773759  0.24039907  1
  V  V81  1  0.13051684  0.26125584  0.87153077  1
  V  V82  1  0.37494461  0.63337298  0.24515391  1
  V  V83  1  0.87455061  0.25134468  0.63178039  1
  V  V84  1  0.74982037  0.87722041  0.62830514  1
  Zn  Zn85  1  0.00295965  0.74863664  0.75021979  1
  Zn  Zn86  1  0.01088807  0.88642530  0.86276896  1
  Zn  Zn87  1  0.62437523  0.62432970  0.49715092  1
  Zn  Zn88  1  0.24622890  0.49336351  0.76056533  1
  Zn  Zn89  1  0.84984049  0.49199707  -0.12686789  1
  Zn  Zn90  1  0.49148590  0.13239526  0.11620384  1
  Zn  Zn91  1  -0.00483703  0.49099160  0.00493658  1
  Zn  Zn92  1  0.24380794  0.75175157  0.50244252  1
  Zn  Zn93  1  0.49179011  0.75685920  0.24408643  1
  Zn  Zn94  1  -0.00286357  0.87238914  0.37580003  1
  Zn  Zn95  1  0.37587671  0.61930964  0.75251707  1
  Zn  Zn96  1  0.62195132  0.87912327  0.24677574  1
  Zn  Zn97  1  0.11693209  0.48682063  0.63759599  1
  Zn  Zn98  1  0.12560758  0.12672032  -0.00149803  1
  Zn  Zn99  1  0.10995569  0.74179367  0.37216542  1
  Zn  Zn100  1  0.50095353  0.62403897  0.62216373  1
  Zn  Zn101  1  0.84066681  0.02493218  0.84055932  1
  Zn  Zn102  1  0.63139765  0.50954251  0.11273414  1
  Zn  Zn103  1  0.12409754  -0.00664514  0.63384699  1
  Zn  Zn104  1  0.24032113  0.25476534  0.49290502  1
  Zn  Zn105  1  0.00060607  0.62066352  0.63282568  1
  Zn  Zn106  1  0.36739599  0.13257283  0.24268400  1
  Zn  Zn107  1  0.18641122  0.18920745  0.18764547  1
  Zn  Zn108  1  0.18366239  0.18502322  0.68525628  1
  Zn  Zn109  1  0.18786783  0.69145049  0.18988857  1
  Zn  Zn110  1  0.19018534  0.68669910  0.69113159  1
  Zn  Zn111  1  0.68567458  0.18737067  0.18921772  1
  Zn  Zn112  1  0.68086553  0.19269497  0.68451189  1
  Zn  Zn113  1  0.68873675  0.68762816  0.18425394  1
  Zn  Zn114  1  0.68294809  0.68374657  0.68621703  1
  Zn  Zn115  1  0.31215197  0.31494582  0.31059507  1
  Zn  Zn116  1  0.31948486  0.30571860  0.81023571  1
  Zn  Zn117  1  0.30768396  0.81456403  0.31420109  1
  Zn  Zn118  1  0.31151387  0.80713965  0.81626591  1
  Zn  Zn119  1  0.81656546  0.31361355  0.31305039  1
  Zn  Zn120  1  0.80989130  0.19220301  0.81154302  1
  Zn  Zn121  1  0.81316386  0.81538344  0.31150974  1
  Zn  Zn122  1  0.81099229  0.80369566  0.81489727  1
  Zn  Zn123  1  0.18745586  0.43987497  0.43789433  1
  Zn  Zn124  1  0.19044823  0.43756414  0.94283786  1
  Zn  Zn125  1  0.18269773  0.94698214  0.44133437  1
  Zn  Zn126  1  0.18836464  0.93658281  0.93685780  1
  Zn  Zn127  1  0.68866772  0.43593107  0.43753400  1
  Zn  Zn128  1  0.68726723  0.41171245  0.93333722  1
  Zn  Zn129  1  0.69079568  0.93893947  0.43820828  1
  Zn  Zn130  1  0.68646087  0.92857061  0.93533159  1
  Zn  Zn131  1  0.31430527  0.06379255  0.06068350  1
  Zn  Zn132  1  0.30852270  0.06057508  0.55814200  1
  Zn  Zn133  1  0.31929748  0.56160211  0.06384836  1
  Zn  Zn134  1  0.31331320  0.56040561  0.56202158  1
  Zn  Zn135  1  0.79886493  0.04802221  0.01511955  1
  Zn  Zn136  1  0.81234586  0.06428826  0.66942912  1
  Zn  Zn137  1  0.79535811  0.53764717  0.02428925  1
  Zn  Zn138  1  0.81035646  0.56340198  0.56527509  1
  Zn  Zn139  1  0.43797054  0.44261614  0.18934575  1
  Zn  Zn140  1  0.43304991  0.44254616  0.68866414  1
  Zn  Zn141  1  0.43827950  0.94425381  0.18782764  1
  Zn  Zn142  1  0.43712763  0.93303462  0.68679376  1
  Zn  Zn143  1  0.93606584  0.43989670  0.18908125  1
  Zn  Zn144  1  0.92965231  0.43670023  0.69636330  1
  Zn  Zn145  1  0.93473563  0.94105226  0.18453276  1
  Zn  Zn146  1  0.94116857  0.92869499  0.69595193  1
  Zn  Zn147  1  0.06210216  0.05920384  0.31282544  1
  Zn  Zn148  1  0.06339148  0.06586911  0.80586936  1
  Zn  Zn149  1  0.06356625  0.55845901  0.31543529  1
  Zn  Zn150  1  0.06391168  0.56763010  0.80798252  1
  Zn  Zn151  1  0.56524186  0.06422527  0.31240693  1
  Zn  Zn152  1  0.55810106  0.06205355  0.80481586  1
  Zn  Zn153  1  0.56283478  0.56654486  0.30752277  1
  Zn  Zn154  1  0.60091593  0.51774617  0.85037784  1
  Zn  Zn155  1  0.43519860  0.18799948  0.43277741  1
  Zn  Zn156  1  0.43945864  0.18739277  0.93476429  1
  Zn  Zn157  1  0.43605186  0.68860385  0.43501132  1
  Zn  Zn158  1  0.43915213  0.68633678  0.93708833  1
  Zn  Zn159  1  0.93374851  0.18721546  0.44230051  1
  Zn  Zn160  1  0.94333086  0.18855704  0.93795977  1
  Zn  Zn161  1  0.93967799  0.69113666  0.43865203  1
  Zn  Zn162  1  0.92863143  0.66060491  0.95023235  1
  Zn  Zn163  1  0.07008684  0.31003738  0.05848880  1
  Zn  Zn164  1  0.06437215  0.30590727  0.55866268  1
  Zn  Zn165  1  0.06647721  0.81032711  0.05924869  1
  Zn  Zn166  1  0.06427698  0.80977006  0.56198827  1
  Zn  Zn167  1  0.56913940  0.30972290  0.06047032  1
  Zn  Zn168  1  0.56178040  0.31711312  0.56736761  1
  Zn  Zn169  1  0.56551565  0.81331773  0.05967636  1
  Zn  Zn170  1  0.56063095  0.81367810  0.55922140  1
  O  O171  1  0.12065378  0.11429604  0.12607153  1
  O  O172  1  0.11016229  0.12741581  0.61664711  1
  O  O173  1  0.11771045  0.63121647  0.12479745  1
  O  O174  1  0.12535856  0.62660349  0.61295970  1
  O  O175  1  0.62150134  0.11527778  0.12168812  1
  O  O176  1  0.60964868  0.11268961  0.62720387  1
  O  O177  1  0.60731273  0.62060213  0.13736870  1
  O  O178  1  0.62240309  0.61328545  0.61555571  1
  O  O179  1  0.37960654  0.38197358  0.37799023  1
  O  O180  1  0.36717460  0.38668335  0.87602539  1
  O  O181  1  0.37913999  0.88031274  0.38177310  1
  O  O182  1  0.37921243  0.88081606  0.87931329  1
  O  O183  1  0.88555016  0.38223209  0.37881267  1
  O  O184  1  0.89416473  0.38067539  0.87685274  1
  O  O185  1  0.87118731  0.88308043  0.38332311  1
  O  O186  1  0.87931732  0.86533026  0.88881108  1
  O  O187  1  0.25461403  0.01052965  0.37135820  1
  O  O188  1  0.26090218  0.00924080  0.88284951  1
  O  O189  1  0.25398549  0.50879224  0.36581219  1
  O  O190  1  0.26193739  0.50828798  0.88322171  1
  O  O191  1  0.75525402  0.00693560  0.36912954  1
  O  O192  1  0.76288296  0.00345018  0.91495100  1
  O  O193  1  0.75590476  0.50625322  0.36903380  1
  O  O194  1  0.75029998  0.50271522  0.92282363  1
  O  O195  1  0.25568253  0.49192508  0.13589425  1
  O  O196  1  0.25604821  0.48167671  0.62470419  1
  O  O197  1  0.24124064  0.99314885  0.12773043  1
  O  O198  1  0.25914006  0.98151931  0.62456254  1
  O  O199  1  0.75048051  0.48810753  0.12480491  1
  O  O200  1  0.73461045  0.49371122  0.61581026  1
  O  O201  1  0.74317602  0.99329309  0.12397369  1
  O  O202  1  0.73537957  0.98658170  0.61762558  1
  O  O203  1  0.00640722  0.37159549  0.25583211  1
  O  O204  1  -0.00110231  0.36406541  0.75864552  1
  O  O205  1  0.01564384  0.88115226  0.24456837  1
  O  O206  1  0.00303342  0.86017385  0.75464815  1
  O  O207  1  0.50847181  0.36942450  0.25379527  1
  O  O208  1  0.48813955  0.35973757  0.74058945  1
  O  O209  1  0.50128972  0.87449375  0.25673224  1
  O  O210  1  0.50761160  0.86371046  0.75295243  1
  O  O211  1  0.50188949  0.14156502  0.25307577  1
  O  O212  1  0.48818079  0.12961486  0.73730457  1
  O  O213  1  0.48891434  0.62790792  0.24357157  1
  O  O214  1  0.49634626  0.63969208  0.74536373  1
  O  O215  1  0.99800838  0.13394570  0.24765097  1
  O  O216  1  1.00119423  0.13872680  0.73405256  1
  O  O217  1  0.99219145  0.61968228  0.24783507  1
  O  O218  1  0.98777600  0.63300971  0.74770776  1
  O  O219  1  0.36088321  0.24576273  -0.00496702  1
  O  O220  1  0.37432514  0.25510264  0.50663005  1
  O  O221  1  0.36394386  0.75801437  -0.00540486  1
  O  O222  1  0.37516543  0.75847070  0.50776667  1
  O  O223  1  0.86229996  0.24274140  0.01458066  1
  O  O224  1  0.86905887  0.25827500  0.50942469  1
  O  O225  1  0.86906375  0.75419087  0.01173019  1
  O  O226  1  0.86398180  0.75703844  0.50556577  1
  O  O227  1  0.12697851  0.23100477  0.50060325  1
  O  O228  1  0.13693815  0.24512979  0.98863417  1
  O  O229  1  0.12640470  0.73712087  0.49456009  1
  O  O230  1  0.14056179  0.74172614  0.99803534  1
  O  O231  1  0.63206231  0.26303873  0.48814529  1
  O  O232  1  0.63621179  0.24098410  1.00117999  1
  O  O233  1  0.63275991  0.75134247  0.49004020  1
  O  O234  1  0.63282651  0.75581059  0.98832314  1
  O  O235  1  0.50999097  0.25047536  0.14203346  1
  O  O236  1  0.48973767  0.24093660  0.62209930  1
  O  O237  1  0.50474393  0.74048272  0.12704839  1
  O  O238  1  0.49217756  0.75135709  0.63046881  1
  O  O239  1  0.99487777  0.24824645  0.13157208  1
  O  O240  1  0.99208348  0.25154303  0.63053495  1
  O  O241  1  0.99141210  0.74639753  0.12384222  1
  O  O242  1  0.98583142  0.74640360  0.61990587  1
  O  O243  1  -0.00904758  0.26040788  0.36612026  1
  O  O244  1  0.01089230  0.26007132  0.86958847  1
  O  O245  1  -0.00121742  0.75883331  0.37435645  1
  O  O246  1  0.01883776  0.74063872  0.88807957  1
  O  O247  1  0.50869289  0.25615675  0.36979843  1
  O  O248  1  0.49151453  0.24826695  0.85686001  1
  O  O249  1  0.50923604  0.75661126  0.37448841  1
  O  O250  1  0.50768750  0.75367299  0.86916470  1
  O  O251  1  0.24153735  0.12758414  0.49242097  1
  O  O252  1  0.24962308  0.13417892  0.99038746  1
  O  O253  1  0.24255308  0.62101122  0.49174621  1
  O  O254  1  0.24844019  0.63201396  1.00175981  1
  O  O255  1  0.75162012  0.14700327  0.49411254  1
  O  O256  1  0.73796675  0.14180610  1.00969071  1
  O  O257  1  0.75096383  0.63700813  0.49228697  1
  O  O258  1  0.74951410  0.64406914  1.02212294  1
  O  O259  1  0.24724003  0.36132510  0.01017505  1
  O  O260  1  0.25639560  0.37258183  0.50382639  1
  O  O261  1  0.25528822  0.86935372  0.00895423  1
  O  O262  1  0.26231194  0.87450071  0.49736417  1
  O  O263  1  0.74087698  0.35504756  0.01782567  1
  O  O264  1  0.75804675  0.36693657  0.49915168  1
  O  O265  1  0.76046849  0.86549063  0.01110614  1
  O  O266  1  0.75467098  0.86672290  0.50785777  1
  O  O267  1  0.13565199  0.49118121  0.25392631  1
  O  O268  1  0.13687245  0.51288169  0.74347286  1
  O  O269  1  0.13021329  0.99299646  0.24079360  1
  O  O270  1  0.12767033  1.00361176  0.74390662  1
  O  O271  1  0.63201144  0.49027694  0.24953802  1
  O  O272  1  0.61986517  0.50969085  0.73234601  1
  O  O273  1  0.63236637  1.00125753  0.24046457  1
  O  O274  1  0.61381756  0.98532672  0.73627546  1
  O  O275  1  0.36716146  0.00030293  0.25918053  1
  O  O276  1  0.38281219  0.00706754  0.75917572  1
  O  O277  1  0.36489101  0.50973951  0.25543072  1
  O  O278  1  0.37155934  0.50239552  0.76653039  1
  O  O279  1  0.86894542  0.00700796  0.25577826  1
  O  O280  1  0.86051254  -0.01037885  0.73921680  1
  O  O281  1  0.87048583  0.51050270  0.25584062  1
  O  O282  1  0.87681706  0.51569965  0.76046305  1
  O  O283  1  0.11328816  0.37940141  0.36638181  1
  O  O284  1  0.13310109  0.36305822  0.87367850  1
  O  O285  1  0.12450985  0.88417866  0.36100141  1
  O  O286  1  0.12673164  0.85627800  0.88629704  1
  O  O287  1  0.62200169  0.36871614  0.36486794  1
  O  O288  1  0.61149194  0.40611661  0.85686078  1
  O  O289  1  0.62043166  0.86894796  0.37413239  1
  O  O290  1  0.61825067  0.87157516  0.86404344  1
  O  O291  1  0.38158909  0.11479031  0.13199354  1
  O  O292  1  0.37895310  0.12855702  0.62769349  1
  O  O293  1  0.38672874  0.62292678  0.13572185  1
  O  O294  1  0.37464183  0.63622650  0.62670333  1
  O  O295  1  0.88406369  0.13656943  0.13509612  1
  O  O296  1  0.88919164  0.13838464  0.61601096  1
  O  O297  1  0.88886448  0.63574317  0.13684893  1
  O  O298  1  0.87544560  0.63239418  0.63033627  1
  O  O299  1  0.24688459  0.25337739  0.11252201  1
  O  O300  1  0.26005940  0.25561610  0.62248365  1
  O  O301  1  0.24660364  0.76299892  0.11894017  1
  O  O302  1  0.26013226  0.75899334  0.62379600  1
  O  O303  1  0.76030323  0.25632615  0.13241504  1
  O  O304  1  0.75456067  0.26070505  0.61755851  1
  O  O305  1  0.75495572  0.76165775  0.12284989  1
  O  O306  1  0.75218807  0.75719610  0.61501170  1
  O  O307  1  0.25333567  0.23679458  0.37204171  1
  O  O308  1  0.24910953  0.24280953  0.88202337  1
  O  O309  1  0.24654394  0.73526583  0.37701771  1
  O  O310  1  0.24546573  0.74269516  0.88780885  1
  O  O311  1  0.74522045  0.24894489  0.37955518  1
  O  O312  1  0.75640225  0.25785637  0.89246070  1
  O  O313  1  0.74372677  0.74876921  0.38118837  1
  O  O314  1  0.73823913  0.75270191  0.88709407  1
  O  O315  1  0.00438340  0.11686938  0.00886696  1
  O  O316  1  0.00842499  0.12846360  0.50856787  1
  O  O317  1  0.01828122  0.63164754  0.01664435  1
  O  O318  1  0.00725539  0.61352053  0.50020458  1
  O  O319  1  0.50960203  0.12120418  -0.00148420  1
  O  O320  1  0.49051090  0.11331496  0.50748568  1
  O  O321  1  0.49457508  0.62549572  0.01700215  1
  O  O322  1  0.49895242  0.61338891  0.49834908  1
  O  O323  1  0.49381641  0.38350802  0.49400377  1
  O  O324  1  0.49091385  0.37869700  1.01547965  1
  O  O325  1  0.48878268  0.88339841  0.49552197  1
  O  O326  1  0.49531535  0.88024494  0.99380969  1
  O  O327  1  0.99680252  0.38009833  0.49367527  1
  O  O328  1  1.01062481  0.37546093  0.98619400  1
  O  O329  1  0.98424833  0.87379289  0.50431338  1
  O  O330  1  0.99599479  0.88099349  0.99916354  1
  O  O331  1  0.49554348  0.49595781  0.37825298  1
  O  O332  1  0.48525949  0.50109288  0.89326587  1
  O  O333  1  0.49692187  0.99786152  0.38163803  1
  O  O334  1  0.49082488  0.99391669  0.87812692  1
  O  O335  1  0.99557363  0.49123200  0.38528864  1
  O  O336  1  1.01670893  0.48089741  0.87078263  1
  O  O337  1  0.98382720  0.99495861  0.36823106  1
  O  O338  1  1.00850342  1.00264112  0.89052686  1
  O  O339  1  0.00975869  0.00485977  0.12003307  1
  O  O340  1  -0.00626336  0.01556624  0.62925626  1
  O  O341  1  -0.00452723  0.51274410  0.12359451  1
  O  O342  1  -0.00220954  0.49541829  0.61418629  1
  O  O343  1  0.51272686  -0.00241589  0.11672657  1
  O  O344  1  0.50244576  0.00394462  0.61722203  1
  O  O345  1  0.49684238  0.50804680  0.11577453  1
  O  O346  1  0.50824314  0.49909067  0.61504020  1
  O  O347  1  0.24252370  0.38077964  0.24495247  1
  O  O348  1  0.25650786  0.37003635  0.73446843  1
  O  O349  1  0.24300490  0.88254377  0.24380557  1
  O  O350  1  0.25362396  0.87025555  0.74052490  1
  O  O351  1  0.74586347  0.38110406  0.24610922  1
  O  O352  1  0.75437976  0.37755115  0.73735141  1
  O  O353  1  0.75104374  0.88342046  0.23811099  1
  O  O354  1  0.73681422  0.86342191  0.73935176  1
  O  O355  1  0.24562561  0.12017793  0.25891718  1
  O  O356  1  0.26263941  0.13304719  0.75760978  1
  O  O357  1  0.25340713  0.61893280  0.25475572  1
  O  O358  1  0.25610661  0.62844897  0.76770465  1
  O  O359  1  0.75615940  0.12221417  0.25762862  1
  O  O360  1  0.75175139  0.12894609  0.73951730  1
  O  O361  1  0.76053040  0.62101666  0.25261981  1
  O  O362  1  0.76224440  0.62738083  0.74216600  1
  O  O363  1  0.36470354  0.11961138  0.37126576  1
  O  O364  1  0.36840304  0.11647981  0.86603121  1
  O  O365  1  0.36592961  0.62044378  0.36858985  1
  O  O366  1  0.36584676  0.62018486  0.87873457  1
  O  O367  1  0.86979973  0.11932830  0.37192239  1
  O  O368  1  0.87790472  0.12729787  0.87390290  1
  O  O369  1  0.87092942  0.62215493  0.36868530  1
  O  O370  1  0.86955166  0.64817302  0.85415875  1
  O  O371  1  0.13340160  0.37255870  0.13683027  1
  O  O372  1  0.14252119  0.36974681  0.61723721  1
  O  O373  1  0.13385374  0.88213091  0.13344535  1
  O  O374  1  0.14466536  0.87174218  0.61556238  1
  O  O375  1  0.63633960  0.37216080  0.13810439  1
  O  O376  1  0.63129632  0.38995555  0.62142967  1
  O  O377  1  0.63526187  0.88551649  0.12263077  1
  O  O378  1  0.62950756  0.87749621  0.63056286  1
  O  O379  1  0.11193691  0.25926421  0.24677314  1
  O  O380  1  0.11644594  0.24478446  0.75817508  1
  O  O381  1  0.13139592  0.76816176  0.25416829  1
  O  O382  1  0.12710447  0.73898049  0.77245328  1
  O  O383  1  0.61902019  0.25939820  0.26035436  1
  O  O384  1  0.60290254  0.24975071  0.73835678  1
  O  O385  1  0.62704115  0.75519047  0.26148460  1
  O  O386  1  0.61858132  0.75485883  0.75676128  1
  O  O387  1  0.39335074  0.25298395  0.25616011  1
  O  O388  1  0.38283661  0.23867036  0.73684486  1
  O  O389  1  0.37222831  0.73805619  0.25654013  1
  O  O390  1  0.38436077  0.75235689  0.74196169  1
  O  O391  1  0.88643242  0.24708579  0.24455062  1
  O  O392  1  0.88443972  0.25203924  0.73582017  1
  O  O393  1  0.86898885  0.74168508  0.24216198  1
  O  O394  1  0.87003868  0.74565078  0.73394953  1
  O  O395  1  0.38436044  0.49541625  0.49392577  1
  O  O396  1  0.38188159  0.49877306  0.99271152  1
  O  O397  1  0.38312199  0.99194697  0.49420632  1
  O  O398  1  0.38118166  0.99442400  0.98867716  1
  O  O399  1  0.88250471  0.49707932  0.49571243  1
  O  O400  1  0.89786299  0.54206895  0.97336209  1
  O  O401  1  0.86585938  0.98909374  0.48818496  1
  O  O402  1  0.89225447  0.98420755  1.01423489  1
  O  O403  1  0.11962877  -0.00146227  0.01110766  1
  O  O404  1  0.12966923  0.01625779  0.51513256  1
  O  O405  1  0.12604903  0.51335498  0.00140347  1
  O  O406  1  0.11623601  0.50549540  0.50450964  1
  O  O407  1  0.62032406  0.00868657  0.00526419  1
  O  O408  1  0.61110391  -0.01028609  0.50981723  1
  O  O409  1  0.60034839  0.49167064  0.00160897  1
  O  O410  1  0.61295730  0.50009064  0.49799980  1
  O  O411  1  0.36232486  0.37314103  0.13615171  1
  O  O412  1  0.36683330  0.36606833  0.61742572  1
  O  O413  1  0.36284707  0.88554370  0.11984012  1
  O  O414  1  0.36776640  0.86665815  0.61824987  1
  O  O415  1  0.86668285  0.36527229  0.13344459  1
  O  O416  1  0.86670684  0.37091855  0.62027155  1
  O  O417  1  0.86970910  0.86723199  0.12096356  1
  O  O418  1  0.86488513  0.86659029  0.61761016  1
  O  O419  1  0.12987646  0.11453680  0.38863056  1
  O  O420  1  0.13765240  0.13354735  0.87396261  1
  O  O421  1  0.13288032  0.62084118  0.38401757  1
  O  O422  1  0.13800215  0.63178084  0.89091325  1
  O  O423  1  0.63253278  0.13913556  0.37118342  1
  O  O424  1  0.62286364  0.11914750  0.88028385  1
  O  O425  1  0.63186035  0.63558149  0.37387898  1
  O  O426  1  0.61890264  0.63052320  0.87027079  1
