# generated using pymatgen
data_V85Zn86O256
_symmetry_space_group_name_H-M   'P 1'
_cell_length_a   16.96794422
_cell_length_b   16.96495901
_cell_length_c   16.96846886
_cell_angle_alpha   90.03433984
_cell_angle_beta   89.95664181
_cell_angle_gamma   90.01813974
_symmetry_Int_Tables_number   1
_chemical_formula_structural   V85Zn86O256
_chemical_formula_sum   'V85 Zn86 O256'
_cell_volume   4884.54904104
_cell_formula_units_Z   1
loop_
 _symmetry_equiv_pos_site_id
 _symmetry_equiv_pos_as_xyz
  1  'x, y, z'
loop_
 _atom_site_type_symbol
 _atom_site_label
 _atom_site_symmetry_multiplicity
 _atom_site_fract_x
 _atom_site_fract_y
 _atom_site_fract_z
 _atom_site_occupancy
  V  V0  1  0.62503507  0.37439744  0.74786129  1
  V  V1  1  0.62116177  0.50055039  0.12234294  1
  V  V2  1  0.62743868  0.24439102  0.87318851  1
  V  V3  1  0.87425728  0.01162219  0.87203176  1
  V  V4  1  0.12580147  0.50808588  0.62650107  1
  V  V5  1  0.49319619  -0.00150412  0.00121517  1
  V  V6  1  0.63781262  0.62497852  0.49292913  1
  V  V7  1  0.36880802  0.11691789  0.74971940  1
  V  V8  1  -0.00076743  0.38079635  0.37397982  1
  V  V9  1  0.62303323  0.12353987  0.00119352  1
  V  V10  1  0.50011858  0.24728683  0.74867078  1
  V  V11  1  -0.01459924  0.74631991  0.75140649  1
  V  V12  1  0.62646225  0.49993561  0.62255208  1
  V  V13  1  0.25465782  0.75274659  0.50243987  1
  V  V14  1  0.87558602  0.37752758  0.49744397  1
  V  V15  1  0.12452153  0.10962653  0.49665069  1
  V  V16  1  -0.00628965  0.74878094  0.25038273  1
  V  V17  1  0.49740147  0.37249948  0.37216494  1
  V  V18  1  0.74654797  0.37741970  0.12051735  1
  V  V19  1  0.37495569  0.50139174  0.37331233  1
  V  V20  1  0.38154888  0.25100878  0.12548274  1
  V  V21  1  0.25055894  0.62617539  0.37414638  1
  V  V22  1  0.74676212  0.62813804  0.88026804  1
  V  V23  1  0.74155999  0.75397603  -0.00120219  1
  V  V24  1  0.62464810  0.87812415  0.25728632  1
  V  V25  1  0.37920440  0.62116495  0.75148463  1
  V  V26  1  0.87470752  0.37531975  -0.00455715  1
  V  V27  1  0.50438990  -0.00534033  0.49404423  1
  V  V28  1  0.12597568  0.37890333  0.24870641  1
  V  V29  1  0.12314240  0.74713912  0.37668223  1
  V  V30  1  0.86814761  0.86147450  0.50489586  1
  V  V31  1  0.00314489  0.00383958  0.00011599  1
  V  V32  1  -0.00069098  0.25073581  0.24956001  1
  V  V33  1  0.51024302  0.74712126  0.75621556  1
  V  V34  1  0.50319371  0.12214174  0.61939551  1
  V  V35  1  0.13147877  0.24655168  0.37793541  1
  V  V36  1  0.26046121  0.75051831  0.00379972  1
  V  V37  1  0.88076896  0.24277429  0.62840963  1
  V  V38  1  0.35811162  0.00211872  0.37393810  1
  V  V39  1  0.24574328  0.12159771  0.88174346  1
  V  V40  1  0.62968001  0.24138483  0.37813512  1
  V  V41  1  0.38531355  0.87390703  0.49816559  1
  V  V42  1  0.12366999  0.00030679  0.12834105  1
  V  V43  1  0.25259259  0.50070317  0.74998505  1
  V  V44  1  0.87494959  0.87478061  0.00414510  1
  V  V45  1  0.24464124  0.24834930  -0.00170641  1
  V  V46  1  0.25757704  0.87193218  0.12200290  1
  V  V47  1  0.37068179  0.24803975  0.62266964  1
  V  V48  1  0.37357432  0.37780262  -0.00664847  1
  V  V49  1  0.12502690  0.62474571  -0.00109012  1
  V  V50  1  0.75072434  0.00920135  0.25490417  1
  V  V51  1  -0.00364122  0.62866111  0.12739178  1
  V  V52  1  0.87466698  0.00968725  0.38627295  1
  V  V53  1  0.62946246  0.87394221  0.75818808  1
  V  V54  1  0.49592128  0.37756804  0.87232021  1
  V  V55  1  -0.00009303  0.50321775  0.49889051  1
  V  V56  1  0.49277190  0.63212306  0.12391154  1
  V  V57  1  0.64345162  0.39300942  0.26527607  1
  V  V58  1  0.87623581  0.50414988  0.87483480  1
  V  V59  1  0.00331774  0.87520869  0.87005410  1
  V  V60  1  0.12845579  -0.01096411  0.64645966  1
  V  V61  1  -0.00119704  0.50062191  -0.00219927  1
  V  V62  1  0.49103441  0.75510235  0.25525175  1
  V  V63  1  -0.01376850  0.63013733  0.63065881  1
  V  V64  1  0.62669727  0.00002774  0.62365240  1
  V  V65  1  0.25387149  0.62279129  0.87474465  1
  V  V66  1  0.50405306  0.62507815  0.62404448  1
  V  V67  1  0.49959612  0.87125984  0.88144730  1
  V  V68  1  0.12763870  0.87974616  0.25087837  1
  V  V69  1  0.12429970  0.50021334  0.12439127  1
  V  V70  1  0.00221784  0.12524821  0.12533076  1
  V  V71  1  0.87374896  0.24868539  0.12445790  1
  V  V72  1  0.49617882  0.50097142  -0.00497414  1
  V  V73  1  0.75630588  0.50484955  0.75010977  1
  V  V74  1  0.63900284  0.74554559  0.37484845  1
  V  V75  1  0.75538584  0.01341995  0.75402323  1
  V  V76  1  0.37239215  -0.00401029  0.87556084  1
  V  V77  1  0.74997830  0.24178831  -0.00598952  1
  V  V78  1  0.24887580  0.50185906  0.24889440  1
  V  V79  1  0.75074226  0.37506475  0.62299387  1
  V  V80  1  0.12335259  0.36812935  0.74865752  1
  V  V81  1  0.12339195  0.75357967  0.87181366  1
  V  V82  1  0.50001309  0.50075028  0.49739448  1
  V  V83  1  -0.00065852  0.87916826  0.38412724  1
  V  V84  1  0.74899698  0.23582465  0.49504208  1
  Zn  Zn85  1  0.62606457  0.00130553  0.12784861  1
  Zn  Zn86  1  0.25316873  0.24625950  0.49225814  1
  Zn  Zn87  1  0.36999987  0.63174745  0.24358431  1
  Zn  Zn88  1  0.78745483  0.54942291  0.29804683  1
  Zn  Zn89  1  0.12255901  0.24444408  0.87626654  1
  Zn  Zn90  1  0.24949906  0.37428572  0.62017957  1
  Zn  Zn91  1  0.61887522  0.63772826  -0.00284224  1
  Zn  Zn92  1  0.86912240  0.74964512  0.13161203  1
  Zn  Zn93  1  0.37252874  0.37413726  0.50032278  1
  Zn  Zn94  1  0.50831654  0.24831849  0.24956325  1
  Zn  Zn95  1  0.74978095  0.87779736  0.12801699  1
  Zn  Zn96  1  0.49914596  0.11982350  0.12996191  1
  Zn  Zn97  1  0.25764427  0.88724420  0.64542279  1
  Zn  Zn98  1  -0.00969322  0.24003034  0.75803789  1
  Zn  Zn99  1  0.12370196  0.62995868  0.50344656  1
  Zn  Zn100  1  -0.00088779  0.11071137  0.62747906  1
  Zn  Zn101  1  0.86879099  0.13150668  0.25900703  1
  Zn  Zn102  1  0.36550826  0.12285511  0.26034152  1
  Zn  Zn103  1  0.38257708  0.75400983  0.62580387  1
  Zn  Zn104  1  0.25115015  0.37717194  0.12127444  1
  Zn  Zn105  1  0.00122288  0.37317400  0.87295714  1
  Zn  Zn106  1  0.76576251  0.86001625  0.63398011  1
  Zn  Zn107  1  0.19136070  0.19017426  0.19341035  1
  Zn  Zn108  1  0.18607642  0.17643125  0.68431371  1
  Zn  Zn109  1  0.18173043  0.69043263  0.18840900  1
  Zn  Zn110  1  0.20186299  0.71944932  0.70455941  1
  Zn  Zn111  1  0.68476884  0.19412473  0.18973246  1
  Zn  Zn112  1  0.68985592  0.18840399  0.68211181  1
  Zn  Zn113  1  0.68218538  0.69244941  0.18763456  1
  Zn  Zn114  1  0.69723142  0.68532191  0.68867877  1
  Zn  Zn115  1  0.31172657  0.31532690  0.31005427  1
  Zn  Zn116  1  0.30988326  0.30807322  0.80840672  1
  Zn  Zn117  1  0.31217578  0.82147399  0.31521791  1
  Zn  Zn118  1  0.31929051  0.81006109  0.81584123  1
  Zn  Zn119  1  0.81325817  0.31993152  0.31304081  1
  Zn  Zn120  1  0.81129003  0.31486238  0.81117183  1
  Zn  Zn121  1  0.81210912  0.82016623  0.31642630  1
  Zn  Zn122  1  0.81273901  0.81705899  0.81992540  1
  Zn  Zn123  1  0.18813183  0.43602438  0.43927018  1
  Zn  Zn124  1  0.18582941  0.43691828  0.93325241  1
  Zn  Zn125  1  0.19123319  0.92997055  0.44422022  1
  Zn  Zn126  1  0.18881813  0.93712011  0.94198482  1
  Zn  Zn127  1  0.68773194  0.43498660  0.43731133  1
  Zn  Zn128  1  0.68598969  0.43689960  0.93632513  1
  Zn  Zn129  1  0.69021930  0.93682503  0.43643986  1
  Zn  Zn130  1  0.68837182  0.94144801  0.93572399  1
  Zn  Zn131  1  0.28957942  0.08122624  0.09456800  1
  Zn  Zn132  1  0.30635279  0.06197933  0.55777637  1
  Zn  Zn133  1  0.31283903  0.56173230  0.06108106  1
  Zn  Zn134  1  0.31538689  0.56664309  0.56257855  1
  Zn  Zn135  1  0.81365329  0.06101961  0.06673962  1
  Zn  Zn136  1  0.81088675  0.05723586  0.56622560  1
  Zn  Zn137  1  0.78960984  0.58595609  0.10205101  1
  Zn  Zn138  1  0.81470756  0.56179472  0.55913170  1
  Zn  Zn139  1  0.43911728  0.43719556  0.18730198  1
  Zn  Zn140  1  0.43772287  0.43664074  0.68464780  1
  Zn  Zn141  1  0.43896592  0.93768056  0.18996240  1
  Zn  Zn142  1  0.44163988  0.93312375  0.68741319  1
  Zn  Zn143  1  0.93414534  0.43708824  0.17996360  1
  Zn  Zn144  1  0.93929523  0.43411949  0.68597184  1
  Zn  Zn145  1  0.93669812  0.93866546  0.19523034  1
  Zn  Zn146  1  0.94146696  0.93793938  0.68695904  1
  Zn  Zn147  1  0.05896691  0.06381752  0.31360306  1
  Zn  Zn148  1  0.06205610  0.06226465  0.80772655  1
  Zn  Zn149  1  -0.05015737  0.56182229  0.30970609  1
  Zn  Zn150  1  0.06403133  0.56486989  0.80999091  1
  Zn  Zn151  1  0.55436422  0.06561287  0.30828723  1
  Zn  Zn152  1  0.56097924  0.06053201  0.81153999  1
  Zn  Zn153  1  0.56045156  0.56776714  0.31058068  1
  Zn  Zn154  1  0.56912317  0.56081783  0.81314299  1
  Zn  Zn155  1  0.43954423  0.18293644  0.43698962  1
  Zn  Zn156  1  0.43533924  0.18592255  0.93854225  1
  Zn  Zn157  1  0.44234441  0.68761101  0.43526880  1
  Zn  Zn158  1  0.43669195  0.68712615  0.93597997  1
  Zn  Zn159  1  0.94654579  0.19027392  0.44532130  1
  Zn  Zn160  1  0.94186461  0.18868271  0.93906521  1
  Zn  Zn161  1  0.92060229  0.68065947  0.43439603  1
  Zn  Zn162  1  0.93261358  0.68734401  0.94117384  1
  Zn  Zn163  1  0.06091143  0.31369896  0.06153880  1
  Zn  Zn164  1  0.06581378  0.31379985  0.56205166  1
  Zn  Zn165  1  0.06498559  0.81303245  0.06003678  1
  Zn  Zn166  1  0.06222152  0.81474702  0.56656996  1
  Zn  Zn167  1  0.56470241  0.31641844  0.06070376  1
  Zn  Zn168  1  0.56194393  0.31062811  0.55800908  1
  Zn  Zn169  1  0.56142371  0.81825418  0.07052264  1
  Zn  Zn170  1  0.60084921  0.79429902  0.58091415  1
  O  O171  1  0.11109431  0.11485229  0.13256040  1
  O  O172  1  0.12795187  0.10592194  0.61527351  1
  O  O173  1  0.11702221  0.62046677  0.11881838  1
  O  O174  1  0.11679633  0.61387117  0.62474654  1
  O  O175  1  0.62012098  0.12815691  0.11352775  1
  O  O176  1  0.61452379  0.11255945  0.63452837  1
  O  O177  1  0.61018272  0.61584896  0.11733917  1
  O  O178  1  0.62175458  0.61722467  0.61559823  1
  O  O179  1  0.38325357  0.38029978  0.37423392  1
  O  O180  1  0.38678305  0.36725175  0.87896077  1
  O  O181  1  0.37335860  0.88655866  0.38847704  1
  O  O182  1  0.38648109  0.88384254  0.87080983  1
  O  O183  1  0.88800060  0.36863178  0.38704158  1
  O  O184  1  0.87532086  0.38433272  0.87869263  1
  O  O185  1  0.88161173  0.88286328  0.38686877  1
  O  O186  1  0.88491945  0.88511478  0.88544813  1
  O  O187  1  0.25899957  -0.00420638  0.37636680  1
  O  O188  1  0.26334642  0.00599595  0.88827322  1
  O  O189  1  0.25245961  0.50880632  0.36983714  1
  O  O190  1  0.24329151  0.51285968  0.86272681  1
  O  O191  1  0.76517376  -0.00156120  0.36986945  1
  O  O192  1  0.75826315  -0.00116214  0.86236215  1
  O  O193  1  0.71329868  0.46132487  0.33057153  1
  O  O194  1  0.75634050  0.50365592  0.86983820  1
  O  O195  1  0.24254901  0.49944564  0.12933475  1
  O  O196  1  0.24341488  0.50411455  0.63390049  1
  O  O197  1  0.23218888  0.98158072  0.11091025  1
  O  O198  1  0.23716807  0.99823435  0.62244894  1
  O  O199  1  0.73430546  0.48469673  0.10573251  1
  O  O200  1  0.74749095  0.49616597  0.63227611  1
  O  O201  1  0.74738362  0.99773181  0.13684629  1
  O  O202  1  0.74410356  0.99420217  0.63809931  1
  O  O203  1  0.00901381  0.37106044  0.25512675  1
  O  O204  1  0.01176570  0.37056533  0.74918437  1
  O  O205  1  0.00912585  0.86892557  0.26045230  1
  O  O206  1  -0.00505970  0.86585234  0.76469758  1
  O  O207  1  0.50980055  0.37651329  0.26210458  1
  O  O208  1  0.50491642  0.37000039  0.75494145  1
  O  O209  1  0.50866601  0.86145357  0.24498727  1
  O  O210  1  0.50674439  0.86638702  0.76076003  1
  O  O211  1  0.48603820  0.13227798  0.24524289  1
  O  O212  1  0.49117088  0.12779850  0.74233036  1
  O  O213  1  0.49651668  0.63698169  0.24083951  1
  O  O214  1  0.49891500  0.62677549  0.74905977  1
  O  O215  1  0.99535180  0.13279723  0.24170987  1
  O  O216  1  1.00897702  0.13138527  0.73947471  1
  O  O217  1  1.00460448  0.63709033  0.23951355  1
  O  O218  1  0.99747539  0.62744091  0.73765296  1
  O  O219  1  0.37007877  0.26217859  0.00319526  1
  O  O220  1  0.37502689  0.24678701  0.51082539  1
  O  O221  1  0.35976061  0.74584445  -0.00234272  1
  O  O222  1  0.37344328  0.75685535  0.49760152  1
  O  O223  1  0.86675902  0.25360182  0.00238836  1
  O  O224  1  0.86889643  0.25925097  0.50675494  1
  O  O225  1  0.86789076  0.76270010  0.00166461  1
  O  O226  1  0.87535666  0.76228781  0.49738981  1
  O  O227  1  0.12744406  0.25024759  0.48923880  1
  O  O228  1  0.14056260  0.25983290  0.99861087  1
  O  O229  1  0.13413999  0.75267935  0.49127763  1
  O  O230  1  0.12995952  0.74311127  0.98996490  1
  O  O231  1  0.63655507  0.25597937  0.49080798  1
  O  O232  1  0.63003043  0.24462953  0.99217524  1
  O  O233  1  0.61640521  0.74021993  0.47975731  1
  O  O234  1  0.63707211  0.75759205  1.00322214  1
  O  O235  1  0.48954848  0.25804319  0.12436643  1
  O  O236  1  0.49548272  0.24074851  0.62814710  1
  O  O237  1  0.50677060  0.74121012  0.13680291  1
  O  O238  1  0.50755472  0.74149556  0.63770719  1
  O  O239  1  0.99503068  0.24353285  0.12733083  1
  O  O240  1  0.98365553  0.25696728  0.62266236  1
  O  O241  1  1.00468099  0.74477241  0.13356766  1
  O  O242  1  1.00691361  0.73651971  0.63427006  1
  O  O243  1  0.00885434  0.26183940  0.37013544  1
  O  O244  1  0.00585107  0.25407753  0.87380678  1
  O  O245  1  0.00642703  0.75552580  0.36958391  1
  O  O246  1  0.00279226  0.75532935  0.87309625  1
  O  O247  1  0.50545482  0.25803058  0.37594634  1
  O  O248  1  0.50739988  0.25755980  0.86971185  1
  O  O249  1  0.50901241  0.74379249  0.35794286  1
  O  O250  1  0.49593203  0.75952885  0.86986622  1
  O  O251  1  0.23103118  0.13042537  0.50113041  1
  O  O252  1  0.25706830  0.13684691  0.99381752  1
  O  O253  1  0.24934530  0.62943601  0.48589676  1
  O  O254  1  0.24571652  0.62865634  0.99302190  1
  O  O255  1  0.75364083  0.13699729  0.50263054  1
  O  O256  1  0.74124396  0.13473289  1.00390106  1
  O  O257  1  0.73698475  0.61648334  0.49875949  1
  O  O258  1  0.74727137  0.63740279  0.99939187  1
  O  O259  1  0.26037241  0.37137902  -0.00554857  1
  O  O260  1  0.25473721  0.36854010  0.50274918  1
  O  O261  1  0.24332984  0.86341280  0.01266348  1
  O  O262  1  0.26287285  0.86314021  0.50346169  1
  O  O263  1  0.75163410  0.36267254  0.00290878  1
  O  O264  1  0.76108213  0.37573794  0.50468220  1
  O  O265  1  0.75912556  0.87205540  -0.00391150  1
  O  O266  1  0.76620957  0.87802290  0.50101776  1
  O  O267  1  0.13045178  0.48813805  0.24317198  1
  O  O268  1  0.13303477  0.49458514  0.74332475  1
  O  O269  1  0.11621599  0.99007941  0.24197400  1
  O  O270  1  0.13213600  0.99206496  0.74601729  1
  O  O271  1  0.60836968  0.49506749  0.23077407  1
  O  O272  1  0.63462528  0.49349734  0.74311290  1
  O  O273  1  0.63091826  0.99409828  0.25674464  1
  O  O274  1  0.63733967  0.99570607  0.74925443  1
  O  O275  1  0.38458134  -0.00667396  0.27351871  1
  O  O276  1  0.38331319  0.00705394  0.76121776  1
  O  O277  1  0.36645722  0.50083830  0.25504148  1
  O  O278  1  0.36663905  0.51029440  0.74334503  1
  O  O279  1  0.86654617  0.00216040  0.26208795  1
  O  O280  1  0.86235083  -0.00670153  0.75559293  1
  O  O281  1  0.87918917  0.48725806  0.25970854  1
  O  O282  1  0.86427087  0.49121495  0.75829280  1
  O  O283  1  0.11826468  0.36940585  0.36663288  1
  O  O284  1  0.12434168  0.37366057  0.86050519  1
  O  O285  1  0.12015877  0.86799041  0.37068539  1
  O  O286  1  0.11402005  0.86535409  0.88508780  1
  O  O287  1  0.61222092  0.36530898  0.37373081  1
  O  O288  1  0.61620661  0.36498429  0.86938515  1
  O  O289  1  0.62892500  0.86176458  0.36712462  1
  O  O290  1  0.61444607  0.88357571  0.86548971  1
  O  O291  1  0.38470894  0.14830637  0.10631019  1
  O  O292  1  0.38180793  0.12723594  0.63178719  1
  O  O293  1  0.38730842  0.62065920  0.12560399  1
  O  O294  1  0.38612858  0.62738702  0.63425570  1
  O  O295  1  0.88478792  0.13134621  0.12786116  1
  O  O296  1  0.87735870  0.13967599  0.61661226  1
  O  O297  1  0.89465072  0.63162086  0.11234647  1
  O  O298  1  0.88750299  0.62477813  0.62107482  1
  O  O299  1  0.26212140  0.25651750  0.11327975  1
  O  O300  1  0.26379535  0.24715697  0.62781258  1
  O  O301  1  0.24013825  0.76122756  0.11754333  1
  O  O302  1  0.25599564  0.73049849  0.60322458  1
  O  O303  1  0.75232491  0.25605396  0.11130341  1
  O  O304  1  0.75739330  0.25577838  0.61488376  1
  O  O305  1  0.75272173  0.75798816  0.11418457  1
  O  O306  1  0.71002846  0.76465153  0.61528798  1
  O  O307  1  0.23620503  0.25164085  0.36825690  1
  O  O308  1  0.25137878  0.23990568  0.88233575  1
  O  O309  1  0.24501824  0.74626130  0.38066831  1
  O  O310  1  0.24248631  0.74119875  0.88343368  1
  O  O311  1  0.74197011  0.25979444  0.38334444  1
  O  O312  1  0.73914271  0.25618678  0.88229521  1
  O  O313  1  0.73794066  0.74786909  0.36806861  1
  O  O314  1  0.75825902  0.73857585  0.88525482  1
  O  O315  1  -0.00483214  0.11426508  0.01203269  1
  O  O316  1  0.01941240  0.13328634  0.51162089  1
  O  O317  1  0.00744852  0.62095515  0.00411119  1
  O  O318  1  0.00089758  0.61822703  0.51022085  1
  O  O319  1  0.50900651  0.11751645  -0.00081832  1
  O  O320  1  0.49754478  0.11391102  0.51414228  1
  O  O321  1  0.49903974  0.61765344  0.00235199  1
  O  O322  1  0.50893936  0.61860910  0.50352882  1
  O  O323  1  0.49830519  0.38171004  0.48904796  1
  O  O324  1  0.49325428  0.38048782  0.99053972  1
  O  O325  1  0.49078396  0.88368027  0.50924839  1
  O  O326  1  0.50924378  0.88451625  0.99106262  1
  O  O327  1  0.99578727  0.38243640  0.49394610  1
  O  O328  1  0.99285780  0.38242641  0.99856856  1
  O  O329  1  0.99240030  0.86910715  0.48899173  1
  O  O330  1  0.99282504  0.88226356  0.99295562  1
  O  O331  1  0.49549380  0.49396995  0.37732317  1
  O  O332  1  0.50748159  0.48777686  0.88112697  1
  O  O333  1  0.50562777  1.00346186  0.39318654  1
  O  O334  1  0.49373336  0.99220438  0.88058173  1
  O  O335  1  1.00885188  0.48897385  0.38654653  1
  O  O336  1  0.99183878  0.50159504  0.87775608  1
  O  O337  1  0.98593344  0.98853716  0.36716171  1
  O  O338  1  0.99662542  0.99377444  0.88145110  1
  O  O339  1  0.00311351  0.00549929  0.12051228  1
  O  O340  1  0.02064799  -0.00513621  0.62990870  1
  O  O341  1  0.00552034  0.50836919  0.11817969  1
  O  O342  1  0.00471475  0.50975337  0.62051926  1
  O  O343  1  0.50287944  -0.00083667  0.11512981  1
  O  O344  1  0.50661942  0.00633386  0.62109077  1
  O  O345  1  0.50278506  0.50552030  0.11313534  1
  O  O346  1  0.50717558  0.50433006  0.61915590  1
  O  O347  1  0.23969515  0.38174759  0.24739246  1
  O  O348  1  0.24570504  0.38652684  0.74788359  1
  O  O349  1  0.23615470  0.86658985  0.23748275  1
  O  O350  1  0.24545455  0.82268939  0.73568840  1
  O  O351  1  0.74734740  0.36334168  0.22727430  1
  O  O352  1  0.74325425  0.38369343  0.74380215  1
  O  O353  1  0.74224312  0.88770567  0.25225158  1
  O  O354  1  0.74197752  0.87901735  0.75252887  1
  O  O355  1  0.26684492  0.11132721  0.20707122  1
  O  O356  1  0.26401621  0.12812382  0.76114425  1
  O  O357  1  0.24881464  0.62290693  0.25802142  1
  O  O358  1  0.25852133  0.62258614  0.75600793  1
  O  O359  1  0.74984002  0.11532139  0.24587588  1
  O  O360  1  0.74935583  0.11212224  0.74638974  1
  O  O361  1  0.75592601  0.61354275  0.20982028  1
  O  O362  1  0.74499045  0.61249693  0.76049110  1
  O  O363  1  0.37402219  0.10853828  0.37947386  1
  O  O364  1  0.37053697  0.11682913  0.86834182  1
  O  O365  1  0.36514242  0.62122690  0.37029419  1
  O  O366  1  0.36440403  0.62817833  0.86498567  1
  O  O367  1  0.88705974  0.11315204  0.37839500  1
  O  O368  1  0.88173644  0.11050156  0.87887015  1
  O  O369  1  0.86633529  0.60796605  0.37232774  1
  O  O370  1  0.86364071  0.61179480  0.88238423  1
  O  O371  1  0.12470071  0.37990515  0.13388226  1
  O  O372  1  0.12622153  0.38776626  0.63232079  1
  O  O373  1  0.12297297  0.88252033  0.13441982  1
  O  O374  1  0.13232240  0.88655966  0.61852211  1
  O  O375  1  0.62966576  0.38158490  0.13259299  1
  O  O376  1  0.62956324  0.37973363  0.62790307  1
  O  O377  1  0.62787629  0.87934958  0.14315652  1
  O  O378  1  0.61497186  0.89119324  0.64650684  1
  O  O379  1  0.12040846  0.25838491  0.25409849  1
  O  O380  1  0.13305926  0.26287573  0.74504959  1
  O  O381  1  0.11612114  0.75953182  0.25922233  1
  O  O382  1  0.10690000  0.73916757  0.76816928  1
  O  O383  1  0.62849679  0.26879307  0.26081304  1
  O  O384  1  0.62197054  0.25350156  0.75479515  1
  O  O385  1  0.61903912  0.75651205  0.25950204  1
  O  O386  1  0.61612728  0.75656518  0.75476594  1
  O  O387  1  0.37391519  0.25625479  0.23127870  1
  O  O388  1  0.38167479  0.23952351  0.74258313  1
  O  O389  1  0.38753502  0.75460251  0.25541355  1
  O  O390  1  0.39244450  0.73599029  0.74908674  1
  O  O391  1  0.88088072  0.25231373  0.24322159  1
  O  O392  1  0.86993499  0.25667670  0.73191133  1
  O  O393  1  0.89004561  0.76422605  0.24935447  1
  O  O394  1  0.88545512  0.75181387  0.75608306  1
  O  O395  1  0.38224699  0.50092958  0.49199960  1
  O  O396  1  0.38467487  0.49021746  1.00020795  1
  O  O397  1  0.38213728  0.99411334  0.49272346  1
  O  O398  1  0.38994152  1.00583055  0.98975818  1
  O  O399  1  0.88837503  0.48837179  0.50732115  1
  O  O400  1  0.88108234  0.49184166  0.98871925  1
  O  O401  1  0.87358820  0.99570996  0.48872884  1
  O  O402  1  0.88239782  0.99434228  0.99385791  1
  O  O403  1  0.10954409  -0.00700669  0.01052736  1
  O  O404  1  0.12274319  0.00936528  0.48911210  1
  O  O405  1  0.12013652  0.50410127  0.00368214  1
  O  O406  1  0.11571581  0.50041273  0.50895939  1
  O  O407  1  0.61893377  0.01115083  -0.00188451  1
  O  O408  1  0.62051852  -0.01225020  0.51519364  1
  O  O409  1  0.60963696  0.49337209  0.00701033  1
  O  O410  1  0.62020646  0.50539781  0.50233939  1
  O  O411  1  0.37560828  0.36952061  0.11128775  1
  O  O412  1  0.37577017  0.36133035  0.62453486  1
  O  O413  1  0.35510980  0.88123308  0.13228476  1
  O  O414  1  0.37357096  0.87229766  0.61669806  1
  O  O415  1  0.86605812  0.36836682  0.11391064  1
  O  O416  1  0.87053732  0.36813193  0.61494595  1
  O  O417  1  0.87745787  0.87755333  0.11356926  1
  O  O418  1  0.87949223  0.87956298  0.60945838  1
  O  O419  1  0.11448393  0.13490484  0.38478972  1
  O  O420  1  0.14262538  0.12253254  0.87009449  1
  O  O421  1  0.13555973  0.64019867  0.37713810  1
  O  O422  1  0.13413267  0.63116185  0.87939747  1
  O  O423  1  0.61871568  0.14348354  0.36661161  1
  O  O424  1  0.61770430  0.13726625  0.88245142  1
  O  O425  1  0.62604918  0.63398836  0.37712289  1
  O  O426  1  0.64057205  0.61646589  0.88317107  1
