# generated using pymatgen
data_V85Zn86O256
_symmetry_space_group_name_H-M   'P 1'
_cell_length_a   16.93842169
_cell_length_b   16.94657352
_cell_length_c   16.94314369
_cell_angle_alpha   89.92232064
_cell_angle_beta   89.90547352
_cell_angle_gamma   90.02908866
_symmetry_Int_Tables_number   1
_chemical_formula_structural   V85Zn86O256
_chemical_formula_sum   'V85 Zn86 O256'
_cell_volume   4863.48732185
_cell_formula_units_Z   1
loop_
 _symmetry_equiv_pos_site_id
 _symmetry_equiv_pos_as_xyz
  1  'x, y, z'
loop_
 _atom_site_type_symbol
 _atom_site_label
 _atom_site_symmetry_multiplicity
 _atom_site_fract_x
 _atom_site_fract_y
 _atom_site_fract_z
 _atom_site_occupancy
  V  V0  1  0.87490789  0.88033257  0.49250918  1
  V  V1  1  0.75824007  0.25729420  -0.00014312  1
  V  V2  1  0.50058558  0.37501098  0.37463145  1
  V  V3  1  0.12529106  0.50199504  0.62329134  1
  V  V4  1  0.26009459  0.75386559  0.48969604  1
  V  V5  1  0.62001494  0.87120382  0.75086165  1
  V  V6  1  0.49226067  0.49193343  -0.00040245  1
  V  V7  1  0.37509758  0.74839343  0.12437655  1
  V  V8  1  0.24701449  0.74677061  -0.00118991  1
  V  V9  1  0.37517565  -0.00069915  0.37552007  1
  V  V10  1  -0.00455503  0.22507490  0.24880629  1
  V  V11  1  0.00798551  0.87947586  0.37073513  1
  V  V12  1  0.87777316  0.49377508  0.88614873  1
  V  V13  1  0.24810460  0.87588597  0.12122868  1
  V  V14  1  0.50097163  0.24937409  0.24875251  1
  V  V15  1  0.12167670  0.62000354  0.00017567  1
  V  V16  1  0.37588428  0.87411022  0.00020203  1
  V  V17  1  0.62403530  0.49288744  0.12553286  1
  V  V18  1  0.24762683  -0.00057275  0.24646470  1
  V  V19  1  0.37498973  0.12617362  0.24512855  1
  V  V20  1  -0.00038864  0.49802653  0.49844997  1
  V  V21  1  0.37378921  0.50176011  0.87298379  1
  V  V22  1  0.12459276  0.25225894  0.37030448  1
  V  V23  1  0.49619974  0.00107276  0.50114213  1
  V  V24  1  -0.00237006  0.88427556  0.87832554  1
  V  V25  1  -0.00206733  0.24299822  0.74827815  1
  V  V26  1  0.25743438  0.25312431  0.00014558  1
  V  V27  1  0.37784055  0.00611765  0.87104463  1
  V  V28  1  0.62433279  0.24931380  0.86589931  1
  V  V29  1  0.00289934  0.74954668  0.75286126  1
  V  V30  1  0.11784758  0.00053974  0.11851421  1
  V  V31  1  0.62256434  0.12614985  0.50214297  1
  V  V32  1  0.12277760  0.12910896  0.00067391  1
  V  V33  1  0.62890358  0.24904702  0.37481423  1
  V  V34  1  0.24804915  0.12519659  0.37365048  1
  V  V35  1  0.11991235  0.37433084  0.75154968  1
  V  V36  1  -0.01330150  0.63032427  0.12294090  1
  V  V37  1  0.62634029  -0.00065493  0.12578302  1
  V  V38  1  0.00423843  0.00113898  0.51200871  1
  V  V39  1  0.38515650  0.25136669  0.63851839  1
  V  V40  1  0.11839880  0.49648934  0.12440674  1
  V  V41  1  0.87948604  0.24160025  0.12658645  1
  V  V42  1  -0.00035554  0.37629293  0.88586937  1
  V  V43  1  0.87274916  0.88067343  -0.00397101  1
  V  V44  1  0.25263303  0.50909465  0.75024079  1
  V  V45  1  0.49842362  0.62396203  0.12360264  1
  V  V46  1  0.49556376  0.62834548  0.64232312  1
  V  V47  1  0.75710491  0.50379167  0.25140474  1
  V  V48  1  0.74890695  0.87641632  0.62555473  1
  V  V49  1  0.87869244  0.23519525  0.62621013  1
  V  V50  1  -0.00771766  0.74096658  0.25684439  1
  V  V51  1  0.87619445  0.75134911  0.62449839  1
  V  V52  1  0.37483481  0.37485899  0.49962229  1
  V  V53  1  0.37293620  0.75174834  0.63995767  1
  V  V54  1  0.25271765  0.37511079  0.12138136  1
  V  V55  1  0.25408944  0.13050186  0.87076067  1
  V  V56  1  0.62372546  0.62278346  -0.00121402  1
  V  V57  1  0.75524182  0.37605606  0.62375847  1
  V  V58  1  0.25033480  0.37581402  0.62572112  1
  V  V59  1  0.49653475  0.87563334  0.37979967  1
  V  V60  1  0.24295646  0.49380700  0.24920474  1
  V  V61  1  0.76471993  0.12082366  0.87286608  1
  V  V62  1  0.74648914  0.74370252  0.50032890  1
  V  V63  1  0.62767434  0.50666953  0.62157311  1
  V  V64  1  0.50328648  0.51090206  0.49876041  1
  V  V65  1  0.62051383  0.00130406  0.62846779  1
  V  V66  1  0.49860998  0.37251819  0.86864069  1
  V  V67  1  0.50006293  0.87030039  0.87113428  1
  V  V68  1  0.62848758  0.12530440  -0.00062552  1
  V  V69  1  0.76349473  0.00045994  0.25519873  1
  V  V70  1  0.76190897  0.00159886  0.75422076  1
  V  V71  1  0.37304239  0.62337278  0.24763239  1
  V  V72  1  0.75203623  0.62361447  0.87105221  1
  V  V73  1  0.75444945  0.74890616  0.00394290  1
  V  V74  1  0.12712682  0.63288646  0.49091214  1
  V  V75  1  0.00302045  0.37699059  0.36186407  1
  V  V76  1  0.62252311  0.74867446  0.87270185  1
  V  V77  1  0.75617300  0.86965452  0.12693118  1
  V  V78  1  0.37311922  0.50139036  0.37323707  1
  V  V79  1  0.62556910  0.74353957  0.38076630  1
  V  V80  1  0.12402841  0.12087054  0.51093168  1
  V  V81  1  0.62457677  0.87443268  0.25133352  1
  V  V82  1  0.76010871  0.12003297  0.37145814  1
  V  V83  1  0.00125048  0.62736445  0.62324384  1
  V  V84  1  0.50242312  -0.00105126  0.00214157  1
  Zn  Zn85  1  0.24442348  0.62824036  0.36787114  1
  Zn  Zn86  1  0.24230774  0.00441802  0.74253633  1
  Zn  Zn87  1  0.75295460  0.49682901  0.74900051  1
  Zn  Zn88  1  0.87771667  0.62212962  0.74933390  1
  Zn  Zn89  1  0.24938564  0.88975472  0.60688056  1
  Zn  Zn90  1  0.87721328  0.37418438  0.49666491  1
  Zn  Zn91  1  0.25225898  0.62613606  0.87054611  1
  Zn  Zn92  1  0.12401648  0.74726131  0.87358420  1
  Zn  Zn93  1  0.62956447  0.37240353  0.24889463  1
  Zn  Zn94  1  0.62316125  0.37194335  0.74411670  1
  Zn  Zn95  1  0.38075667  0.25888866  0.11911770  1
  Zn  Zn96  1  0.49975110  0.74808563  0.25146846  1
  Zn  Zn97  1  0.76517341  0.37629225  0.12275420  1
  Zn  Zn98  1  0.24741996  0.24870384  0.50072550  1
  Zn  Zn99  1  0.75759834  0.62903521  0.36832125  1
  Zn  Zn100  1  0.88162320  0.50567096  0.36715547  1
  Zn  Zn101  1  0.50068456  0.12647580  0.12245640  1
  Zn  Zn102  1  0.50266096  0.13842428  0.65953177  1
  Zn  Zn103  1  0.12499254  0.88815865  0.73890332  1
  Zn  Zn104  1  0.75695885  0.24846700  0.49727678  1
  Zn  Zn105  1  -0.01195276  0.01637514  0.00181401  1
  Zn  Zn106  1  0.12876294  0.86506387  0.24963872  1
  Zn  Zn107  1  0.18450368  0.18781806  0.18425149  1
  Zn  Zn108  1  0.18937005  0.19298837  0.69123847  1
  Zn  Zn109  1  0.17973601  0.68602427  0.18804400  1
  Zn  Zn110  1  0.18458801  0.69576952  0.67940741  1
  Zn  Zn111  1  0.69430713  0.18536451  0.18673604  1
  Zn  Zn112  1  0.69406938  0.18387524  0.68680207  1
  Zn  Zn113  1  0.68454619  0.68532925  0.18756974  1
  Zn  Zn114  1  0.68412963  0.68774819  0.68494897  1
  Zn  Zn115  1  0.31067459  0.31350797  0.31017326  1
  Zn  Zn116  1  0.31226232  0.31869729  0.81727634  1
  Zn  Zn117  1  0.31333780  0.81347306  0.30882467  1
  Zn  Zn118  1  0.31048532  0.81637223  0.81219809  1
  Zn  Zn119  1  0.81783509  0.31772242  0.30828725  1
  Zn  Zn120  1  0.81317818  0.31061828  0.81004647  1
  Zn  Zn121  1  0.81564573  0.81043086  0.31269378  1
  Zn  Zn122  1  0.81327501  0.81277238  0.81198491  1
  Zn  Zn123  1  0.18484672  0.43819313  0.43623925  1
  Zn  Zn124  1  0.18533213  0.43685706  0.93790183  1
  Zn  Zn125  1  0.18621395  0.93698180  0.43584137  1
  Zn  Zn126  1  0.19526887  0.92934881  0.91050873  1
  Zn  Zn127  1  0.68867955  0.43648998  0.43857162  1
  Zn  Zn128  1  0.68506636  0.43582674  0.93611857  1
  Zn  Zn129  1  0.68562723  0.93762547  0.43809403  1
  Zn  Zn130  1  0.68891928  0.93818587  0.93544500  1
  Zn  Zn131  1  0.31005885  0.06251457  0.05764289  1
  Zn  Zn132  1  0.31345707  0.07185411  0.56382436  1
  Zn  Zn133  1  0.31029327  0.56020520  0.06176614  1
  Zn  Zn134  1  0.31406744  0.56836582  0.56203014  1
  Zn  Zn135  1  0.81077972  0.06309923  0.06704826  1
  Zn  Zn136  1  0.81036739  0.05823635  0.55957763  1
  Zn  Zn137  1  0.80879288  0.55918339  0.06125782  1
  Zn  Zn138  1  0.81618394  0.56460493  0.55984448  1
  Zn  Zn139  1  0.43512621  0.43637757  0.18765886  1
  Zn  Zn140  1  0.43798711  0.44048313  0.68860251  1
  Zn  Zn141  1  0.43749134  0.93701799  0.18812067  1
  Zn  Zn142  1  0.40969953  0.95629334  0.66740928  1
  Zn  Zn143  1  0.93838201  0.43373065  0.17732555  1
  Zn  Zn144  1  0.93388904  0.43919063  0.69070760  1
  Zn  Zn145  1  0.93942306  0.93338973  0.18520085  1
  Zn  Zn146  1  0.94092711  0.93454783  0.68700828  1
  Zn  Zn147  1  0.06600880  0.05630923  0.31731148  1
  Zn  Zn148  1  0.06810538  0.06387773  0.81655702  1
  Zn  Zn149  1  0.06077211  0.56459331  0.30888614  1
  Zn  Zn150  1  0.06215744  0.56112420  0.81323952  1
  Zn  Zn151  1  0.56698202  0.06282822  0.31297115  1
  Zn  Zn152  1  0.56800890  0.05912670  0.81415946  1
  Zn  Zn153  1  0.56385359  0.56209069  0.30993700  1
  Zn  Zn154  1  0.56568465  0.55692818  0.81117570  1
  Zn  Zn155  1  0.43623981  0.18776097  0.43760042  1
  Zn  Zn156  1  0.44054032  0.18808124  0.93134370  1
  Zn  Zn157  1  0.43571444  0.68775132  0.43531695  1
  Zn  Zn158  1  0.43628358  0.68403623  0.93509177  1
  Zn  Zn159  1  0.94260079  0.18715266  0.44054360  1
  Zn  Zn160  1  0.93966480  0.19607994  0.93504779  1
  Zn  Zn161  1  0.93466278  0.68767548  0.43502595  1
  Zn  Zn162  1  0.93582796  0.68735844  0.93913207  1
  Zn  Zn163  1  0.06615669  0.30784085  0.06978054  1
  Zn  Zn164  1  0.06159639  0.31021712  0.56078378  1
  Zn  Zn165  1  0.05984274  0.80952340  0.06452082  1
  Zn  Zn166  1  0.06963006  0.81490852  0.56183244  1
  Zn  Zn167  1  0.56507619  0.31014119  0.05641620  1
  Zn  Zn168  1  0.56482824  0.31783269  0.56073828  1
  Zn  Zn169  1  0.56477550  0.81069649  0.06107572  1
  Zn  Zn170  1  0.55777111  0.81130219  0.56467729  1
  O  O171  1  0.13106545  0.11425251  0.11192132  1
  O  O172  1  0.13508048  0.13267716  0.60961941  1
  O  O173  1  0.11761010  0.61588617  0.11663617  1
  O  O174  1  0.12006083  0.62033090  0.61416766  1
  O  O175  1  0.62758979  0.11914185  0.11442250  1
  O  O176  1  0.62052337  0.12308274  0.61717362  1
  O  O177  1  0.61848958  0.61437586  0.11885547  1
  O  O178  1  0.61100701  0.61883000  0.62680023  1
  O  O179  1  0.37896165  0.38020705  0.38151916  1
  O  O180  1  0.38521899  0.38751765  0.87417294  1
  O  O181  1  0.38936282  0.88231912  0.36576229  1
  O  O182  1  0.38456469  0.88046248  0.88279985  1
  O  O183  1  0.88723526  0.38168028  0.37780040  1
  O  O184  1  0.88336941  0.38601402  0.87017507  1
  O  O185  1  0.88455560  0.87032285  0.38754774  1
  O  O186  1  0.88391390  0.87073827  0.88386709  1
  O  O187  1  0.25464513  0.00438056  0.36788717  1
  O  O188  1  0.26339157  0.01919716  0.88612947  1
  O  O189  1  0.25396676  0.49868140  0.36473620  1
  O  O190  1  0.25647591  0.49777995  0.86751531  1
  O  O191  1  0.74315174  0.00704806  0.36706689  1
  O  O192  1  0.74617244  0.00784317  0.86680250  1
  O  O193  1  0.74548722  0.50008341  0.35972431  1
  O  O194  1  0.75725293  0.50684907  0.87497183  1
  O  O195  1  0.24224305  0.49371953  0.12978101  1
  O  O196  1  0.24833791  0.49298819  0.63073879  1
  O  O197  1  0.24401021  0.99388375  0.12690873  1
  O  O198  1  0.29435156  0.98953696  0.63880105  1
  O  O199  1  0.74070968  0.49693158  0.13066732  1
  O  O200  1  0.74380010  0.49592144  0.62018327  1
  O  O201  1  0.74429929  0.98991089  0.13407868  1
  O  O202  1  0.74079853  0.99558977  0.63161610  1
  O  O203  1  0.00212192  0.37835109  0.26111451  1
  O  O204  1  0.00741746  0.37210247  0.75295458  1
  O  O205  1  0.00014857  0.86960370  0.26128666  1
  O  O206  1  -0.00112822  0.86919631  0.76474028  1
  O  O207  1  0.49982705  0.36461814  0.25566193  1
  O  O208  1  0.50462699  0.38296326  0.76314142  1
  O  O209  1  0.50977701  0.87430168  0.25800041  1
  O  O210  1  0.51089089  0.88134598  0.76332063  1
  O  O211  1  0.49335415  0.13247951  0.25052229  1
  O  O212  1  0.49816612  0.12864219  0.76824903  1
  O  O213  1  0.49232824  0.62487004  0.24184990  1
  O  O214  1  0.49959679  0.62240249  0.74139506  1
  O  O215  1  0.99488307  0.12691675  0.25828285  1
  O  O216  1  1.00657695  0.14573233  0.76286489  1
  O  O217  1  0.99861690  0.63352594  0.24043407  1
  O  O218  1  1.00118468  0.63296433  0.74273693  1
  O  O219  1  0.36352855  0.24206810  0.00436946  1
  O  O220  1  0.37401571  0.26468372  0.50278144  1
  O  O221  1  0.36673852  0.75205238  0.00453841  1
  O  O222  1  0.36300072  0.74230168  0.50548818  1
  O  O223  1  0.86508329  0.24670849  0.00597236  1
  O  O224  1  0.87995995  0.25282297  0.51471214  1
  O  O225  1  0.85926822  0.75736410  -0.00372003  1
  O  O226  1  0.86678067  0.76007103  0.50538854  1
  O  O227  1  0.12212604  0.23997384  0.48888788  1
  O  O228  1  0.13621504  0.23573580  1.00851711  1
  O  O229  1  0.14072819  0.73916134  0.50530694  1
  O  O230  1  0.13396206  0.73994910  1.00322837  1
  O  O231  1  0.62412700  0.24262608  0.49067685  1
  O  O232  1  0.63527650  0.24074774  0.99333118  1
  O  O233  1  0.63467035  0.76165198  0.49160481  1
  O  O234  1  0.63387359  0.74356839  0.99314195  1
  O  O235  1  0.50057704  0.24910562  0.13442480  1
  O  O236  1  0.48954889  0.25834843  0.62476155  1
  O  O237  1  0.49440579  0.74263030  0.12412455  1
  O  O238  1  0.49041382  0.73582345  0.62066322  1
  O  O239  1  1.00048959  0.24713470  0.14362483  1
  O  O240  1  0.98920665  0.25348777  0.63444857  1
  O  O241  1  0.99803686  0.73677615  0.13294409  1
  O  O242  1  0.99615419  0.74843548  0.63154389  1
  O  O243  1  0.00373349  0.25475382  0.36423893  1
  O  O244  1  -0.01179730  0.26921112  0.85830440  1
  O  O245  1  -0.00216146  0.75860561  0.36503504  1
  O  O246  1  -0.00327647  0.75234403  0.86482063  1
  O  O247  1  0.50802201  0.25312992  0.36747292  1
  O  O248  1  0.51261790  0.26249571  0.88554834  1
  O  O249  1  0.50706589  0.75922015  0.37673919  1
  O  O250  1  0.50600870  0.76079677  0.88315773  1
  O  O251  1  0.24305878  0.12647425  0.49113621  1
  O  O252  1  0.24384236  0.13516269  0.99582830  1
  O  O253  1  0.24393327  0.63153968  0.49523792  1
  O  O254  1  0.24121961  0.63219891  1.00170535  1
  O  O255  1  0.73640595  0.12393322  0.49320386  1
  O  O256  1  0.74342162  0.12939241  0.99359039  1
  O  O257  1  0.75102566  0.64153633  0.50118434  1
  O  O258  1  0.74479671  0.63086778  0.99209126  1
  O  O259  1  0.24170878  0.36344479  0.00621269  1
  O  O260  1  0.25750976  0.37790744  0.50904061  1
  O  O261  1  0.25542668  0.86549720  0.00040854  1
  O  O262  1  0.24872417  0.85892809  0.49319354  1
  O  O263  1  0.74373314  0.36124130  0.00157680  1
  O  O264  1  0.75354425  0.37035034  0.50891378  1
  O  O265  1  0.75253205  0.86862471  0.00636421  1
  O  O266  1  0.75723998  0.87266570  0.50517528  1
  O  O267  1  0.13545762  0.50752028  0.23963956  1
  O  O268  1  0.13009109  0.49212917  0.74294310  1
  O  O269  1  0.13129555  0.99901243  0.23833707  1
  O  O270  1  0.12712521  1.00341051  0.74682433  1
  O  O271  1  0.62956800  0.49644787  0.23949986  1
  O  O272  1  0.63124154  0.49817773  0.73473283  1
  O  O273  1  0.63031193  0.98854411  0.24646444  1
  O  O274  1  0.63328877  0.98798238  0.74628477  1
  O  O275  1  0.37023195  0.00833845  0.25431852  1
  O  O276  1  0.37885623  -0.00507376  0.77145384  1
  O  O277  1  0.36544500  0.50400836  0.25315020  1
  O  O278  1  0.36200949  0.49471179  0.75685837  1
  O  O279  1  0.86224701  -0.00849889  0.24716319  1
  O  O280  1  0.86081196  -0.00677119  0.74264664  1
  O  O281  1  0.85917282  0.49461277  0.24347125  1
  O  O282  1  0.87061127  0.50534444  0.76133513  1
  O  O283  1  0.11811833  0.36102672  0.38078186  1
  O  O284  1  0.10953833  0.38565989  0.86412769  1
  O  O285  1  0.11178864  0.87356535  0.37283421  1
  O  O286  1  0.10139611  0.86493787  0.88947505  1
  O  O287  1  0.61944030  0.36320127  0.37545782  1
  O  O288  1  0.61968047  0.36669209  0.87070800  1
  O  O289  1  0.61703711  0.86931580  0.36793298  1
  O  O290  1  0.61909487  0.86969592  0.87053659  1
  O  O291  1  0.37591976  0.12522023  0.13739093  1
  O  O292  1  0.38028749  0.14906483  0.61941220  1
  O  O293  1  0.37930179  0.62814490  0.12805320  1
  O  O294  1  0.38866351  0.62926963  0.62587301  1
  O  O295  1  0.87475537  0.13892318  0.12101176  1
  O  O296  1  0.87015204  0.13655111  0.62238353  1
  O  O297  1  0.88837804  0.61892015  0.11654193  1
  O  O298  1  0.88312322  0.63409514  0.62480873  1
  O  O299  1  0.25054721  0.25971784  0.12110260  1
  O  O300  1  0.25964740  0.26341573  0.62341395  1
  O  O301  1  0.25421267  0.75453447  0.11660391  1
  O  O302  1  0.26550096  0.74451192  0.61398655  1
  O  O303  1  0.75804601  0.25107560  0.11761496  1
  O  O304  1  0.76348689  0.25578097  0.62426744  1
  O  O305  1  0.73970892  0.75801834  0.11540649  1
  O  O306  1  0.75291537  0.75686961  0.61865084  1
  O  O307  1  0.24089171  0.24589340  0.37443091  1
  O  O308  1  0.25715917  0.24050751  0.88374691  1
  O  O309  1  0.25778420  0.74638041  0.38460842  1
  O  O310  1  0.24906142  0.74517896  0.88812342  1
  O  O311  1  0.74121810  0.24415123  0.37245305  1
  O  O312  1  0.74579765  0.24316179  0.88095056  1
  O  O313  1  0.74225537  0.75309993  0.38292700  1
  O  O314  1  0.74447108  0.74236245  0.88256085  1
  O  O315  1  0.01748686  0.12976096  -0.01237774  1
  O  O316  1  0.00725745  0.10809248  0.49477670  1
  O  O317  1  0.00873273  0.63377823  0.01267194  1
  O  O318  1  0.00847869  0.62039619  0.50347360  1
  O  O319  1  0.51274150  0.11980064  -0.00021925  1
  O  O320  1  0.51227183  0.11707152  0.49190473  1
  O  O321  1  0.50498008  0.61424548  0.00352246  1
  O  O322  1  0.49575087  0.61287466  0.50218629  1
  O  O323  1  0.49169228  0.38538308  0.49494445  1
  O  O324  1  0.50645678  0.38612280  0.98979868  1
  O  O325  1  0.50748986  0.88813513  0.49006557  1
  O  O326  1  0.49711599  0.87894451  0.99395647  1
  O  O327  1  1.00398797  0.38550120  0.49223410  1
  O  O328  1  1.00768170  0.36376056  0.98364445  1
  O  O329  1  0.99739547  0.88087869  0.49139115  1
  O  O330  1  0.98581932  0.86639193  0.99211994  1
  O  O331  1  0.49623301  0.49549037  0.38033251  1
  O  O332  1  0.49538382  0.49423889  0.88147389  1
  O  O333  1  0.49826502  0.99380407  0.38041697  1
  O  O334  1  0.49809825  0.98915215  0.88523091  1
  O  O335  1  1.00539022  0.49274116  0.38128335  1
  O  O336  1  0.98773931  0.49093103  0.87350623  1
  O  O337  1  0.99965905  0.98378528  0.38056405  1
  O  O338  1  1.00102552  0.98675179  0.88157831  1
  O  O339  1  0.01151403  -0.00838998  0.11792276  1
  O  O340  1  0.00458308  -0.00831734  0.61075076  1
  O  O341  1  0.00943851  0.51354001  0.13405824  1
  O  O342  1  0.00590597  0.50537316  0.61744821  1
  O  O343  1  0.50803136  0.00103247  0.12003182  1
  O  O344  1  0.50147370  0.00452929  0.61506072  1
  O  O345  1  0.50404416  0.50238864  0.11802216  1
  O  O346  1  0.50484342  0.51043341  0.61947677  1
  O  O347  1  0.25117565  0.38568084  0.24070884  1
  O  O348  1  0.23938801  0.38214317  0.74389996  1
  O  O349  1  0.24897554  0.88109975  0.24115433  1
  O  O350  1  0.23144419  0.89296979  0.79418620  1
  O  O351  1  0.74630578  0.38532199  0.24462971  1
  O  O352  1  0.74870655  0.37537806  0.73602643  1
  O  O353  1  0.74309788  0.87819884  0.24569412  1
  O  O354  1  0.74197870  0.88040925  0.74628429  1
  O  O355  1  0.25713773  0.12123611  0.25307269  1
  O  O356  1  0.24593122  0.12884914  0.76783415  1
  O  O357  1  0.25492066  0.61505784  0.24712127  1
  O  O358  1  0.23709499  0.61173385  0.74912035  1
  O  O359  1  0.74352767  0.11223064  0.25937057  1
  O  O360  1  0.74462028  0.11340289  0.76083942  1
  O  O361  1  0.74453938  0.60857743  0.24631637  1
  O  O362  1  0.75087711  0.62844246  0.76311551  1
  O  O363  1  0.36955633  0.12155676  0.36459542  1
  O  O364  1  0.36463618  0.11909349  0.88316493  1
  O  O365  1  0.37372494  0.61703835  0.36549928  1
  O  O366  1  0.37288699  0.60832767  0.87696692  1
  O  O367  1  0.85791046  0.13170815  0.38605862  1
  O  O368  1  0.86370053  0.12814506  0.88017773  1
  O  O369  1  0.87019147  0.61802057  0.37733911  1
  O  O370  1  0.86747447  0.61434746  0.87685658  1
  O  O371  1  0.13315783  0.38757276  0.12079053  1
  O  O372  1  0.13282931  0.38027195  0.62871050  1
  O  O373  1  0.13141218  0.88343452  0.12122804  1
  O  O374  1  0.14206059  0.86483302  0.62944182  1
  O  O375  1  0.62312858  0.38633571  0.12390388  1
  O  O376  1  0.63493158  0.38373585  0.62398547  1
  O  O377  1  0.63288784  0.87785943  0.13284579  1
  O  O378  1  0.62661358  0.87911915  0.63318482  1
  O  O379  1  0.11079291  0.23866586  0.26067393  1
  O  O380  1  0.11128709  0.26370433  0.74112889  1
  O  O381  1  0.10607041  0.75229787  0.24337116  1
  O  O382  1  0.11224892  0.75147177  0.75231939  1
  O  O383  1  0.61728053  0.24735101  0.25736177  1
  O  O384  1  0.63261172  0.24895385  0.76300714  1
  O  O385  1  0.62491467  0.76058368  0.25818118  1
  O  O386  1  0.63049423  0.76292574  0.75627285  1
  O  O387  1  0.38440735  0.24258770  0.25031588  1
  O  O388  1  0.37207564  0.26181035  0.73658303  1
  O  O389  1  0.37644751  0.74248950  0.24150298  1
  O  O390  1  0.36433014  0.74648415  0.73997971  1
  O  O391  1  0.89020857  0.24801573  0.24717443  1
  O  O392  1  0.88565830  0.25357271  0.73681703  1
  O  O393  1  0.89165794  0.75668760  0.24748380  1
  O  O394  1  0.88445524  0.74922297  0.74280778  1
  O  O395  1  0.38116410  0.49206191  0.49565032  1
  O  O396  1  0.38521059  0.50203213  0.99341913  1
  O  O397  1  0.38850102  1.01148624  0.49067166  1
  O  O398  1  0.38291571  0.99413604  0.99524534  1
  O  O399  1  0.89217440  0.50013213  0.50041806  1
  O  O400  1  0.86993598  0.49732021  0.98561647  1
  O  O401  1  0.88867311  0.99087624  0.50542295  1
  O  O402  1  0.87380270  0.98655097  1.00572943  1
  O  O403  1  0.12619105  0.01201301  0.00629608  1
  O  O404  1  0.11413154  0.00573926  0.49494964  1
  O  O405  1  0.12972071  0.50980816  0.00992919  1
  O  O406  1  0.11871476  0.50787047  0.50444670  1
  O  O407  1  0.62370091  0.00645866  0.00498211  1
  O  O408  1  0.61729155  0.00737307  0.50691623  1
  O  O409  1  0.61743669  0.50405182  0.00647289  1
  O  O410  1  0.61496091  0.49487510  0.50971099  1
  O  O411  1  0.35936011  0.37714629  0.12413127  1
  O  O412  1  0.36998550  0.37228637  0.61791467  1
  O  O413  1  0.36986878  0.86978371  0.11915908  1
  O  O414  1  0.38045059  0.85287867  0.62445631  1
  O  O415  1  0.87988161  0.35413631  0.12472754  1
  O  O416  1  0.86683398  0.37260621  0.62150146  1
  O  O417  1  0.86095233  0.87388368  0.11730663  1
  O  O418  1  0.86978722  0.86950452  0.61560446  1
  O  O419  1  0.12990220  0.13174892  0.38281225  1
  O  O420  1  0.14313892  0.12063547  0.89070412  1
  O  O421  1  0.12565027  0.62095969  0.38621674  1
  O  O422  1  0.12547217  0.62414137  0.88740556  1
  O  O423  1  0.63171792  0.13290652  0.38183354  1
  O  O424  1  0.63444652  0.13126443  0.88640421  1
  O  O425  1  0.62697628  0.64088290  0.36853276  1
  O  O426  1  0.63244374  0.62690098  0.87878975  1
