# generated using pymatgen
data_V85Zn86O256
_symmetry_space_group_name_H-M   'P 1'
_cell_length_a   16.96223049
_cell_length_b   16.95106275
_cell_length_c   16.95379704
_cell_angle_alpha   90.20017215
_cell_angle_beta   90.01869608
_cell_angle_gamma   90.07690746
_symmetry_Int_Tables_number   1
_chemical_formula_structural   V85Zn86O256
_chemical_formula_sum   'V85 Zn86 O256'
_cell_volume   4874.65412337
_cell_formula_units_Z   1
loop_
 _symmetry_equiv_pos_site_id
 _symmetry_equiv_pos_as_xyz
  1  'x, y, z'
loop_
 _atom_site_type_symbol
 _atom_site_label
 _atom_site_symmetry_multiplicity
 _atom_site_fract_x
 _atom_site_fract_y
 _atom_site_fract_z
 _atom_site_occupancy
  V  V0  1  0.12070836  0.62372209  -0.00079328  1
  V  V1  1  0.25178564  0.24841797  0.00022722  1
  V  V2  1  0.62340912  -0.00226713  0.62467546  1
  V  V3  1  0.37977456  0.63123043  0.25188612  1
  V  V4  1  0.00286722  0.37945346  0.87495127  1
  V  V5  1  0.11635797  0.74960718  0.37105637  1
  V  V6  1  0.24711827  0.75046130  0.49889567  1
  V  V7  1  0.25278421  0.50236360  0.24927157  1
  V  V8  1  0.24969508  0.86990512  0.11622415  1
  V  V9  1  0.11921670  0.50027203  0.11935433  1
  V  V10  1  0.24878814  0.25289225  0.50560892  1
  V  V11  1  0.37277562  0.87696831  0.49163864  1
  V  V12  1  0.12495253  0.24904873  0.37237158  1
  V  V13  1  0.75588187  0.36871921  0.62691861  1
  V  V14  1  0.75224956  0.12472532  0.87520666  1
  V  V15  1  0.25337388  0.62897961  0.88056551  1
  V  V16  1  0.75124849  0.37945818  0.13219147  1
  V  V17  1  0.12934512  0.48710610  0.63034536  1
  V  V18  1  0.49704351  -0.00024968  0.49525116  1
  V  V19  1  0.50369487  0.49815192  -0.00076038  1
  V  V20  1  0.24539332  0.87651483  0.62371532  1
  V  V21  1  0.49919111  0.37219620  0.37561145  1
  V  V22  1  -0.00757462  0.12911943  0.62176176  1
  V  V23  1  -0.00458377  -0.00897149  -0.01630994  1
  V  V24  1  0.37443097  0.00708215  0.37020134  1
  V  V25  1  0.74941048  0.12559512  0.37338257  1
  V  V26  1  -0.00062522  0.38064443  0.37454311  1
  V  V27  1  0.62116548  0.37554166  0.76289714  1
  V  V28  1  0.49977771  -0.00177922  -0.00808607  1
  V  V29  1  0.62320136  0.25009741  0.37580324  1
  V  V30  1  0.62344456  0.37290906  0.25313211  1
  V  V31  1  0.12655692  0.25510143  0.86915886  1
  V  V32  1  0.12206516  -0.00033640  0.62413857  1
  V  V33  1  0.87861289  0.50786759  0.87584439  1
  V  V34  1  0.50424257  0.63177868  0.13354648  1
  V  V35  1  0.12361148  0.75146678  0.87843611  1
  V  V36  1  -0.00441127  -0.00690774  0.49570237  1
  V  V37  1  0.49538938  0.12721555  0.13694484  1
  V  V38  1  0.60635856  0.87100378  0.25207907  1
  V  V39  1  0.49602026  0.12569929  0.63246070  1
  V  V40  1  0.75205446  0.63223149  0.87907657  1
  V  V41  1  0.24845288  0.48785964  0.75049003  1
  V  V42  1  0.25315377  0.00495223  0.24755824  1
  V  V43  1  0.37288787  0.37468857  0.50640148  1
  V  V44  1  0.63043675  0.50309443  0.13433737  1
  V  V45  1  0.49839429  0.25223461  0.75912568  1
  V  V46  1  0.74948046  0.25114702  -0.00265809  1
  V  V47  1  0.11864404  0.86871774  0.24679801  1
  V  V48  1  0.38286292  0.37284423  0.00076592  1
  V  V49  1  0.74704070  0.86874950  0.61719535  1
  V  V50  1  0.87985302  0.38305161  0.00033905  1
  V  V51  1  0.00061872  0.12351873  0.11985923  1
  V  V52  1  0.63980917  0.62584901  0.50595122  1
  V  V53  1  0.63164009  0.63385992  0.00450176  1
  V  V54  1  0.37248494  0.24770842  0.63080727  1
  V  V55  1  0.12392220  0.12388032  0.49726931  1
  V  V56  1  0.37809458  0.49871177  0.87734610  1
  V  V57  1  0.61864671  0.75445448  0.87732474  1
  V  V58  1  0.87201870  0.74538896  0.62440497  1
  V  V59  1  0.37815998  0.24663512  0.13905860  1
  V  V60  1  0.25474715  0.00421485  0.74851200  1
  V  V61  1  0.75367350  -0.00195577  0.75244018  1
  V  V62  1  0.87583653  0.24994863  0.12357017  1
  V  V63  1  0.87338767  0.12264443  0.24820773  1
  V  V64  1  0.62754205  -0.00281909  0.12269149  1
  V  V65  1  -0.00232117  0.62597119  0.63596521  1
  V  V66  1  0.61773692  0.50113975  0.63215050  1
  V  V67  1  0.49770978  0.50709050  0.50922153  1
  V  V68  1  0.87315447  0.76298902  0.13107220  1
  V  V69  1  0.11625919  0.87283008  0.75384855  1
  V  V70  1  0.62474586  0.12607137  0.50058974  1
  V  V71  1  0.37508635  0.75029351  0.12029064  1
  V  V72  1  0.86018934  0.87153546  -0.01587797  1
  V  V73  1  0.74919235  -0.01034436  0.24326287  1
  V  V74  1  0.25802534  0.12465380  0.86886884  1
  V  V75  1  0.12233951  0.62412283  0.50279130  1
  V  V76  1  0.87756757  0.61130153  0.24960571  1
  V  V77  1  0.37778482  0.87425133  -0.00910762  1
  V  V78  1  0.12484022  -0.00180854  0.12158318  1
  V  V79  1  0.87480342  0.12539808  0.75028899  1
  V  V80  1  0.61531386  0.87414549  0.75127344  1
  V  V81  1  -0.00227362  0.25362821  0.74722661  1
  V  V82  1  0.12795929  0.37620518  0.24818876  1
  V  V83  1  0.75214507  0.50554755  0.75352078  1
  V  V84  1  0.37929532  0.74491605  0.62493036  1
  Zn  Zn85  1  0.49867268  0.74503412  0.74920801  1
  Zn  Zn86  1  0.25290003  0.37442142  0.12507755  1
  Zn  Zn87  1  0.37597832  0.50251123  0.37783558  1
  Zn  Zn88  1  0.62448296  0.75384475  0.37381371  1
  Zn  Zn89  1  -0.00904736  0.86985492  0.36497030  1
  Zn  Zn90  1  0.12386786  0.12291467  -0.00455260  1
  Zn  Zn91  1  0.88077249  0.36856366  0.50520884  1
  Zn  Zn92  1  -0.00888269  0.75170216  0.75781937  1
  Zn  Zn93  1  -0.00388878  0.49818276  0.50262567  1
  Zn  Zn94  1  0.85621266  0.49365107  0.37802795  1
  Zn  Zn95  1  0.38336907  -0.00323122  0.86477100  1
  Zn  Zn96  1  0.00522000  0.63471842  0.13182668  1
  Zn  Zn97  1  0.86467620  0.86514650  0.49219106  1
  Zn  Zn98  1  0.75708847  0.24400635  0.50895544  1
  Zn  Zn99  1  0.74718945  0.62213043  0.36563465  1
  Zn  Zn100  1  0.25097944  0.62600943  0.37473463  1
  Zn  Zn101  1  0.38052549  0.61601911  0.74182327  1
  Zn  Zn102  1  0.00211151  0.24856126  0.24768890  1
  Zn  Zn103  1  0.61767821  0.25516393  0.88135441  1
  Zn  Zn104  1  0.62308095  0.12651241  0.00009696  1
  Zn  Zn105  1  0.87238005  -0.00601933  0.37301865  1
  Zn  Zn106  1  0.25303019  0.12811235  0.36864444  1
  Zn  Zn107  1  0.18818319  0.18699079  0.18357277  1
  Zn  Zn108  1  0.18302949  0.18756147  0.68626774  1
  Zn  Zn109  1  0.19082248  0.68680106  0.18490073  1
  Zn  Zn110  1  0.19043815  0.68257452  0.69341953  1
  Zn  Zn111  1  0.68511400  0.18737163  0.18695535  1
  Zn  Zn112  1  0.68221187  0.18780819  0.69147251  1
  Zn  Zn113  1  0.70181711  0.69968011  0.18968827  1
  Zn  Zn114  1  0.68512267  0.68909380  0.68898813  1
  Zn  Zn115  1  0.31002473  0.31624501  0.31781086  1
  Zn  Zn116  1  0.31673427  0.31424966  0.81575993  1
  Zn  Zn117  1  0.30854161  0.81438394  0.30804511  1
  Zn  Zn118  1  0.30483861  0.81392505  0.80861565  1
  Zn  Zn119  1  0.81306733  0.30891356  0.31447003  1
  Zn  Zn120  1  0.81483663  0.31482309  0.81128129  1
  Zn  Zn121  1  0.80792007  0.80238663  0.31531811  1
  Zn  Zn122  1  0.80975289  0.81113562  0.80613548  1
  Zn  Zn123  1  0.18720121  0.43895108  0.43720199  1
  Zn  Zn124  1  0.19226757  0.43724893  0.93834823  1
  Zn  Zn125  1  0.18466840  0.93749348  0.43195635  1
  Zn  Zn126  1  0.18682816  0.93883704  0.93520707  1
  Zn  Zn127  1  0.68855405  0.44368634  0.44246118  1
  Zn  Zn128  1  0.69177190  0.44316921  0.94350989  1
  Zn  Zn129  1  0.68539042  0.94098652  0.43141868  1
  Zn  Zn130  1  0.68625653  0.93832884  0.93529905  1
  Zn  Zn131  1  0.31490830  0.06128951  0.05975121  1
  Zn  Zn132  1  0.31003079  0.06601027  0.56097940  1
  Zn  Zn133  1  0.31076790  0.56399151  0.06310637  1
  Zn  Zn134  1  0.30724467  0.56083866  0.56304430  1
  Zn  Zn135  1  0.81509384  0.05738155  0.05795185  1
  Zn  Zn136  1  0.81204124  0.05892750  0.56249497  1
  Zn  Zn137  1  0.81537129  0.56927281  0.06693117  1
  Zn  Zn138  1  0.81838546  0.55216651  0.56627190  1
  Zn  Zn139  1  0.43980129  0.43895534  0.18750904  1
  Zn  Zn140  1  0.43609422  0.43144124  0.69212297  1
  Zn  Zn141  1  0.43618813  0.94025473  0.18173845  1
  Zn  Zn142  1  0.43577597  0.93205419  0.67925762  1
  Zn  Zn143  1  0.94200837  0.43662615  0.18970679  1
  Zn  Zn144  1  0.93954678  0.44237531  0.69215501  1
  Zn  Zn145  1  0.93678681  0.93774678  0.17830491  1
  Zn  Zn146  1  0.93259557  0.93604558  0.68333739  1
  Zn  Zn147  1  0.06307348  0.05825855  0.30965934  1
  Zn  Zn148  1  0.06835003  0.06733871  0.80892437  1
  Zn  Zn149  1  0.06120964  0.56608992  0.30934739  1
  Zn  Zn150  1  0.06647045  0.56236123  0.81373011  1
  Zn  Zn151  1  0.56366744  0.05889399  0.31256581  1
  Zn  Zn152  1  0.56848033  0.06606106  0.81294692  1
  Zn  Zn153  1  0.56447871  0.55874530  0.32160947  1
  Zn  Zn154  1  0.56076831  0.56971273  0.81285258  1
  Zn  Zn155  1  0.43745280  0.18687006  0.43912227  1
  Zn  Zn156  1  0.43707339  0.18098906  0.94328455  1
  Zn  Zn157  1  0.44516877  0.68921468  0.43099157  1
  Zn  Zn158  1  0.44173362  0.68436197  0.94091694  1
  Zn  Zn159  1  0.93496473  0.19012109  0.43694343  1
  Zn  Zn160  1  0.93587390  0.18864278  0.93514666  1
  Zn  Zn161  1  0.93263171  0.68282638  0.43901494  1
  Zn  Zn162  1  0.94149496  0.69276190  0.94466324  1
  Zn  Zn163  1  0.06502329  0.31372783  0.06040762  1
  Zn  Zn164  1  0.06076648  0.31062172  0.56045973  1
  Zn  Zn165  1  0.05756127  0.80962260  0.05631528  1
  Zn  Zn166  1  0.05788954  0.80944887  0.56494901  1
  Zn  Zn167  1  0.56269959  0.31114014  0.06776582  1
  Zn  Zn168  1  0.56444923  0.31469246  0.56644862  1
  Zn  Zn169  1  0.56225669  0.81529575  0.06445993  1
  Zn  Zn170  1  0.54754589  0.79759929  0.52985286  1
  O  O171  1  0.11552648  0.11997376  0.12048737  1
  O  O172  1  0.11322454  0.11961908  0.61842691  1
  O  O173  1  0.12708008  0.61952557  0.11676256  1
  O  O174  1  0.11884939  0.62301473  0.61779113  1
  O  O175  1  0.61286476  0.11923784  0.12353212  1
  O  O176  1  0.61669230  0.11934688  0.62097226  1
  O  O177  1  0.62349113  0.62166211  0.12415927  1
  O  O178  1  0.63074892  0.60688382  0.62429934  1
  O  O179  1  0.38398081  0.37378970  0.38685286  1
  O  O180  1  0.37444722  0.38711898  0.88892619  1
  O  O181  1  0.36656966  0.88347318  0.38623165  1
  O  O182  1  0.36630837  0.87380184  0.88711953  1
  O  O183  1  0.88972031  0.37565687  0.36693099  1
  O  O184  1  0.88112570  0.38394536  0.88266810  1
  O  O185  1  0.87521086  0.87491493  0.37618960  1
  O  O186  1  0.86802536  0.87235674  0.88323931  1
  O  O187  1  0.25564237  0.00188371  0.36543560  1
  O  O188  1  0.24852946  0.00931483  0.86548506  1
  O  O189  1  0.25326535  0.50276339  0.36371386  1
  O  O190  1  0.25874784  0.50601545  0.87053347  1
  O  O191  1  0.75032303  0.00923132  0.36113614  1
  O  O192  1  0.74241415  0.01156521  0.86184059  1
  O  O193  1  0.74321804  0.50531501  0.36952079  1
  O  O194  1  0.75763832  0.50838059  0.87174308  1
  O  O195  1  0.24549864  0.49898266  0.13545415  1
  O  O196  1  0.23794788  0.50337217  0.63435049  1
  O  O197  1  0.24660328  0.99259338  0.12848207  1
  O  O198  1  0.24285105  0.99838723  0.62913370  1
  O  O199  1  0.74022814  0.48982024  0.11746142  1
  O  O200  1  0.74179326  0.49096201  0.63898144  1
  O  O201  1  0.73662077  1.01298645  0.13087273  1
  O  O202  1  0.74322563  0.99457446  0.63420716  1
  O  O203  1  0.01042221  0.36989909  0.25629640  1
  O  O204  1  -0.00776219  0.36454825  0.76207072  1
  O  O205  1  0.01573386  0.88224506  0.24515264  1
  O  O206  1  0.01319052  0.87835059  0.74459488  1
  O  O207  1  0.50933596  0.38194418  0.26358494  1
  O  O208  1  0.50984790  0.36451300  0.74983199  1
  O  O209  1  0.50691427  0.87958800  0.24804348  1
  O  O210  1  0.51177232  0.87343503  0.74390778  1
  O  O211  1  0.50053789  0.11776683  0.23588312  1
  O  O212  1  0.50642857  0.13315334  0.73877703  1
  O  O213  1  0.49362764  0.61615662  0.24293916  1
  O  O214  1  0.49168605  0.63104257  0.75152279  1
  O  O215  1  0.99207930  0.12253213  0.23731017  1
  O  O216  1  0.99308912  0.13048185  0.74240380  1
  O  O217  1  0.98683255  0.62661406  0.24948553  1
  O  O218  1  1.00652554  0.62633260  0.73900725  1
  O  O219  1  0.37057067  0.25682162  0.00479423  1
  O  O220  1  0.36815789  0.25515370  0.50786556  1
  O  O221  1  0.38321487  0.75778895  0.01150566  1
  O  O222  1  0.36418215  0.75739279  0.50469268  1
  O  O223  1  0.86711309  0.26017130  0.00328567  1
  O  O224  1  0.86850884  0.25640585  0.49667132  1
  O  O225  1  0.87742046  0.76758959  0.00044863  1
  O  O226  1  0.88036230  0.75024225  0.51636131  1
  O  O227  1  0.13182301  0.24598383  0.49286491  1
  O  O228  1  0.13703735  0.24975169  0.99135479  1
  O  O229  1  0.13078007  0.74440928  0.49479662  1
  O  O230  1  0.12631984  0.74117154  0.98904533  1
  O  O231  1  0.62864277  0.24489735  0.49367274  1
  O  O232  1  0.63703669  0.25185549  1.00055393  1
  O  O233  1  0.63385455  0.72403165  0.52821006  1
  O  O234  1  0.62173722  0.74113544  0.99654394  1
  O  O235  1  0.49399688  0.23615537  0.12217543  1
  O  O236  1  0.49367626  0.24357622  0.63273516  1
  O  O237  1  0.49330567  0.73841742  0.12384025  1
  O  O238  1  0.48003164  0.75707005  0.61802993  1
  O  O239  1  0.99599186  0.24058337  0.12294496  1
  O  O240  1  1.00758453  0.23992956  0.63421421  1
  O  O241  1  0.98369000  0.74654654  0.11249231  1
  O  O242  1  0.99389290  0.74078539  0.62991638  1
  O  O243  1  0.01297171  0.25640695  0.37256027  1
  O  O244  1  0.00717066  0.25614347  0.86856709  1
  O  O245  1  0.01384561  0.75186218  0.38412792  1
  O  O246  1  0.01750985  0.74057998  0.87058514  1
  O  O247  1  0.51033441  0.25982694  0.38404535  1
  O  O248  1  0.49717078  0.24051802  0.86350159  1
  O  O249  1  0.52159111  0.76670760  0.41849074  1
  O  O250  1  0.51477272  0.74678296  0.87666854  1
  O  O251  1  0.24245946  0.13586803  0.49630441  1
  O  O252  1  0.25038588  0.13434989  0.99117754  1
  O  O253  1  0.24019927  0.63389500  0.49902691  1
  O  O254  1  0.24327921  0.62093813  0.98870710  1
  O  O255  1  0.74192172  0.12157360  0.49359090  1
  O  O256  1  0.75371955  0.13407814  0.99251862  1
  O  O257  1  0.73956087  0.61070918  0.50455734  1
  O  O258  1  0.73903282  0.61726635  0.99245622  1
  O  O259  1  0.26245467  0.36411870  0.00092658  1
  O  O260  1  0.25970839  0.36391778  0.49369197  1
  O  O261  1  0.25916686  0.88329926  0.01073888  1
  O  O262  1  0.25208621  0.86942332  0.50295743  1
  O  O263  1  0.75824603  0.36916313  0.00909635  1
  O  O264  1  0.74286950  0.37618144  0.52198381  1
  O  O265  1  0.76184172  0.88512006  0.00003002  1
  O  O266  1  0.74371094  0.88414910  0.51330342  1
  O  O267  1  0.13554723  0.49835064  0.24200504  1
  O  O268  1  0.13297294  0.50351362  0.73797132  1
  O  O269  1  0.13353047  0.99031890  0.24219683  1
  O  O270  1  0.13211409  0.99385901  0.74401147  1
  O  O271  1  0.62103624  0.49184397  0.24080799  1
  O  O272  1  0.62932748  0.49381399  0.75095910  1
  O  O273  1  0.63001692  0.99354439  0.24159381  1
  O  O274  1  0.63164228  0.99375986  0.74506220  1
  O  O275  1  0.36488805  -0.01085616  0.25920374  1
  O  O276  1  0.35962059  -0.01091579  0.74784277  1
  O  O277  1  0.36929400  0.50997992  0.24937335  1
  O  O278  1  0.37029729  0.49582530  0.76129571  1
  O  O279  1  0.86744709  0.00947136  0.24312629  1
  O  O280  1  0.86357450  0.01028418  0.74418990  1
  O  O281  1  0.87723384  0.50773690  0.25103858  1
  O  O282  1  0.86377653  0.49703688  0.76421289  1
  O  O283  1  0.12172880  0.36641609  0.36978808  1
  O  O284  1  0.11594812  0.36643612  0.88283889  1
  O  O285  1  0.12402420  0.86646343  0.36334357  1
  O  O286  1  0.13483955  0.86348589  0.86601793  1
  O  O287  1  0.61922027  0.36912040  0.37211992  1
  O  O288  1  0.63279108  0.37642782  0.86733214  1
  O  O289  1  0.62691458  0.88111114  0.35429041  1
  O  O290  1  0.63370146  0.86492117  0.86427955  1
  O  O291  1  0.38703489  0.13091038  0.12072352  1
  O  O292  1  0.38453189  0.13576592  0.61916276  1
  O  O293  1  0.38362739  0.63124911  0.12968118  1
  O  O294  1  0.36544462  0.64187261  0.62196703  1
  O  O295  1  0.88137788  0.12864322  0.12906273  1
  O  O296  1  0.88413873  0.12247121  0.63352575  1
  O  O297  1  0.88371533  0.62664236  0.13479078  1
  O  O298  1  0.88752906  0.62829791  0.62071759  1
  O  O299  1  0.25914027  0.24807389  0.11439116  1
  O  O300  1  0.25716958  0.24326917  0.61606873  1
  O  O301  1  0.26152781  0.75962677  0.12642196  1
  O  O302  1  0.25208730  0.75559472  0.61415996  1
  O  O303  1  0.75430632  0.25792540  0.11658163  1
  O  O304  1  0.74370265  0.26489314  0.63199327  1
  O  O305  1  0.77424902  0.74111174  0.11316540  1
  O  O306  1  0.75677855  0.75963243  0.63322118  1
  O  O307  1  0.24116654  0.24826453  0.38341835  1
  O  O308  1  0.24609126  0.24580055  0.87877967  1
  O  O309  1  0.24160870  0.75078389  0.38587314  1
  O  O310  1  0.24207728  0.73636686  0.86677434  1
  O  O311  1  0.73731864  0.24451089  0.37600656  1
  O  O312  1  0.75221557  0.24570326  0.88438668  1
  O  O313  1  0.73579251  0.73714131  0.36956952  1
  O  O314  1  0.74003104  0.73698077  0.86732981  1
  O  O315  1  -0.00375910  0.11809137  0.00741752  1
  O  O316  1  0.00311864  0.11874270  0.50515008  1
  O  O317  1  0.01816252  0.62124819  -0.00253123  1
  O  O318  1  0.01163675  0.62102873  0.50836776  1
  O  O319  1  0.50309255  0.11503117  0.00900587  1
  O  O320  1  0.50398252  0.11869391  0.51032336  1
  O  O321  1  0.51142383  0.61746776  0.01304705  1
  O  O322  1  0.50121241  0.60892263  0.50357987  1
  O  O323  1  0.49266445  0.38029705  0.49593607  1
  O  O324  1  0.49474763  0.38553499  1.00871389  1
  O  O325  1  0.48532975  0.89416115  0.51211492  1
  O  O326  1  0.49018212  0.88674015  1.00695500  1
  O  O327  1  1.00270608  0.37524792  0.48787080  1
  O  O328  1  0.98920076  0.36780609  0.98901463  1
  O  O329  1  1.00083568  0.88700530  0.50059145  1
  O  O330  1  0.99877003  0.88882702  0.99322184  1
  O  O331  1  0.49853475  0.48789400  0.38934123  1
  O  O332  1  0.49337615  0.50838004  0.89136273  1
  O  O333  1  0.49079084  1.00725518  0.38690077  1
  O  O334  1  0.50025338  1.00875801  0.88563725  1
  O  O335  1  1.01041888  0.48606007  0.37678613  1
  O  O336  1  0.99183568  0.49043196  0.86650897  1
  O  O337  1  0.99805778  0.99693682  0.38297596  1
  O  O338  1  1.00438967  1.01148355  0.88626480  1
  O  O339  1  0.00559846  0.00833292  0.11379615  1
  O  O340  1  0.00240048  0.00943391  0.61688917  1
  O  O341  1  0.01719249  0.50054713  0.12894501  1
  O  O342  1  0.01329288  0.50627136  0.62753262  1
  O  O343  1  0.50478208  0.01116963  0.11638104  1
  O  O344  1  0.50131552  0.00969991  0.61916815  1
  O  O345  1  0.51010335  0.50918686  0.11909780  1
  O  O346  1  0.50750231  0.48894081  0.62139036  1
  O  O347  1  0.24657961  0.38564989  0.24915400  1
  O  O348  1  0.25095252  0.38784958  0.75800069  1
  O  O349  1  0.24159050  0.88265919  0.23709613  1
  O  O350  1  0.23787538  0.88485321  0.74269817  1
  O  O351  1  0.74262160  0.36946973  0.23844848  1
  O  O352  1  0.74242218  0.38330154  0.74705487  1
  O  O353  1  0.74824056  0.88936470  0.24666949  1
  O  O354  1  0.74178959  0.88422168  0.74156534  1
  O  O355  1  0.24504025  0.10928821  0.24709940  1
  O  O356  1  0.24256860  0.11535866  0.75541823  1
  O  O357  1  0.26140078  0.61861507  0.25040415  1
  O  O358  1  0.25863813  0.61308280  0.76082869  1
  O  O359  1  0.75691295  0.12054101  0.25218719  1
  O  O360  1  0.75560329  0.12033332  0.75380588  1
  O  O361  1  0.77167020  0.62732526  0.24447423  1
  O  O362  1  0.74108383  0.61253651  0.76277146  1
  O  O363  1  0.37208614  0.11289791  0.37870374  1
  O  O364  1  0.36124815  0.12260195  0.87578530  1
  O  O365  1  0.37618680  0.62547094  0.36579764  1
  O  O366  1  0.36922321  0.61249040  0.88352597  1
  O  O367  1  0.87079380  0.12403150  0.36070472  1
  O  O368  1  0.86369644  0.12861650  0.86407642  1
  O  O369  1  0.87614159  0.62063480  0.36219567  1
  O  O370  1  0.86727345  0.61642433  0.88901964  1
  O  O371  1  0.12995909  0.38168328  0.12873721  1
  O  O372  1  0.12198872  0.38867821  0.62151272  1
  O  O373  1  0.13230403  0.87562897  0.12641072  1
  O  O374  1  0.12791510  0.87961655  0.63119358  1
  O  O375  1  0.63044784  0.38181792  0.13376769  1
  O  O376  1  0.63206352  0.38325336  0.63967303  1
  O  O377  1  0.61804842  0.88993845  0.13407020  1
  O  O378  1  0.63143957  0.88029836  0.63385377  1
  O  O379  1  0.12890054  0.25498059  0.25749642  1
  O  O380  1  0.11363718  0.24626859  0.75973758  1
  O  O381  1  0.13454658  0.75696001  0.25896271  1
  O  O382  1  0.12625160  0.75856899  0.75609265  1
  O  O383  1  0.62694205  0.26173238  0.26001577  1
  O  O384  1  0.61572267  0.25863390  0.75503281  1
  O  O385  1  0.62513707  0.76907622  0.24028085  1
  O  O386  1  0.62183014  0.75787111  0.75758159  1
  O  O387  1  0.36720664  0.25522420  0.23777542  1
  O  O388  1  0.38281254  0.25935196  0.73939783  1
  O  O389  1  0.37098713  0.74000187  0.23990898  1
  O  O390  1  0.37205413  0.75813072  0.73124553  1
  O  O391  1  0.87626190  0.23830639  0.24189301  1
  O  O392  1  0.88624465  0.23955675  0.75448467  1
  O  O393  1  0.87702582  0.75323457  0.23481972  1
  O  O394  1  0.87765174  0.75463874  0.73410590  1
  O  O395  1  0.37820295  0.49076527  0.50349856  1
  O  O396  1  0.38311704  0.49295980  0.99950147  1
  O  O397  1  0.37607481  0.99588112  0.49229349  1
  O  O398  1  0.38315709  0.99163761  0.99620701  1
  O  O399  1  0.87981366  0.48670041  0.49578262  1
  O  O400  1  0.86883477  0.48966484  0.99257884  1
  O  O401  1  0.88450074  0.99805525  0.49665093  1
  O  O402  1  0.88761565  0.98843899  1.00180391  1
  O  O403  1  0.11415275  0.00146336  0.00324168  1
  O  O404  1  0.11770236  0.00443887  0.50313813  1
  O  O405  1  0.13606670  0.50669702  0.01049458  1
  O  O406  1  0.13018234  0.50839793  0.51342334  1
  O  O407  1  0.61770390  0.00046453  0.00669457  1
  O  O408  1  0.61398507  0.00498815  0.50323082  1
  O  O409  1  0.61987229  0.50792922  0.01110397  1
  O  O410  1  0.61502857  0.50332389  0.51428444  1
  O  O411  1  0.37697362  0.36655343  0.11713718  1
  O  O412  1  0.37961694  0.36276059  0.61432969  1
  O  O413  1  0.36894750  0.86815774  0.11739959  1
  O  O414  1  0.36359254  0.86856558  0.61094921  1
  O  O415  1  0.87019730  0.37261029  0.11967419  1
  O  O416  1  0.85860738  0.38139220  0.63254606  1
  O  O417  1  0.87658251  0.86771039  0.11376990  1
  O  O418  1  0.86347014  0.86822314  0.61985691  1
  O  O419  1  0.12415391  0.13438865  0.37731562  1
  O  O420  1  0.13522037  0.13843997  0.87654368  1
  O  O421  1  0.12658677  0.63202429  0.38443967  1
  O  O422  1  0.13496936  0.62793017  0.88050609  1
  O  O423  1  0.62719807  0.13247183  0.37862913  1
  O  O424  1  0.63979025  0.13325790  0.87744703  1
  O  O425  1  0.62038488  0.62338610  0.39856379  1
  O  O426  1  0.63210112  0.63173816  0.88657611  1
