# generated using pymatgen
data_V85Zn86O256
_symmetry_space_group_name_H-M   'P 1'
_cell_length_a   16.94615531
_cell_length_b   16.95223816
_cell_length_c   16.94866868
_cell_angle_alpha   90.04428776
_cell_angle_beta   89.95304594
_cell_angle_gamma   89.86354536
_symmetry_Int_Tables_number   1
_chemical_formula_structural   V85Zn86O256
_chemical_formula_sum   'V85 Zn86 O256'
_cell_volume   4868.91630872
_cell_formula_units_Z   1
loop_
 _symmetry_equiv_pos_site_id
 _symmetry_equiv_pos_as_xyz
  1  'x, y, z'
loop_
 _atom_site_type_symbol
 _atom_site_label
 _atom_site_symmetry_multiplicity
 _atom_site_fract_x
 _atom_site_fract_y
 _atom_site_fract_z
 _atom_site_occupancy
  V  V0  1  0.11969367  0.75437655  0.37539643  1
  V  V1  1  0.63099308  0.87447779  0.24364972  1
  V  V2  1  0.75495058  0.50290434  0.76671292  1
  V  V3  1  0.12880651  0.36927973  0.25175710  1
  V  V4  1  0.37306887  0.75176078  0.62543024  1
  V  V5  1  0.37511906  0.62490749  0.74999892  1
  V  V6  1  0.62227614  0.25529265  0.87294669  1
  V  V7  1  0.24919134  0.25191867  0.00849907  1
  V  V8  1  0.11911200  0.49998709  0.62201419  1
  V  V9  1  0.87895128  0.24327611  0.62392587  1
  V  V10  1  0.38221959  0.49202121  0.87393778  1
  V  V11  1  0.88096418  0.12326171  0.24627573  1
  V  V12  1  0.37585635  0.62719465  0.24570522  1
  V  V13  1  0.24840611  0.00399288  0.75706375  1
  V  V14  1  0.86357818  0.87527281  0.00490946  1
  V  V15  1  0.62015818  0.37105460  0.26314512  1
  V  V16  1  0.62324107  0.62697284  0.49868689  1
  V  V17  1  0.26341651  0.75214931  0.00979766  1
  V  V18  1  0.87317981  0.62275657  0.76492920  1
  V  V19  1  0.50555885  0.24317929  0.26174206  1
  V  V20  1  0.49818038  0.62603533  0.62391925  1
  V  V21  1  0.24864189  0.37577013  0.62339447  1
  V  V22  1  0.38629497  0.24750887  0.12489209  1
  V  V23  1  0.86846716  -0.00136048  0.86906752  1
  V  V24  1  -0.00016135  0.37178686  0.87243695  1
  V  V25  1  0.24957891  0.49957784  0.74915434  1
  V  V26  1  0.12533260  0.74867247  0.87610450  1
  V  V27  1  0.11953366  0.00551961  0.62538817  1
  V  V28  1  -0.00779199  0.75018684  0.74728759  1
  V  V29  1  0.49635932  0.75076106  0.24217426  1
  V  V30  1  0.25269844  0.49310522  0.24310519  1
  V  V31  1  0.37379905  -0.00006013  0.37437637  1
  V  V32  1  0.13116804  0.24567249  0.87379420  1
  V  V33  1  0.49945287  0.87826802  0.87553861  1
  V  V34  1  -0.00211018  0.87404442  0.87760017  1
  V  V35  1  0.88013809  -0.00501925  0.37261832  1
  V  V36  1  0.62115647  0.00518195  0.12697395  1
  V  V37  1  0.50083479  0.87489292  0.37403402  1
  V  V38  1  0.37175768  0.37539141  0.00435810  1
  V  V39  1  0.50463522  0.49597238  0.00065511  1
  V  V40  1  0.50569967  0.75392182  0.75443385  1
  V  V41  1  0.63264664  -0.00000602  0.63493211  1
  V  V42  1  0.37411525  0.24687881  0.62352426  1
  V  V43  1  0.25215662  0.62448492  0.87459521  1
  V  V44  1  0.88317182  0.24446093  0.12383586  1
  V  V45  1  -0.00709668  0.62645303  0.62749204  1
  V  V46  1  0.12982660  0.49347423  0.12301593  1
  V  V47  1  0.12890367  0.12361278  -0.00160495  1
  V  V48  1  0.74949819  0.37051057  0.12593149  1
  V  V49  1  0.25178096  -0.00367873  0.24444043  1
  V  V50  1  0.24900810  0.62518355  0.37391352  1
  V  V51  1  0.12262059  0.12982552  0.49658816  1
  V  V52  1  0.75500094  0.49811301  0.25169219  1
  V  V53  1  0.50576489  0.62069924  0.12387473  1
  V  V54  1  0.37452271  0.87474312  0.50022781  1
  V  V55  1  0.73814612  0.73184000  -0.00584646  1
  V  V56  1  0.36906808  0.12618116  0.75844862  1
  V  V57  1  0.75238060  -0.00350910  0.24464374  1
  V  V58  1  0.24610045  0.13036656  0.37186697  1
  V  V59  1  -0.00092655  0.49900633  -0.00378541  1
  V  V60  1  -0.00034238  0.75244325  0.25244354  1
  V  V61  1  0.12515688  0.87486809  0.74928970  1
  V  V62  1  0.12329229  0.62325304  0.50078430  1
  V  V63  1  0.87488092  0.62243790  0.24846966  1
  V  V64  1  0.49614258  0.00457160  0.00253437  1
  V  V65  1  0.62807464  0.74866613  0.37427000  1
  V  V66  1  0.87636953  0.37586423  -0.00390812  1
  V  V67  1  -0.00067338  0.38425161  0.38006675  1
  V  V68  1  -0.00041568  0.00118587  0.49755403  1
  V  V69  1  0.12447844  0.00023051  0.12397911  1
  V  V70  1  0.62218185  0.12822992  0.00366895  1
  V  V71  1  0.00479924  0.24742994  0.25591410  1
  V  V72  1  0.50441713  0.00188805  0.50248840  1
  V  V73  1  0.50074591  0.49678110  0.49738873  1
  V  V74  1  0.75692714  0.38134981  0.61829228  1
  V  V75  1  0.12542171  0.62439721  -0.00034512  1
  V  V76  1  0.86828465  0.75541910  0.12558537  1
  V  V77  1  0.49917487  0.25727662  0.75357359  1
  V  V78  1  0.37946898  0.49568590  0.37320112  1
  V  V79  1  0.87494809  0.86811256  0.50217354  1
  V  V80  1  -0.00268987  0.00512385  0.00447950  1
  V  V81  1  0.74827215  0.24910391  0.49395995  1
  V  V82  1  0.37838987  0.37283723  0.49637740  1
  V  V83  1  0.74864195  0.12106110  0.86512507  1
  V  V84  1  0.12561964  0.87413118  0.24698773  1
  Zn  Zn85  1  0.61996474  0.13486018  0.49432357  1
  Zn  Zn86  1  0.38369992  0.12055743  0.24502404  1
  Zn  Zn87  1  0.87526868  0.49022415  0.40076429  1
  Zn  Zn88  1  0.00279758  0.24044666  0.74391957  1
  Zn  Zn89  1  0.24450733  0.25276915  0.49246669  1
  Zn  Zn90  1  0.36636990  0.00499298  0.88348841  1
  Zn  Zn91  1  0.24934839  0.75282122  0.49759008  1
  Zn  Zn92  1  0.63386247  0.87543854  0.75896451  1
  Zn  Zn93  1  0.62915850  0.49932294  0.12065570  1
  Zn  Zn94  1  0.50271085  0.12593939  0.62611434  1
  Zn  Zn95  1  0.75217436  0.24838864  -0.00317229  1
  Zn  Zn96  1  0.75118019  0.62045743  0.37819183  1
  Zn  Zn97  1  0.62568587  0.50115003  0.62946442  1
  Zn  Zn98  1  0.75690661  0.75011027  0.50701231  1
  Zn  Zn99  1  0.87806688  0.11910865  0.74483890  1
  Zn  Zn100  1  0.12299700  0.37247025  0.74812657  1
  Zn  Zn101  1  0.37315593  0.87508483  0.01252343  1
  Zn  Zn102  1  0.00095933  0.62475314  0.12371365  1
  Zn  Zn103  1  0.74521946  0.12958003  0.37045096  1
  Zn  Zn104  1  0.24822430  0.87608987  0.62602224  1
  Zn  Zn105  1  0.76081911  0.87002745  0.64284588  1
  Zn  Zn106  1  0.62248585  0.38239787  0.75302956  1
  Zn  Zn107  1  0.18797551  0.18297740  0.18310535  1
  Zn  Zn108  1  0.18690313  0.18675596  0.68513048  1
  Zn  Zn109  1  0.18755590  0.68298899  0.18592469  1
  Zn  Zn110  1  0.18662240  0.68856754  0.68849555  1
  Zn  Zn111  1  0.69033239  0.18730062  0.18946142  1
  Zn  Zn112  1  0.68663212  0.18714754  0.68212069  1
  Zn  Zn113  1  0.68785149  0.68642836  0.18192002  1
  Zn  Zn114  1  0.69205013  0.68822116  0.68659701  1
  Zn  Zn115  1  0.31739348  0.31094140  0.30910516  1
  Zn  Zn116  1  0.30943190  0.31323114  0.81356928  1
  Zn  Zn117  1  0.31036449  0.81298983  0.30903776  1
  Zn  Zn118  1  0.31550872  0.81772411  0.82057968  1
  Zn  Zn119  1  0.81934529  0.31453876  0.31236476  1
  Zn  Zn120  1  0.80914073  0.31103357  0.80861710  1
  Zn  Zn121  1  0.81411177  0.81246840  0.31716887  1
  Zn  Zn122  1  0.80623045  0.80835132  0.81949765  1
  Zn  Zn123  1  0.18772180  0.43764258  0.43430718  1
  Zn  Zn124  1  0.18952869  0.43386797  0.93508398  1
  Zn  Zn125  1  0.18666660  0.93930352  0.43389431  1
  Zn  Zn126  1  0.18668758  0.93206184  0.93810731  1
  Zn  Zn127  1  0.68856979  0.43694063  0.43749380  1
  Zn  Zn128  1  0.68870416  0.43618468  0.93891282  1
  Zn  Zn129  1  0.69099279  0.94050272  0.43419309  1
  Zn  Zn130  1  0.68483868  0.93610126  0.93804396  1
  Zn  Zn131  1  0.30987148  0.06853416  0.06588095  1
  Zn  Zn132  1  0.30720720  0.06200925  0.56426275  1
  Zn  Zn133  1  0.31579160  0.56639736  0.05984435  1
  Zn  Zn134  1  0.30957305  0.56315769  0.56116679  1
  Zn  Zn135  1  0.80760480  0.06350083  0.06051294  1
  Zn  Zn136  1  0.81047843  0.06237956  0.56027176  1
  Zn  Zn137  1  0.81488730  0.56102659  0.06508029  1
  Zn  Zn138  1  0.81231872  0.56560205  0.56761200  1
  Zn  Zn139  1  0.43882453  0.43125686  0.18366244  1
  Zn  Zn140  1  0.43647243  0.43718704  0.68364756  1
  Zn  Zn141  1  0.43669031  0.93529092  0.18278048  1
  Zn  Zn142  1  0.43862941  0.94027811  0.68844411  1
  Zn  Zn143  1  0.94184968  0.43413911  0.18635334  1
  Zn  Zn144  1  0.93482871  0.43776705  0.68868443  1
  Zn  Zn145  1  0.94216115  0.93421745  0.18629714  1
  Zn  Zn146  1  0.93980119  0.93750469  0.68457436  1
  Zn  Zn147  1  0.06271207  0.06205622  0.31368172  1
  Zn  Zn148  1  0.05793684  0.06315269  0.81447077  1
  Zn  Zn149  1  0.06306863  0.56351404  0.31037833  1
  Zn  Zn150  1  0.06276670  0.56086372  0.81229236  1
  Zn  Zn151  1  0.56570070  0.06420829  0.31779078  1
  Zn  Zn152  1  0.55584373  0.06889816  0.81501085  1
  Zn  Zn153  1  0.56491269  0.55947021  0.30948989  1
  Zn  Zn154  1  0.57335135  0.57027295  0.81611388  1
  Zn  Zn155  1  0.43494386  0.18461905  0.43383263  1
  Zn  Zn156  1  0.43835655  0.18976461  0.93712319  1
  Zn  Zn157  1  0.43926023  0.68759840  0.43293355  1
  Zn  Zn158  1  0.46300004  0.67434628  0.92636370  1
  Zn  Zn159  1  0.93384110  0.18852250  0.43714920  1
  Zn  Zn160  1  0.93916278  0.18521087  0.93303752  1
  Zn  Zn161  1  0.92650062  0.66435385  0.44845564  1
  Zn  Zn162  1  0.93580058  0.68931525  0.94043874  1
  Zn  Zn163  1  0.06312654  0.31157027  0.06465967  1
  Zn  Zn164  1  0.06051872  0.31289718  0.56035715  1
  Zn  Zn165  1  0.06160374  0.81318155  0.06400638  1
  Zn  Zn166  1  0.05857707  0.81485720  0.56100774  1
  Zn  Zn167  1  0.56085761  0.31468886  0.06297341  1
  Zn  Zn168  1  0.56638016  0.31614423  0.56858009  1
  Zn  Zn169  1  0.55966226  0.81637156  0.06190388  1
  Zn  Zn170  1  0.56959293  0.81362956  0.56878421  1
  O  O171  1  0.12473855  0.11217881  0.11296701  1
  O  O172  1  0.13187792  0.11317985  0.61269661  1
  O  O173  1  0.12282018  0.61038744  0.11955915  1
  O  O174  1  0.12096417  0.61806582  0.62079320  1
  O  O175  1  0.63214917  0.11806550  0.11545906  1
  O  O176  1  0.62306050  0.11420855  0.61537086  1
  O  O177  1  0.61109615  0.61651753  0.13385844  1
  O  O178  1  0.61573987  0.62305009  0.61321831  1
  O  O179  1  0.37012885  0.38486272  0.38443297  1
  O  O180  1  0.36870741  0.38388004  0.88467706  1
  O  O181  1  0.37999469  0.87831372  0.38138303  1
  O  O182  1  0.38253770  0.88622510  0.88612824  1
  O  O183  1  0.89209806  0.38024371  0.36967926  1
  O  O184  1  0.88323408  0.36412914  0.88807672  1
  O  O185  1  0.87544818  0.88698343  0.38201675  1
  O  O186  1  0.87899962  0.88126191  0.88676251  1
  O  O187  1  0.25435478  0.00641678  0.36472459  1
  O  O188  1  0.24639003  -0.00258131  0.86197706  1
  O  O189  1  0.25926646  0.50528299  0.36515400  1
  O  O190  1  0.25709811  0.50453125  0.86912742  1
  O  O191  1  0.76124034  0.00118784  0.36063191  1
  O  O192  1  0.75828364  0.00809355  0.88399615  1
  O  O193  1  0.75714394  0.49866512  0.36424727  1
  O  O194  1  0.75067219  0.49820367  0.86546495  1
  O  O195  1  0.24467546  0.50470087  0.13424539  1
  O  O196  1  0.24242391  0.49617839  0.62905921  1
  O  O197  1  0.23961200  1.00464827  0.13477349  1
  O  O198  1  0.23930121  0.99650130  0.63458715  1
  O  O199  1  0.75121907  0.48738087  0.13355270  1
  O  O200  1  0.74986567  0.49044449  0.62606297  1
  O  O201  1  0.74053278  1.00204191  0.13677627  1
  O  O202  1  0.73519363  0.99703112  0.61895484  1
  O  O203  1  0.00984672  0.36760848  0.25536766  1
  O  O204  1  -0.00094561  0.37328731  0.76281203  1
  O  O205  1  0.01097050  0.86337642  0.24886002  1
  O  O206  1  0.00316266  0.86702512  0.75505419  1
  O  O207  1  0.51582276  0.36968045  0.24766995  1
  O  O208  1  0.50073068  0.36241995  0.74372097  1
  O  O209  1  0.50953495  0.86793102  0.25500122  1
  O  O210  1  0.49862303  0.87084978  0.75779664  1
  O  O211  1  0.50403563  0.13882470  0.25132638  1
  O  O212  1  0.48666434  0.13679111  0.74600495  1
  O  O213  1  0.49385093  0.62988195  0.24576774  1
  O  O214  1  0.49184015  0.63292109  0.74148721  1
  O  O215  1  0.99097941  0.13193184  0.25383246  1
  O  O216  1  0.99112880  0.12885373  0.75638138  1
  O  O217  1  0.99347526  0.63299779  0.24634743  1
  O  O218  1  0.99479119  0.63072180  0.74681350  1
  O  O219  1  0.37023412  0.25498265  0.00447060  1
  O  O220  1  0.37614502  0.25781234  0.50616990  1
  O  O221  1  0.36261219  0.74073289  -0.00649189  1
  O  O222  1  0.37713054  0.75734253  0.50577668  1
  O  O223  1  0.87785032  0.25620794  0.00858188  1
  O  O224  1  0.86477593  0.24858499  0.51353658  1
  O  O225  1  0.86969384  0.75620427  0.00817137  1
  O  O226  1  0.87912834  0.76486567  0.49011394  1
  O  O227  1  0.12655509  0.23465562  0.50676785  1
  O  O228  1  0.13030884  0.24352386  0.99831754  1
  O  O229  1  0.12776914  0.74733424  0.49126938  1
  O  O230  1  0.12706950  0.74300955  0.99419800  1
  O  O231  1  0.64273666  0.25416296  0.50791755  1
  O  O232  1  0.62319826  0.24372668  0.99259433  1
  O  O233  1  0.61097371  0.74104022  0.48656934  1
  O  O234  1  0.64187175  0.75487399  1.01425852  1
  O  O235  1  0.49269222  0.25389851  0.13312672  1
  O  O236  1  0.48892441  0.24963511  0.63100834  1
  O  O237  1  0.50752881  0.74006380  0.13742053  1
  O  O238  1  0.48922896  0.74754917  0.63083326  1
  O  O239  1  0.98975614  0.25618273  0.13650789  1
  O  O240  1  0.98245280  0.25954109  0.62392711  1
  O  O241  1  0.99243389  0.74756803  0.13482433  1
  O  O242  1  1.00853244  0.74098430  0.63858505  1
  O  O243  1  -0.00550080  0.25970013  0.36136510  1
  O  O244  1  0.01172348  0.25896275  0.87898112  1
  O  O245  1  0.01242576  0.73959022  0.36328521  1
  O  O246  1  0.00501117  0.75407539  0.86819282  1
  O  O247  1  0.49447452  0.25230152  0.36071315  1
  O  O248  1  0.50960932  0.24530374  0.86512725  1
  O  O249  1  0.50876091  0.75309293  0.36252346  1
  O  O250  1  0.48191149  0.76851084  0.86249059  1
  O  O251  1  0.24240141  0.12359462  0.48894284  1
  O  O252  1  0.23830260  0.13412145  0.99987654  1
  O  O253  1  0.24047052  0.62896815  0.49388159  1
  O  O254  1  0.24477203  0.63106620  0.99337995  1
  O  O255  1  0.75063186  0.14143735  0.49834960  1
  O  O256  1  0.73766627  0.12743353  0.99183085  1
  O  O257  1  0.73191992  0.62835621  0.49951581  1
  O  O258  1  0.74862075  0.63159455  1.00843681  1
  O  O259  1  0.25902071  0.36541169  -0.00124279  1
  O  O260  1  0.25966431  0.37402197  0.50300007  1
  O  O261  1  0.25121354  0.85650880  -0.00572572  1
  O  O262  1  0.26378234  0.87606323  0.49913106  1
  O  O263  1  0.75992490  0.37355385  0.00840153  1
  O  O264  1  0.74962991  0.37126160  0.51169524  1
  O  O265  1  0.76136508  0.87086451  -0.00099139  1
  O  O266  1  0.76800076  0.87789705  0.49478709  1
  O  O267  1  0.13427741  0.49376752  0.24224059  1
  O  O268  1  0.13126196  0.49896097  0.73936380  1
  O  O269  1  0.12849939  0.99350792  0.24350644  1
  O  O270  1  0.12797669  0.99694279  0.74415311  1
  O  O271  1  0.63477965  0.48593105  0.24925962  1
  O  O272  1  0.63804068  0.50415440  0.75051111  1
  O  O273  1  0.63189857  0.99454769  0.24559983  1
  O  O274  1  0.61754737  1.00824248  0.73637688  1
  O  O275  1  0.36774245  -0.00034928  0.25379742  1
  O  O276  1  0.36541587  0.01001131  0.74801610  1
  O  O277  1  0.37170035  0.50186159  0.25584616  1
  O  O278  1  0.37124445  0.50304272  0.75501355  1
  O  O279  1  0.87304297  0.00298966  0.25111416  1
  O  O280  1  0.88040384  -0.00385765  0.76625454  1
  O  O281  1  0.86883546  0.50742294  0.24359075  1
  O  O282  1  0.86270869  0.50721968  0.74878519  1
  O  O283  1  0.11826252  0.37964606  0.35996725  1
  O  O284  1  0.11709987  0.36491938  0.87450603  1
  O  O285  1  0.12891110  0.86449707  0.36366911  1
  O  O286  1  0.11628367  0.86946644  0.86886324  1
  O  O287  1  0.62976368  0.37324319  0.36180001  1
  O  O288  1  0.63317870  0.35921364  0.87176833  1
  O  O289  1  0.62081809  0.86798826  0.36660789  1
  O  O290  1  0.60629504  0.88430771  0.87408164  1
  O  O291  1  0.37128875  0.14131502  0.12980189  1
  O  O292  1  0.37261009  0.13650454  0.63058110  1
  O  O293  1  0.38303645  0.61670794  0.14154017  1
  O  O294  1  0.37770736  0.63295383  0.62733698  1
  O  O295  1  0.87020545  0.13311846  0.13301229  1
  O  O296  1  0.86641855  0.13847387  0.62693817  1
  O  O297  1  0.87844144  0.63465917  0.13421187  1
  O  O298  1  0.88895282  0.62467175  0.63878070  1
  O  O299  1  0.25669486  0.24826623  0.11355760  1
  O  O300  1  0.25994173  0.25656030  0.62176395  1
  O  O301  1  0.24757789  0.74020259  0.10891808  1
  O  O302  1  0.26157118  0.75229712  0.62283751  1
  O  O303  1  0.76199144  0.25719209  0.12487872  1
  O  O304  1  0.75760524  0.26268778  0.61958848  1
  O  O305  1  0.76345508  0.74800904  0.11992531  1
  O  O306  1  0.72500835  0.76498739  0.61314411  1
  O  O307  1  0.25689264  0.23571522  0.37249670  1
  O  O308  1  0.23771566  0.25507287  0.88619610  1
  O  O309  1  0.23886631  0.74260408  0.37165199  1
  O  O310  1  0.24391214  0.74238576  0.87987178  1
  O  O311  1  0.76069957  0.25600836  0.39131069  1
  O  O312  1  0.74176276  0.24051375  0.87613776  1
  O  O313  1  0.73661831  0.74831233  0.37942699  1
  O  O314  1  0.75231535  0.74425981  0.89500166  1
  O  O315  1  0.00807135  0.11190645  -0.00390721  1
  O  O316  1  0.00924094  0.11407505  0.49134337  1
  O  O317  1  0.00504068  0.61429541  -0.00061460  1
  O  O318  1  0.01835026  0.63850176  0.51422226  1
  O  O319  1  0.51241667  0.11768538  -0.00630468  1
  O  O320  1  0.49746257  0.11349396  0.50030975  1
  O  O321  1  0.48188940  0.60823736  0.01941586  1
  O  O322  1  0.50335333  0.61655778  0.50228914  1
  O  O323  1  0.49043069  0.38529325  0.50695147  1
  O  O324  1  0.48543587  0.38399526  1.00474787  1
  O  O325  1  0.49108158  0.88080310  0.49517234  1
  O  O326  1  0.50006420  0.88819530  0.99438164  1
  O  O327  1  1.01092167  0.37283675  0.47848434  1
  O  O328  1  0.99533629  0.37948005  0.99434220  1
  O  O329  1  0.98882927  0.88812388  0.50093634  1
  O  O330  1  0.99272028  0.88277664  0.99595936  1
  O  O331  1  0.48911994  0.50511979  0.38317697  1
  O  O332  1  0.48634182  0.50051248  0.88331538  1
  O  O333  1  0.49413517  0.99386819  0.38153958  1
  O  O334  1  0.49489324  0.99841599  0.88619271  1
  O  O335  1  0.99975474  0.48855104  0.36762651  1
  O  O336  1  1.00911768  0.48760661  0.88756036  1
  O  O337  1  0.99072794  1.00188843  0.38162270  1
  O  O338  1  0.99067801  0.99321099  0.88650789  1
  O  O339  1  0.01008863  -0.00463752  0.11461343  1
  O  O340  1  0.01034759  -0.00044587  0.61506682  1
  O  O341  1  0.01070154  0.49801946  0.11366922  1
  O  O342  1  0.01074799  0.50958828  0.63225593  1
  O  O343  1  0.51278636  0.00164545  0.11886187  1
  O  O344  1  0.50486275  0.00336316  0.61577677  1
  O  O345  1  0.50304817  0.50242148  0.11971169  1
  O  O346  1  0.49963421  0.50646945  0.61351848  1
  O  O347  1  0.24472349  0.38475299  0.25525351  1
  O  O348  1  0.24830224  0.38185622  0.74114724  1
  O  O349  1  0.24028271  0.88656276  0.25390119  1
  O  O350  1  0.24329227  0.88324971  0.74976875  1
  O  O351  1  0.74531421  0.37788553  0.24438004  1
  O  O352  1  0.75104255  0.39108822  0.74308018  1
  O  O353  1  0.74090581  0.88252214  0.25533115  1
  O  O354  1  0.74685444  0.87531155  0.75522651  1
  O  O355  1  0.24737344  0.11326540  0.25608603  1
  O  O356  1  0.25724912  0.11645561  0.74482891  1
  O  O357  1  0.25749836  0.61509157  0.25375914  1
  O  O358  1  0.25604570  0.61976879  0.75399173  1
  O  O359  1  0.76198247  0.11667578  0.24979341  1
  O  O360  1  0.75194545  0.12784916  0.76205480  1
  O  O361  1  0.75441564  0.61181083  0.24583161  1
  O  O362  1  0.75814932  0.61246327  0.74427465  1
  O  O363  1  0.36541223  0.11670779  0.36922771  1
  O  O364  1  0.37480709  0.12604286  0.86274359  1
  O  O365  1  0.37109285  0.61540873  0.36636368  1
  O  O366  1  0.37097941  0.61314081  0.86817681  1
  O  O367  1  0.87155005  0.11613305  0.36285264  1
  O  O368  1  0.86388412  0.11516337  0.87978016  1
  O  O369  1  0.86737727  0.63808265  0.35152572  1
  O  O370  1  0.88122694  0.62216515  0.86444832  1
  O  O371  1  0.12283995  0.38552783  0.13440236  1
  O  O372  1  0.12874793  0.38427865  0.62320001  1
  O  O373  1  0.12317739  0.88501216  0.13531392  1
  O  O374  1  0.12479886  0.88451016  0.63052071  1
  O  O375  1  0.63908536  0.37289470  0.13056368  1
  O  O376  1  0.63978355  0.37982134  0.63232896  1
  O  O377  1  0.62048468  0.88601448  0.13821828  1
  O  O378  1  0.61872690  0.89301131  0.63281216  1
  O  O379  1  0.11785621  0.25773869  0.23868726  1
  O  O380  1  0.12434026  0.25109762  0.75861130  1
  O  O381  1  0.12029074  0.75417976  0.25292585  1
  O  O382  1  0.11699423  0.75394842  0.75658617  1
  O  O383  1  0.61708635  0.25944664  0.24563970  1
  O  O384  1  0.61534913  0.24731553  0.75582264  1
  O  O385  1  0.62072283  0.75572570  0.25510209  1
  O  O386  1  0.60725622  0.74974468  0.74465252  1
  O  O387  1  0.39109559  0.25409714  0.24237837  1
  O  O388  1  0.37752416  0.24651152  0.74389433  1
  O  O389  1  0.38531977  0.73877615  0.25975472  1
  O  O390  1  0.37870932  0.74684839  0.74093891  1
  O  O391  1  0.88257052  0.24185313  0.24333070  1
  O  O392  1  0.87321333  0.24998546  0.73501157  1
  O  O393  1  0.88086310  0.74926435  0.24344651  1
  O  O394  1  0.88692370  0.74321313  0.75719565  1
  O  O395  1  0.38036537  0.49434062  0.49304271  1
  O  O396  1  0.37692869  0.49163969  0.99378772  1
  O  O397  1  0.38163683  0.99229304  0.49708809  1
  O  O398  1  0.38573239  1.00752372  1.00458710  1
  O  O399  1  0.88440985  0.56002958  0.48453365  1
  O  O400  1  0.88694477  0.48687396  1.00960981  1
  O  O401  1  0.88147609  0.99835213  0.49081537  1
  O  O402  1  0.88015515  0.99394062  0.99856347  1
  O  O403  1  0.11992189  0.00326407  0.00427073  1
  O  O404  1  0.11846456  0.00363677  0.50480430  1
  O  O405  1  0.12178256  0.50177611  0.00585184  1
  O  O406  1  0.13185056  0.51095972  0.50954285  1
  O  O407  1  0.61880160  0.00724787  0.00894575  1
  O  O408  1  0.61305831  -0.00685706  0.50594169  1
  O  O409  1  0.60978629  0.48982610  0.00052737  1
  O  O410  1  0.61471526  0.50825472  0.49517874  1
  O  O411  1  0.37325094  0.36436588  0.11512153  1
  O  O412  1  0.36917597  0.36824770  0.61500688  1
  O  O413  1  0.38164129  0.86396051  0.12282577  1
  O  O414  1  0.37589592  0.86759124  0.61639910  1
  O  O415  1  0.86943080  0.36528133  0.11914101  1
  O  O416  1  0.86219452  0.36988000  0.62768661  1
  O  O417  1  0.88071342  0.86654488  0.11663096  1
  O  O418  1  0.87441763  0.88264366  0.60750719  1
  O  O419  1  0.13502404  0.11752109  0.38362646  1
  O  O420  1  0.11982211  0.13434039  0.88710296  1
  O  O421  1  0.12890062  0.63002284  0.38221989  1
  O  O422  1  0.13126895  0.62776729  0.87962312  1
  O  O423  1  0.63340173  0.12142670  0.38263820  1
  O  O424  1  0.63129499  0.13146088  0.88236349  1
  O  O425  1  0.62445303  0.63191608  0.37962516  1
  O  O426  1  0.57006850  0.64396188  0.89484193  1
