# generated using pymatgen
data_V85Zn86O256
_symmetry_space_group_name_H-M   'P 1'
_cell_length_a   16.97280578
_cell_length_b   16.97931926
_cell_length_c   16.97152398
_cell_angle_alpha   90.18753532
_cell_angle_beta   89.98138558
_cell_angle_gamma   90.01318596
_symmetry_Int_Tables_number   1
_chemical_formula_structural   V85Zn86O256
_chemical_formula_sum   'V85 Zn86 O256'
_cell_volume   4890.94070259
_cell_formula_units_Z   1
loop_
 _symmetry_equiv_pos_site_id
 _symmetry_equiv_pos_as_xyz
  1  'x, y, z'
loop_
 _atom_site_type_symbol
 _atom_site_label
 _atom_site_symmetry_multiplicity
 _atom_site_fract_x
 _atom_site_fract_y
 _atom_site_fract_z
 _atom_site_occupancy
  V  V0  1  0.75342237  0.75206078  -0.00288217  1
  V  V1  1  0.62708134  0.37331650  0.74890366  1
  V  V2  1  0.61989251  0.87133379  0.24662770  1
  V  V3  1  0.24563803  -0.00042608  0.24835387  1
  V  V4  1  0.88226441  -0.00692848  0.36581002  1
  V  V5  1  0.74941400  0.61740287  0.86759269  1
  V  V6  1  0.75314982  0.62647536  0.36924953  1
  V  V7  1  0.75046160  0.24723009  -0.00700942  1
  V  V8  1  0.49854471  0.25264994  0.25047383  1
  V  V9  1  0.37669270  0.87019168  0.00034546  1
  V  V10  1  0.37172314  0.37877427  0.00343344  1
  V  V11  1  0.25311421  0.87608619  0.62640152  1
  V  V12  1  0.00125119  0.50325604  0.00544896  1
  V  V13  1  0.74929371  0.00620219  0.24963237  1
  V  V14  1  0.49896590  0.50227827  -0.00074201  1
  V  V15  1  0.49778642  0.37134968  0.86868864  1
  V  V16  1  0.36633781  0.50544102  0.86320771  1
  V  V17  1  0.37406070  -0.00022930  0.37519541  1
  V  V18  1  0.62325073  0.24855671  0.87050390  1
  V  V19  1  0.63104409  0.49915641  0.62940986  1
  V  V20  1  0.13104682  0.50300596  0.12613709  1
  V  V21  1  0.75421120  0.75779532  0.50896917  1
  V  V22  1  0.87554487  0.37395681  -0.00038526  1
  V  V23  1  0.23881817  0.12729472  0.37778101  1
  V  V24  1  0.12764883  0.62428059  0.50207915  1
  V  V25  1  0.37395817  0.12856863  0.25175389  1
  V  V26  1  0.24977533  0.74535791  0.49864331  1
  V  V27  1  0.11308919  0.00483545  0.62741650  1
  V  V28  1  -0.01345477  0.00227807  -0.00889317  1
  V  V29  1  0.24510064  0.25066349  0.00227960  1
  V  V30  1  0.37786215  0.00098562  0.87540761  1
  V  V31  1  0.50043216  0.87417445  0.87239816  1
  V  V32  1  0.12685071  0.38009898  0.25070965  1
  V  V33  1  0.62315451  0.62174792  -0.00073389  1
  V  V34  1  0.63522759  0.87359389  0.74092470  1
  V  V35  1  0.37328294  0.37262329  0.50545982  1
  V  V36  1  -0.00335420  0.63227623  0.62833793  1
  V  V37  1  0.37604111  0.87403213  0.49869892  1
  V  V38  1  0.50102256  0.00085192  0.50285679  1
  V  V39  1  0.62354580  0.00158325  0.12466498  1
  V  V40  1  0.62164541  0.74978412  0.36993067  1
  V  V41  1  0.49981158  0.37327790  0.37757270  1
  V  V42  1  0.49973665  0.49862668  0.50219951  1
  V  V43  1  0.88317433  0.87531163  0.51454476  1
  V  V44  1  0.24557050  0.37626349  0.63995037  1
  V  V45  1  0.38223629  0.24357086  0.63313185  1
  V  V46  1  0.49559310  0.74509357  0.74829023  1
  V  V47  1  0.62607558  0.62445135  0.49970354  1
  V  V48  1  0.87544514  0.24489619  0.12663539  1
  V  V49  1  0.87967050  0.24375195  0.62171403  1
  V  V50  1  0.24730332  0.12591991  0.87944322  1
  V  V51  1  0.75660379  0.87519306  0.11959939  1
  V  V52  1  0.87411845  0.62861495  0.74619613  1
  V  V53  1  0.85870452  0.12937718  0.76103622  1
  V  V54  1  0.64346633  -0.00697267  0.62214127  1
  V  V55  1  0.00356148  0.36929163  0.37517855  1
  V  V56  1  0.25588990  0.00328355  0.74989821  1
  V  V57  1  0.62692121  0.24914257  0.37435712  1
  V  V58  1  0.37475162  0.25388165  0.12611823  1
  V  V59  1  0.00092303  0.24747433  0.24989445  1
  V  V60  1  0.24286858  0.24736077  0.50016434  1
  V  V61  1  0.49897719  0.62288510  0.62666594  1
  V  V62  1  0.75056482  0.49965282  0.24712846  1
  V  V63  1  0.37630883  0.74349859  0.62690077  1
  V  V64  1  0.12776131  0.00806030  0.11259422  1
  V  V65  1  0.24488548  0.62960736  0.86352051  1
  V  V66  1  0.75376847  0.37559226  0.62574086  1
  V  V67  1  0.00598501  0.37514112  0.86813608  1
  V  V68  1  0.36306687  0.49954155  0.37314638  1
  V  V69  1  0.12773276  0.25433885  0.87060029  1
  V  V70  1  0.12662953  0.49493280  0.64180708  1
  V  V71  1  0.24854908  0.87385964  0.12119479  1
  V  V72  1  -0.00083245  0.49893535  0.50247008  1
  V  V73  1  0.62701305  0.12582576  -0.00309594  1
  V  V74  1  0.62367798  0.74729237  0.87005613  1
  V  V75  1  0.49709368  0.87147329  0.37105421  1
  V  V76  1  0.50056195  0.00108501  0.00019652  1
  V  V77  1  0.87677481  0.50329218  0.36924807  1
  V  V78  1  0.63053628  0.12301678  0.49785949  1
  V  V79  1  0.12359720  0.86833037  0.76086393  1
  V  V80  1  0.87274597  0.49825228  0.86781834  1
  V  V81  1  0.87577808  0.73014887  0.13511505  1
  V  V82  1  0.00375838  0.24319370  0.74674427  1
  V  V83  1  0.00604048  0.12936063  0.11745471  1
  V  V84  1  0.12220972  0.63890375  0.00304220  1
  Zn  Zn85  1  0.11356436  0.75889664  0.37719611  1
  Zn  Zn86  1  0.62514114  0.37494222  0.24586465  1
  Zn  Zn87  1  0.87529278  0.37164737  0.49893395  1
  Zn  Zn88  1  0.39369605  0.75896298  0.14611351  1
  Zn  Zn89  1  0.75534186  0.24994433  0.49604409  1
  Zn  Zn90  1  0.00799649  -0.00568382  0.48380043  1
  Zn  Zn91  1  0.39509508  0.13259987  0.76256738  1
  Zn  Zn92  1  -0.02146315  0.87256339  0.88814071  1
  Zn  Zn93  1  0.00505993  0.74758931  0.76227560  1
  Zn  Zn94  1  0.11397324  0.13147408  0.51078631  1
  Zn  Zn95  1  0.51122747  0.12734213  0.63987760  1
  Zn  Zn96  1  0.50149745  0.63542920  0.13568723  1
  Zn  Zn97  1  0.74712507  0.37407858  0.12540736  1
  Zn  Zn98  1  0.62611719  0.49828819  0.12601683  1
  Zn  Zn99  1  0.25497771  0.38294592  0.13795615  1
  Zn  Zn100  1  0.24682732  0.75226173  -0.00237246  1
  Zn  Zn101  1  0.24083853  0.61456088  0.35585885  1
  Zn  Zn102  1  0.36906788  0.63022291  0.23993300  1
  Zn  Zn103  1  0.81040380  -0.01630595  0.83347537  1
  Zn  Zn104  1  0.10139475  0.87296999  0.26718928  1
  Zn  Zn105  1  0.49915428  0.12723851  0.12609021  1
  Zn  Zn106  1  0.75941314  0.12845018  0.36683421  1
  Zn  Zn107  1  0.18596581  0.19235765  0.18974581  1
  Zn  Zn108  1  0.19359601  0.18783217  0.69034200  1
  Zn  Zn109  1  0.18252736  0.68625996  0.18842200  1
  Zn  Zn110  1  0.18624481  0.68555256  0.68322214  1
  Zn  Zn111  1  0.68725769  0.19048777  0.18326823  1
  Zn  Zn112  1  0.68712979  0.18918899  0.68151000  1
  Zn  Zn113  1  0.68978709  0.68676080  0.18422583  1
  Zn  Zn114  1  0.68728701  0.68675867  0.68800544  1
  Zn  Zn115  1  0.31020048  0.31269878  0.31753889  1
  Zn  Zn116  1  0.31454145  0.31322286  0.81500501  1
  Zn  Zn117  1  0.27615527  0.78601595  0.28950677  1
  Zn  Zn118  1  0.31064396  0.81228756  0.81329130  1
  Zn  Zn119  1  0.81517835  0.31597707  0.31185495  1
  Zn  Zn120  1  0.81235868  0.31155060  0.80848963  1
  Zn  Zn121  1  0.81378264  0.81606752  0.31232743  1
  Zn  Zn122  1  0.81605548  0.80511181  0.81179286  1
  Zn  Zn123  1  0.18304380  0.43243288  0.44745956  1
  Zn  Zn124  1  0.18719226  0.44141447  0.93740961  1
  Zn  Zn125  1  0.18774383  0.93487121  0.43804322  1
  Zn  Zn126  1  0.18637326  0.94034984  0.93994620  1
  Zn  Zn127  1  0.68944280  0.43677088  0.43853270  1
  Zn  Zn128  1  0.68816444  0.43428591  0.93658015  1
  Zn  Zn129  1  0.69129015  0.93540705  0.43426734  1
  Zn  Zn130  1  0.68408855  0.93489029  0.93613369  1
  Zn  Zn131  1  0.31553287  0.06615194  0.06190489  1
  Zn  Zn132  1  0.31097705  0.06391527  0.56240101  1
  Zn  Zn133  1  0.31074183  0.57198728  0.06205762  1
  Zn  Zn134  1  0.31045330  0.55806064  0.56930561  1
  Zn  Zn135  1  0.81144014  0.06389296  0.06112730  1
  Zn  Zn136  1  0.82243813  0.06232911  0.55779734  1
  Zn  Zn137  1  0.81087969  0.56087329  0.05777358  1
  Zn  Zn138  1  0.81205244  0.56433053  0.55899480  1
  Zn  Zn139  1  0.45170436  0.46382240  0.20325079  1
  Zn  Zn140  1  0.43866768  0.43484864  0.68719861  1
  Zn  Zn141  1  0.43518551  0.94081112  0.18767245  1
  Zn  Zn142  1  0.44303484  0.93613192  0.68766909  1
  Zn  Zn143  1  0.93872939  0.43697447  0.18765445  1
  Zn  Zn144  1  0.93957762  0.43631137  0.68705192  1
  Zn  Zn145  1  0.93679072  0.94161492  0.18465486  1
  Zn  Zn146  1  0.92567627  0.93085234  0.70908700  1
  Zn  Zn147  1  0.05971698  0.06481399  0.30536241  1
  Zn  Zn148  1  0.06492582  0.06487634  0.81146791  1
  Zn  Zn149  1  0.06143005  0.56526968  0.31326147  1
  Zn  Zn150  1  0.05994278  0.56626869  0.81883609  1
  Zn  Zn151  1  0.56158688  0.06274328  0.31236397  1
  Zn  Zn152  1  0.58381823  0.05483761  0.81290154  1
  Zn  Zn153  1  0.55996813  0.56193629  0.31366855  1
  Zn  Zn154  1  0.55937960  0.55882892  0.81141197  1
  Zn  Zn155  1  0.43667053  0.18534624  0.43980724  1
  Zn  Zn156  1  0.43844853  0.18859370  0.94048326  1
  Zn  Zn157  1  0.43567347  0.68455899  0.43522796  1
  Zn  Zn158  1  0.43437517  0.68566019  0.93616732  1
  Zn  Zn159  1  0.94035662  0.17833749  0.43727498  1
  Zn  Zn160  1  0.94043564  0.18538507  0.93550446  1
  Zn  Zn161  1  0.93435506  0.68643727  0.44114707  1
  Zn  Zn162  1  0.93951586  0.68994109  0.94006042  1
  Zn  Zn163  1  0.06467537  0.31755304  0.06231882  1
  Zn  Zn164  1  0.06248588  0.31545712  0.56636063  1
  Zn  Zn165  1  0.03998563  0.83093370  0.09232888  1
  Zn  Zn166  1  0.06602642  0.81672664  0.56837153  1
  Zn  Zn167  1  0.56075569  0.31616725  0.06206400  1
  Zn  Zn168  1  0.56407195  0.31065422  0.56136226  1
  Zn  Zn169  1  0.56518837  0.81116608  0.05997617  1
  Zn  Zn170  1  0.56362922  0.81189663  0.55893025  1
  O  O171  1  0.11702049  0.12135207  0.12817975  1
  O  O172  1  0.13333559  0.10860960  0.63062900  1
  O  O173  1  0.12539621  0.61821962  0.11038826  1
  O  O174  1  0.11598428  0.61494474  0.62053052  1
  O  O175  1  0.62206585  0.12223645  0.11351488  1
  O  O176  1  0.62639693  0.11548521  0.61441575  1
  O  O177  1  0.62601600  0.62015933  0.10955985  1
  O  O178  1  0.62097173  0.61550823  0.62075118  1
  O  O179  1  0.37744772  0.37800848  0.39083816  1
  O  O180  1  0.37964848  0.38374594  0.88112086  1
  O  O181  1  0.38055600  0.88336863  0.38288803  1
  O  O182  1  0.38004651  0.88119178  0.88133342  1
  O  O183  1  0.88514648  0.38577326  0.37780759  1
  O  O184  1  0.88089028  0.37920352  0.88173815  1
  O  O185  1  0.86733797  0.88745831  0.38434013  1
  O  O186  1  0.88135914  0.89580719  0.82620690  1
  O  O187  1  0.25406343  0.00654644  0.36752227  1
  O  O188  1  0.25552995  0.00889839  0.87044090  1
  O  O189  1  0.26110628  0.49907884  0.39509695  1
  O  O190  1  0.26071051  0.50698432  0.87694756  1
  O  O191  1  0.75327713  -0.00017727  0.36245313  1
  O  O192  1  0.71263531  0.01412525  0.86692262  1
  O  O193  1  0.75690008  0.50574957  0.37000159  1
  O  O194  1  0.76025336  0.50666815  0.88103016  1
  O  O195  1  0.23570520  0.49744728  0.11471104  1
  O  O196  1  0.23919134  0.48856135  0.62272823  1
  O  O197  1  0.24560990  1.00269143  0.12940380  1
  O  O198  1  0.25243064  0.99480446  0.63566643  1
  O  O199  1  0.75157139  0.49807837  0.13518515  1
  O  O200  1  0.73889313  0.49262231  0.61782549  1
  O  O201  1  0.74433070  0.99448474  0.12774517  1
  O  O202  1  0.74178036  0.99997799  0.61517966  1
  O  O203  1  0.00606139  0.37004992  0.25713106  1
  O  O204  1  -0.00770021  0.36418694  0.76339789  1
  O  O205  1  0.01449890  0.86715261  0.20094723  1
  O  O206  1  0.01990425  0.87332783  0.74694608  1
  O  O207  1  0.50190383  0.37122962  0.26014130  1
  O  O208  1  0.50996959  0.37792783  0.76024219  1
  O  O209  1  0.51274154  0.88398659  0.25485970  1
  O  O210  1  0.50653381  0.86236331  0.75294415  1
  O  O211  1  0.49212422  0.13348620  0.25048606  1
  O  O212  1  0.50418931  0.11145030  0.75083887  1
  O  O213  1  0.48046122  0.58081072  0.23653681  1
  O  O214  1  0.50510952  0.63666163  0.74406807  1
  O  O215  1  1.00230062  0.13863866  0.23699635  1
  O  O216  1  0.99406355  0.14037817  0.75579743  1
  O  O217  1  1.00257532  0.66258571  0.28914395  1
  O  O218  1  0.99283038  0.62539033  0.74507326  1
  O  O219  1  0.36827888  0.26068493  0.00392140  1
  O  O220  1  0.36797573  0.25616530  0.51029799  1
  O  O221  1  0.37683204  0.76637552  -0.00372119  1
  O  O222  1  0.37142945  0.75277508  0.50951947  1
  O  O223  1  0.86940987  0.25628040  0.00235059  1
  O  O224  1  0.87709150  0.25104282  0.50756792  1
  O  O225  1  0.85544660  0.74023111  0.00409742  1
  O  O226  1  0.86446119  0.76149412  0.49377184  1
  O  O227  1  0.13856848  0.24896215  0.50999279  1
  O  O228  1  0.13707325  0.25871526  0.98965881  1
  O  O229  1  0.13227473  0.74182529  0.50309968  1
  O  O230  1  0.11850196  0.73786116  1.00669734  1
  O  O231  1  0.62500393  0.23994962  0.49159408  1
  O  O232  1  0.63148562  0.24677734  0.99320298  1
  O  O233  1  0.63626495  0.74622224  0.49087954  1
  O  O234  1  0.63132972  0.73876124  0.98971376  1
  O  O235  1  0.49221473  0.25201587  0.13153665  1
  O  O236  1  0.48581966  0.24868999  0.61984017  1
  O  O237  1  0.50697527  0.74888523  0.12872458  1
  O  O238  1  0.49439521  0.74423531  0.62866075  1
  O  O239  1  0.99510111  0.24722315  0.12624839  1
  O  O240  1  0.99161055  0.25978223  0.63587707  1
  O  O241  1  0.97126681  0.74148575  0.10495421  1
  O  O242  1  1.00672369  0.73417734  0.62880080  1
  O  O243  1  -0.01113596  0.26042503  0.36430515  1
  O  O244  1  0.01013540  0.25659699  0.87080585  1
  O  O245  1  0.00361736  0.71704197  0.35243721  1
  O  O246  1  -0.01017126  0.76151185  0.87358206  1
  O  O247  1  0.50604390  0.25381442  0.37191390  1
  O  O248  1  0.50830738  0.26284753  0.88218485  1
  O  O249  1  0.51453487  0.75343427  0.38331505  1
  O  O250  1  0.50201866  0.75205331  0.86542368  1
  O  O251  1  0.24605855  0.13062761  0.49407054  1
  O  O252  1  0.25770021  0.13938754  0.99123238  1
  O  O253  1  0.23836551  0.63197129  0.51649376  1
  O  O254  1  0.23488526  0.62964364  0.99308215  1
  O  O255  1  0.73811190  0.12444971  0.49521597  1
  O  O256  1  0.73972826  0.13741346  1.00421609  1
  O  O257  1  0.74589237  0.63263119  0.48915567  1
  O  O258  1  0.74011118  0.62806768  0.98776746  1
  O  O259  1  0.25998534  0.36749663  -0.00490766  1
  O  O260  1  0.25726719  0.36508577  0.50918050  1
  O  O261  1  0.26085747  0.87725472  0.00296880  1
  O  O262  1  0.25657365  0.86473985  0.50630916  1
  O  O263  1  0.76059441  0.36742318  -0.00034553  1
  O  O264  1  0.75309260  0.37323130  0.51134215  1
  O  O265  1  0.73660359  0.86213835  0.00647952  1
  O  O266  1  0.75448712  0.86180175  0.49912064  1
  O  O267  1  0.11088195  0.49440155  0.23744362  1
  O  O268  1  0.11536843  0.50202146  0.74019283  1
  O  O269  1  0.13507135  1.00151286  0.23839533  1
  O  O270  1  0.13723157  0.99440344  0.74457524  1
  O  O271  1  0.63764250  0.49730549  0.25126020  1
  O  O272  1  0.62066009  0.48930826  0.73896307  1
  O  O273  1  0.62999087  0.99309729  0.24483528  1
  O  O274  1  0.61992108  0.98402600  0.73125687  1
  O  O275  1  0.36681846  0.00907993  0.25482330  1
  O  O276  1  0.36709891  -0.00477156  0.75665473  1
  O  O277  1  0.36131643  0.47885404  0.27462152  1
  O  O278  1  0.37912048  0.49627618  0.76470235  1
  O  O279  1  0.86370593  -0.00927497  0.25798832  1
  O  O280  1  0.87297866  0.02812135  0.74081025  1
  O  O281  1  0.86866231  0.49582023  0.26090786  1
  O  O282  1  0.88109276  0.50473759  0.76309440  1
  O  O283  1  0.11081056  0.38485183  0.36830469  1
  O  O284  1  0.11612820  0.36874305  0.87840485  1
  O  O285  1  0.11510471  0.87453834  0.37997448  1
  O  O286  1  0.12929387  0.88059709  0.86155461  1
  O  O287  1  0.61956532  0.36273326  0.37948016  1
  O  O288  1  0.61794879  0.37033723  0.86805678  1
  O  O289  1  0.62041440  0.86769288  0.36633094  1
  O  O290  1  0.61714913  0.86422971  0.86432102  1
  O  O291  1  0.37584215  0.13557498  0.13271957  1
  O  O292  1  0.37584215  0.13850366  0.62522159  1
  O  O293  1  0.38154489  0.63790172  0.11756277  1
  O  O294  1  0.38163668  0.63532480  0.62021272  1
  O  O295  1  0.88475500  0.13890052  0.11827693  1
  O  O296  1  0.86846782  0.14083013  0.63050884  1
  O  O297  1  0.86248329  0.63041581  0.12954788  1
  O  O298  1  0.88519086  0.61037871  0.63476653  1
  O  O299  1  0.25467066  0.25580198  0.11694443  1
  O  O300  1  0.26036567  0.25516552  0.61963050  1
  O  O301  1  0.24855248  0.76856772  0.11953359  1
  O  O302  1  0.25916374  0.75421934  0.62017270  1
  O  O303  1  0.75952349  0.25259402  0.11457249  1
  O  O304  1  0.75856065  0.26076984  0.62030522  1
  O  O305  1  0.75277211  0.75599987  0.11553340  1
  O  O306  1  0.74747211  0.74036774  0.60665754  1
  O  O307  1  0.25616146  0.23951308  0.38897733  1
  O  O308  1  0.24609568  0.24609721  0.88067538  1
  O  O309  1  0.25814725  0.73535311  0.39773337  1
  O  O310  1  0.25848201  0.73402466  0.87880430  1
  O  O311  1  0.74272707  0.24804646  0.37426834  1
  O  O312  1  0.73822265  0.25986160  0.88469176  1
  O  O313  1  0.74178034  0.74285794  0.38092890  1
  O  O314  1  0.74515229  0.73910732  0.87933064  1
  O  O315  1  0.00093316  0.12036409  0.00838020  1
  O  O316  1  0.00666929  0.10891588  0.49302170  1
  O  O317  1  0.01321161  0.61283742  -0.01286035  1
  O  O318  1  0.00532673  0.61796004  0.50904965  1
  O  O319  1  0.50878658  0.12075132  0.00267387  1
  O  O320  1  0.51158121  0.11493118  0.49858858  1
  O  O321  1  0.51095062  0.61667848  -0.01045826  1
  O  O322  1  0.50694915  0.61933428  0.50664709  1
  O  O323  1  0.49108786  0.37717953  0.49891026  1
  O  O324  1  0.49146012  0.38207522  0.98811314  1
  O  O325  1  0.49644800  0.88186637  0.49206536  1
  O  O326  1  0.49582864  0.88082750  0.99295773  1
  O  O327  1  1.00138005  0.38338115  0.49244176  1
  O  O328  1  0.99236609  0.38020110  0.98943058  1
  O  O329  1  0.98751522  0.87301617  0.50341328  1
  O  O330  1  1.00168478  0.89858738  1.00265413  1
  O  O331  1  0.48868885  0.49133195  0.38534468  1
  O  O332  1  0.48920360  0.49321328  0.88052288  1
  O  O333  1  0.49596770  0.99435673  0.38374143  1
  O  O334  1  0.49811546  0.99256355  0.88132871  1
  O  O335  1  0.99306665  0.49494539  0.38234325  1
  O  O336  1  0.99291488  0.49144186  0.88286963  1
  O  O337  1  0.98618545  0.99494242  0.36145112  1
  O  O338  1  1.00732742  1.00452150  0.88928917  1
  O  O339  1  0.00587397  0.01399372  0.11411079  1
  O  O340  1  0.01538047  -0.00435496  0.63723125  1
  O  O341  1  0.00477057  0.49501751  0.11087035  1
  O  O342  1  0.00639205  0.50239180  0.61781095  1
  O  O343  1  0.50581191  0.00289902  0.11860461  1
  O  O344  1  0.50339023  -0.00053229  0.60938807  1
  O  O345  1  0.50234049  0.49561087  0.10333983  1
  O  O346  1  0.50890432  0.50213818  0.62149605  1
  O  O347  1  0.23184827  0.36865714  0.25510018  1
  O  O348  1  0.25196828  0.36984232  0.73905190  1
  O  O349  1  0.25802587  0.89430921  0.23633095  1
  O  O350  1  0.24493842  0.88421303  0.74787011  1
  O  O351  1  0.74877079  0.38626061  0.24872401  1
  O  O352  1  0.74031216  0.37323640  0.73865491  1
  O  O353  1  0.73728431  0.88441055  0.24029410  1
  O  O354  1  0.73330739  0.85977764  0.74887858  1
  O  O355  1  0.25342503  0.12111474  0.25765097  1
  O  O356  1  0.25858425  0.11659029  0.76080398  1
  O  O357  1  0.25393080  0.61838195  0.24570290  1
  O  O358  1  0.24144838  0.62597516  0.76425636  1
  O  O359  1  0.74475548  0.11085458  0.24519792  1
  O  O360  1  0.75934290  0.14017990  0.75292875  1
  O  O361  1  0.74313744  0.61627507  0.26225628  1
  O  O362  1  0.75505304  0.62589192  0.76042266  1
  O  O363  1  0.36604874  0.11912466  0.37195025  1
  O  O364  1  0.36684055  0.12098404  0.87742633  1
  O  O365  1  0.37396554  0.60434642  0.37972099  1
  O  O366  1  0.36321222  0.61227184  0.87971378  1
  O  O367  1  0.87038167  0.10032005  0.38370685  1
  O  O368  1  0.87160536  0.13436306  0.86188863  1
  O  O369  1  0.86323173  0.61380275  0.38265279  1
  O  O370  1  0.86778984  0.61578570  0.86838499  1
  O  O371  1  0.12614415  0.38482788  0.13355813  1
  O  O372  1  0.13410795  0.38375037  0.62251918  1
  O  O373  1  0.14246949  0.89219312  0.11391268  1
  O  O374  1  0.13489506  0.88597952  0.63555742  1
  O  O375  1  0.62907675  0.37991384  0.12598360  1
  O  O376  1  0.63086353  0.37894013  0.63006488  1
  O  O377  1  0.63194849  0.88130041  0.13051425  1
  O  O378  1  0.62087631  0.88073732  0.62805499  1
  O  O379  1  0.10968948  0.26354815  0.24290850  1
  O  O380  1  0.12017791  0.24781183  0.76091579  1
  O  O381  1  0.16116101  0.76597562  0.26825118  1
  O  O382  1  0.13040779  0.76551278  0.74528794  1
  O  O383  1  0.61953175  0.24992610  0.25950172  1
  O  O384  1  0.62816845  0.26082819  0.75862575  1
  O  O385  1  0.63392737  0.75918719  0.25935371  1
  O  O386  1  0.61423628  0.75317022  0.75007930  1
  O  O387  1  0.37831922  0.24909798  0.24677388  1
  O  O388  1  0.37344934  0.24962724  0.73715413  1
  O  O389  1  0.37522069  0.74717620  0.25877945  1
  O  O390  1  0.38423393  0.75721852  0.73833309  1
  O  O391  1  0.88591145  0.26176070  0.23517630  1
  O  O392  1  0.88258308  0.24480491  0.74305102  1
  O  O393  1  0.86398446  0.75369227  0.23312037  1
  O  O394  1  0.87603815  0.73049780  0.74713488  1
  O  O395  1  0.37975868  0.48764889  0.50246030  1
  O  O396  1  0.38014125  0.49361779  0.99042135  1
  O  O397  1  0.38216155  0.99602303  0.49636590  1
  O  O398  1  0.38073279  0.99287722  0.99495334  1
  O  O399  1  0.88636253  0.49929544  0.49272976  1
  O  O400  1  0.88148130  0.49324427  0.99089973  1
  O  O401  1  0.87701526  0.98503048  0.49116158  1
  O  O402  1  0.88546759  1.00817929  0.99470088  1
  O  O403  1  0.12255150  0.00799213  0.00907390  1
  O  O404  1  0.12587347  -0.00535425  0.51977955  1
  O  O405  1  0.11627549  0.50166154  0.00735383  1
  O  O406  1  0.11380209  0.50590054  0.50914029  1
  O  O407  1  0.61922739  0.00867672  0.00641728  1
  O  O408  1  0.62002524  0.00296517  0.50210256  1
  O  O409  1  0.61718801  0.50706801  -0.00756458  1
  O  O410  1  0.61975991  0.50373929  0.50775656  1
  O  O411  1  0.37372329  0.37499390  0.11353598  1
  O  O412  1  0.36914841  0.36656680  0.62103103  1
  O  O413  1  0.36806462  0.87909529  0.11491287  1
  O  O414  1  0.37362704  0.86524158  0.61864808  1
  O  O415  1  0.87864591  0.36699016  0.11078330  1
  O  O416  1  0.86733209  0.36893834  0.62574697  1
  O  O417  1  0.85691762  0.87431151  0.12225139  1
  O  O418  1  0.87568757  0.88167400  0.61344693  1
  O  O419  1  0.13747348  0.11855539  0.37456488  1
  O  O420  1  0.13975367  0.13654035  0.87151498  1
  O  O421  1  0.12956766  0.61854584  0.39535697  1
  O  O422  1  0.13734704  0.61793269  0.88701050  1
  O  O423  1  0.62604352  0.13417944  0.38069799  1
  O  O424  1  0.61619341  0.14023216  0.88699198  1
  O  O425  1  0.63015916  0.63072861  0.37926007  1
  O  O426  1  0.63184101  0.62603765  0.87675112  1
