# generated using pymatgen
data_V85Zn86O256
_symmetry_space_group_name_H-M   'P 1'
_cell_length_a   16.94483623
_cell_length_b   16.94080317
_cell_length_c   16.95269210
_cell_angle_alpha   89.94335195
_cell_angle_beta   90.06697816
_cell_angle_gamma   89.82413283
_symmetry_Int_Tables_number   1
_chemical_formula_structural   V85Zn86O256
_chemical_formula_sum   'V85 Zn86 O256'
_cell_volume   4866.39648986
_cell_formula_units_Z   1
loop_
 _symmetry_equiv_pos_site_id
 _symmetry_equiv_pos_as_xyz
  1  'x, y, z'
loop_
 _atom_site_type_symbol
 _atom_site_label
 _atom_site_symmetry_multiplicity
 _atom_site_fract_x
 _atom_site_fract_y
 _atom_site_fract_z
 _atom_site_occupancy
  V  V0  1  0.37446687  0.50177078  0.37507507  1
  V  V1  1  0.87771085  -0.00487618  0.87520406  1
  V  V2  1  -0.00058471  0.12421349  0.62455091  1
  V  V3  1  0.25174562  0.25110006  0.50031948  1
  V  V4  1  0.87286216  0.62463095  0.74766976  1
  V  V5  1  0.50346686  0.87411696  0.37418779  1
  V  V6  1  0.75067303  0.62734313  0.89409701  1
  V  V7  1  0.12506480  -0.00079461  0.62413382  1
  V  V8  1  0.62831834  0.88270391  0.24747456  1
  V  V9  1  0.86920138  0.62098342  0.26265252  1
  V  V10  1  0.49720457  0.50766226  0.50619398  1
  V  V11  1  0.12010238  0.24932469  0.37160141  1
  V  V12  1  0.37808467  0.61868460  0.75525491  1
  V  V13  1  0.75578971  0.26288929  0.00561760  1
  V  V14  1  0.87486614  0.12430168  0.74901050  1
  V  V15  1  0.62329376  0.37755401  0.75151823  1
  V  V16  1  0.87357742  0.38333899  0.49647798  1
  V  V17  1  0.13223899  0.62648476  0.49286487  1
  V  V18  1  0.12436923  0.12402926  0.49991334  1
  V  V19  1  0.25524653  0.87057810  0.62331378  1
  V  V20  1  0.12179824  -0.00012686  0.12393633  1
  V  V21  1  0.11833284  0.61690026  -0.00127355  1
  V  V22  1  0.62613860  0.37733059  0.25421724  1
  V  V23  1  0.87221771  0.86499746  0.00094018  1
  V  V24  1  0.74498874  -0.00105571  0.74334752  1
  V  V25  1  0.50364346  0.11900666  0.12527687  1
  V  V26  1  0.74810374  0.50148069  0.74980758  1
  V  V27  1  0.62867791  0.74685842  0.88464275  1
  V  V28  1  0.74724903  0.87468338  0.62081298  1
  V  V29  1  0.87377684  0.24961866  0.62468575  1
  V  V30  1  0.48619289  0.37893971  0.87966389  1
  V  V31  1  0.12499654  0.86781807  0.25180686  1
  V  V32  1  0.74705320  0.37789541  0.62564131  1
  V  V33  1  0.87448109  0.00135795  0.36937395  1
  V  V34  1  0.37556479  0.75086321  0.11663894  1
  V  V35  1  0.50082071  0.74632838  0.75049771  1
  V  V36  1  0.12467566  0.86841155  0.75559029  1
  V  V37  1  -0.00652923  0.13607896  0.12990592  1
  V  V38  1  0.48304378  0.49598289  -0.00041872  1
  V  V39  1  0.25493908  -0.00210394  0.75234242  1
  V  V40  1  0.74223556  0.25234925  0.49436438  1
  V  V41  1  0.63621071  0.50149701  0.11639193  1
  V  V42  1  0.00129477  0.87122509  0.37424199  1
  V  V43  1  0.37783270  0.25594127  0.12365992  1
  V  V44  1  0.75080500  0.12467798  0.87596914  1
  V  V45  1  0.49191968  -0.00229862  -0.01292642  1
  V  V46  1  0.62806770  0.62804236  0.50744672  1
  V  V47  1  0.24575387  0.62876834  0.87589028  1
  V  V48  1  0.49896442  0.25153621  0.75063388  1
  V  V49  1  0.74565298  0.12851476  0.37225780  1
  V  V50  1  0.00704854  0.50046983  0.50744031  1
  V  V51  1  0.50537283  0.25291834  0.25564672  1
  V  V52  1  0.24956781  0.50021011  0.75451941  1
  V  V53  1  0.24539087  0.38119960  0.62313308  1
  V  V54  1  0.24717703  0.50384628  0.25142079  1
  V  V55  1  0.25353695  0.12233602  0.87481811  1
  V  V56  1  0.37778767  0.74012797  0.62377798  1
  V  V57  1  -0.00186726  0.37776055  0.37706051  1
  V  V58  1  0.62595999  0.11904200  0.00347378  1
  V  V59  1  0.12492110  0.12518501  -0.00006318  1
  V  V60  1  0.12036882  0.38079163  0.74614418  1
  V  V61  1  0.87778748  0.74991868  0.62287653  1
  V  V62  1  0.12322903  0.25266620  0.87454973  1
  V  V63  1  0.24802582  0.74795553  0.48539496  1
  V  V64  1  0.25461773  0.25697576  -0.00033754  1
  V  V65  1  0.50392157  0.62444994  0.11828565  1
  V  V66  1  0.62103227  0.87360982  0.74980527  1
  V  V67  1  0.63309908  0.74395949  0.37203695  1
  V  V68  1  0.00520478  0.60408599  0.12675521  1
  V  V69  1  0.37192036  0.62636676  0.25140164  1
  V  V70  1  0.74974910  0.50140603  0.26880599  1
  V  V71  1  0.25200876  0.00277972  0.25042974  1
  V  V72  1  0.37548583  0.12461741  0.74865269  1
  V  V73  1  0.37623267  -0.00018640  0.37616987  1
  V  V74  1  0.25380582  0.87437085  0.12102135  1
  V  V75  1  0.74624298  0.87463191  0.11828759  1
  V  V76  1  0.50434776  -0.00059987  0.51207865  1
  V  V77  1  0.62592708  0.12096002  0.50543141  1
  V  V78  1  0.87795904  0.49715548  0.88249499  1
  V  V79  1  -0.00308263  0.37887311  0.88797523  1
  V  V80  1  -0.00131427  0.74767820  0.24526951  1
  V  V81  1  0.62472387  0.25328222  0.87764912  1
  V  V82  1  0.00356470  0.74923913  0.75663511  1
  V  V83  1  0.24868380  0.38013137  0.12443275  1
  V  V84  1  0.12487091  0.37629516  0.25040840  1
  Zn  Zn85  1  -0.00184276  0.25063871  0.75188712  1
  Zn  Zn86  1  0.25013654  0.12625523  0.37535571  1
  Zn  Zn87  1  0.87507123  0.87349167  0.49629112  1
  Zn  Zn88  1  0.00627583  0.86789177  0.88278856  1
  Zn  Zn89  1  -0.00201626  -0.00184548  0.00050956  1
  Zn  Zn90  1  0.50525177  0.12350550  0.62886904  1
  Zn  Zn91  1  0.37765894  0.25044605  0.62225672  1
  Zn  Zn92  1  0.23588098  0.75517933  -0.00923903  1
  Zn  Zn93  1  -0.00008372  -0.00261582  0.49847091  1
  Zn  Zn94  1  0.01144512  0.61766564  0.62953700  1
  Zn  Zn95  1  0.87740422  0.14147064  0.25102064  1
  Zn  Zn96  1  0.50281161  0.74882932  0.24691370  1
  Zn  Zn97  1  0.86267960  0.72686238  0.11340548  1
  Zn  Zn98  1  0.50261586  0.37198076  0.37960472  1
  Zn  Zn99  1  0.37806362  0.87171213  0.50125624  1
  Zn  Zn100  1  0.87030067  0.28744627  0.12632399  1
  Zn  Zn101  1  0.61514727  0.50803921  0.63209531  1
  Zn  Zn102  1  0.37539947  0.87689095  -0.01763384  1
  Zn  Zn103  1  0.75773641  0.74327925  0.49192717  1
  Zn  Zn104  1  0.74774010  0.00726420  0.24110563  1
  Zn  Zn105  1  0.37827858  0.12789497  0.25060802  1
  Zn  Zn106  1  0.37816318  0.37609110  0.50071827  1
  Zn  Zn107  1  0.18589127  0.18941099  0.18624865  1
  Zn  Zn108  1  0.18611715  0.19055299  0.68647189  1
  Zn  Zn109  1  0.18645605  0.68709012  0.18142697  1
  Zn  Zn110  1  0.18714019  0.68296556  0.68005121  1
  Zn  Zn111  1  0.68832191  0.19169728  0.18624863  1
  Zn  Zn112  1  0.68769841  0.19067829  0.68645732  1
  Zn  Zn113  1  0.68833561  0.68956998  0.18476964  1
  Zn  Zn114  1  0.68949595  0.69031464  0.68813196  1
  Zn  Zn115  1  0.31489168  0.31488114  0.31294797  1
  Zn  Zn116  1  0.31008190  0.31128571  0.80968721  1
  Zn  Zn117  1  0.31819455  0.81464658  0.30638364  1
  Zn  Zn118  1  0.30872443  0.80376171  0.80899183  1
  Zn  Zn119  1  0.81308477  0.31388516  0.30900502  1
  Zn  Zn120  1  0.81257629  0.31302403  0.81569315  1
  Zn  Zn121  1  0.81394943  0.81136717  0.30491201  1
  Zn  Zn122  1  0.80993903  0.81069265  0.81254560  1
  Zn  Zn123  1  0.18754630  0.44097513  0.43531527  1
  Zn  Zn124  1  0.18343004  0.44117381  0.93694458  1
  Zn  Zn125  1  0.18663836  0.93441870  0.43739903  1
  Zn  Zn126  1  0.18941640  0.93824621  0.93705599  1
  Zn  Zn127  1  0.68199083  0.44067887  0.43955946  1
  Zn  Zn128  1  0.68542669  0.44226276  0.93353839  1
  Zn  Zn129  1  0.68838459  0.93917848  0.43569161  1
  Zn  Zn130  1  0.68534198  0.93589621  0.93419322  1
  Zn  Zn131  1  0.31616533  0.06688368  0.06292602  1
  Zn  Zn132  1  0.31422834  0.06060155  0.56358664  1
  Zn  Zn133  1  0.30821371  0.56499332  0.06240945  1
  Zn  Zn134  1  0.30779693  0.56255147  0.56410817  1
  Zn  Zn135  1  0.81071772  0.05787430  0.06080374  1
  Zn  Zn136  1  0.81478519  0.06054743  0.55800294  1
  Zn  Zn137  1  0.84279853  0.50473207  0.08915736  1
  Zn  Zn138  1  0.81073375  0.56248285  0.56147095  1
  Zn  Zn139  1  0.43854700  0.43806352  0.18657759  1
  Zn  Zn140  1  0.43323990  0.43534952  0.68672774  1
  Zn  Zn141  1  0.44006013  0.93758487  0.18658544  1
  Zn  Zn142  1  0.43752936  0.93345808  0.80856646  1
  Zn  Zn143  1  0.93877170  0.43165966  0.20116981  1
  Zn  Zn144  1  0.93503184  0.43579864  0.68901153  1
  Zn  Zn145  1  0.93255206  0.93795789  0.18561707  1
  Zn  Zn146  1  0.93780542  0.93556395  0.68747170  1
  Zn  Zn147  1  0.06151743  0.06144497  0.31095593  1
  Zn  Zn148  1  0.06398066  0.06095559  0.81084705  1
  Zn  Zn149  1  0.06173482  0.56105539  0.31843599  1
  Zn  Zn150  1  0.06189872  0.56079739  0.81362620  1
  Zn  Zn151  1  0.56390317  0.06617517  0.31636839  1
  Zn  Zn152  1  0.56693275  0.06616561  0.81327100  1
  Zn  Zn153  1  0.55974358  0.56288090  0.31250776  1
  Zn  Zn154  1  0.56281563  0.56529726  0.82029749  1
  Zn  Zn155  1  0.43811496  0.18396352  0.43777251  1
  Zn  Zn156  1  0.43770811  0.18837796  0.93727552  1
  Zn  Zn157  1  0.43975290  0.68720317  0.43709299  1
  Zn  Zn158  1  0.43929903  0.68647832  0.93342041  1
  Zn  Zn159  1  0.93445057  0.18942925  0.43875721  1
  Zn  Zn160  1  0.93778493  0.18862940  0.94088335  1
  Zn  Zn161  1  0.94600368  0.68682830  0.43746287  1
  Zn  Zn162  1  0.93839334  0.67960542  0.93858224  1
  Zn  Zn163  1  0.06572964  0.31405231  0.06483738  1
  Zn  Zn164  1  0.06210664  0.30987065  0.56247925  1
  Zn  Zn165  1  0.05783935  0.80451980  0.06170801  1
  Zn  Zn166  1  0.06620908  0.80816735  0.56373914  1
  Zn  Zn167  1  0.56803673  0.31613054  0.06576392  1
  Zn  Zn168  1  0.56081587  0.31526052  0.56398165  1
  Zn  Zn169  1  0.56181104  0.81656561  0.06287618  1
  Zn  Zn170  1  0.56183890  0.81130008  0.56439693  1
  O  O171  1  0.11781701  0.11927707  0.12114473  1
  O  O172  1  0.12028649  0.11984319  0.62100826  1
  O  O173  1  0.11163576  0.62444513  0.12116879  1
  O  O174  1  0.12344877  0.62594040  0.60699218  1
  O  O175  1  0.61550523  0.13085172  0.11358129  1
  O  O176  1  0.62676521  0.12687880  0.61137688  1
  O  O177  1  0.61344327  0.61435102  0.13309536  1
  O  O178  1  0.62457641  0.62884380  0.61206479  1
  O  O179  1  0.37802401  0.38840067  0.37727783  1
  O  O180  1  0.38678112  0.37184802  0.87134362  1
  O  O181  1  0.38594493  0.88310225  0.37441255  1
  O  O182  1  0.37040293  0.87079419  0.87124575  1
  O  O183  1  0.88582631  0.36688674  0.38648512  1
  O  O184  1  0.88471667  0.38452205  0.86701648  1
  O  O185  1  0.88353991  0.88156764  0.37106083  1
  O  O186  1  0.87245654  0.88061145  0.88163674  1
  O  O187  1  0.25845426  -0.00361848  0.36661178  1
  O  O188  1  0.24335558  0.01242969  0.86566971  1
  O  O189  1  0.26146312  0.49779689  0.36351793  1
  O  O190  1  0.24645232  0.50874022  0.86283520  1
  O  O191  1  0.75862894  0.01008755  0.37400941  1
  O  O192  1  0.75847334  0.00337077  0.86557115  1
  O  O193  1  0.74500299  0.50753852  0.36703457  1
  O  O194  1  0.75563226  0.50855048  0.86780971  1
  O  O195  1  0.25804657  0.48852203  0.13559485  1
  O  O196  1  0.25115733  0.48937468  0.63539782  1
  O  O197  1  0.24528973  0.99459876  0.13059596  1
  O  O198  1  0.24675597  0.99111050  0.63279916  1
  O  O199  1  0.73614260  0.50873095  0.13276094  1
  O  O200  1  0.74635251  0.49468830  0.63232947  1
  O  O201  1  0.75215738  0.98406678  0.12665814  1
  O  O202  1  0.75823332  0.99037449  0.63487668  1
  O  O203  1  0.01429463  0.38050598  0.26481383  1
  O  O204  1  0.00879438  0.37254486  0.75378212  1
  O  O205  1  0.00586670  0.86827692  0.25153627  1
  O  O206  1  0.00829555  0.86699834  0.75149655  1
  O  O207  1  0.50655690  0.36935009  0.25060345  1
  O  O208  1  0.50308645  0.37252156  0.75857173  1
  O  O209  1  0.50864436  0.87452217  0.25691355  1
  O  O210  1  0.51214128  0.86501846  0.75097587  1
  O  O211  1  0.50456591  0.13378237  0.24140500  1
  O  O212  1  0.49199126  0.12992990  0.75197259  1
  O  O213  1  0.48908169  0.62360694  0.23640467  1
  O  O214  1  0.48950970  0.63087651  0.75552280  1
  O  O215  1  1.00292010  0.12480494  0.23368194  1
  O  O216  1  0.99341225  0.12620309  0.74351782  1
  O  O217  1  0.99518578  0.62617522  0.24423193  1
  O  O218  1  0.99146036  0.63025971  0.74807356  1
  O  O219  1  0.36392026  0.24533797  0.00887281  1
  O  O220  1  0.36394926  0.25060552  0.49826954  1
  O  O221  1  0.37527710  0.75236072  0.00937155  1
  O  O222  1  0.36914713  0.74809417  0.50765764  1
  O  O223  1  0.85933865  0.24712309  0.00243021  1
  O  O224  1  0.86461791  0.25955901  0.50602106  1
  O  O225  1  0.87984906  0.75988663  -0.00075352  1
  O  O226  1  0.87636753  0.74929581  0.50872780  1
  O  O227  1  0.13348753  0.24524286  0.49203650  1
  O  O228  1  0.13605710  0.24455400  0.99544127  1
  O  O229  1  0.13465281  0.73989371  0.50056991  1
  O  O230  1  0.12459772  0.73114086  1.00790895  1
  O  O231  1  0.63660058  0.24488673  0.50235044  1
  O  O232  1  0.63147079  0.24168286  0.99611893  1
  O  O233  1  0.62401332  0.73939933  0.49324406  1
  O  O234  1  0.61866458  0.75705175  0.98267384  1
  O  O235  1  0.49348479  0.24531180  0.12917058  1
  O  O236  1  0.49808001  0.24733512  0.63438733  1
  O  O237  1  0.49385988  0.74249803  0.12274863  1
  O  O238  1  0.48798918  0.75440938  0.63546807  1
  O  O239  1  0.99520082  0.23819513  0.11631214  1
  O  O240  1  0.99184544  0.24292071  0.62634372  1
  O  O241  1  0.99165642  0.74247195  0.13745250  1
  O  O242  1  0.98965585  0.75023381  0.63426511  1
  O  O243  1  0.01228685  0.26067491  0.38469347  1
  O  O244  1  0.00478338  0.25842164  0.87395959  1
  O  O245  1  -0.00605964  0.76024132  0.35845153  1
  O  O246  1  -0.00621234  0.74890179  0.86048899  1
  O  O247  1  0.49386765  0.24929555  0.35946253  1
  O  O248  1  0.50463948  0.25881497  0.87240666  1
  O  O249  1  0.50626627  0.76229564  0.37300431  1
  O  O250  1  0.51484209  0.74289532  0.86313918  1
  O  O251  1  0.24417680  0.13350583  0.50002043  1
  O  O252  1  0.24630128  0.13265348  0.99316442  1
  O  O253  1  0.24057263  0.63096502  0.49882721  1
  O  O254  1  0.24139957  0.62729914  0.99319474  1
  O  O255  1  0.74532572  0.13241397  0.49442123  1
  O  O256  1  0.74125693  0.12691514  0.99526096  1
  O  O257  1  0.73389773  0.62408400  0.49903624  1
  O  O258  1  0.75778637  0.62575710  0.98996501  1
  O  O259  1  0.24055127  0.36552740  0.00883704  1
  O  O260  1  0.24752920  0.36892774  0.50702426  1
  O  O261  1  0.25294278  0.87423353  0.00953356  1
  O  O262  1  0.24900209  0.86664984  0.50835870  1
  O  O263  1  0.74336010  0.36144275  -0.00733353  1
  O  O264  1  0.75399904  0.37169866  0.50181245  1
  O  O265  1  0.75415247  0.87845451  0.01025776  1
  O  O266  1  0.75013048  0.87237376  0.51033767  1
  O  O267  1  0.13674324  0.48975849  0.26108255  1
  O  O268  1  0.13301137  0.48959753  0.75153950  1
  O  O269  1  0.13357666  0.99170675  0.24178481  1
  O  O270  1  0.13506485  0.99225562  0.74391982  1
  O  O271  1  0.63510031  0.50027917  0.24561132  1
  O  O272  1  0.62910014  0.49703917  0.75155121  1
  O  O273  1  0.62641035  0.98656848  0.25807078  1
  O  O274  1  0.63670764  0.99061427  0.75830637  1
  O  O275  1  0.36765115  -0.00066566  0.25700655  1
  O  O276  1  0.36277958  0.00866617  0.75179725  1
  O  O277  1  0.36938402  0.50680925  0.25488758  1
  O  O278  1  0.36454219  0.50939329  0.74554905  1
  O  O279  1  0.87376059  0.00549633  0.26053579  1
  O  O280  1  0.86611723  0.00245331  0.75680303  1
  O  O281  1  0.86105127  0.50906486  0.25240833  1
  O  O282  1  0.86897052  0.50924165  0.75382351  1
  O  O283  1  0.12010821  0.36749697  0.37115285  1
  O  O284  1  0.11755943  0.37309809  0.86657195  1
  O  O285  1  0.11590628  0.88230160  0.36020874  1
  O  O286  1  0.12583262  0.87935711  0.86066875  1
  O  O287  1  0.62070835  0.38269667  0.36032466  1
  O  O288  1  0.61514195  0.37173172  0.86940229  1
  O  O289  1  0.61925300  0.86806474  0.36867945  1
  O  O290  1  0.63668079  0.85910378  0.86084187  1
  O  O291  1  0.38392613  0.13709302  0.12815140  1
  O  O292  1  0.37572430  0.12652189  0.63827437  1
  O  O293  1  0.38139910  0.63281921  0.12911135  1
  O  O294  1  0.36579331  0.63370448  0.63690399  1
  O  O295  1  0.89179460  0.11407519  0.12340188  1
  O  O296  1  0.87851986  0.12876454  0.62871805  1
  O  O297  1  0.89066339  0.61318553  0.13362601  1
  O  O298  1  0.87510839  0.63283840  0.63292947  1
  O  O299  1  0.25714104  0.25621236  0.11909048  1
  O  O300  1  0.24942707  0.25791558  0.61422609  1
  O  O301  1  0.25884453  0.76008765  0.12417884  1
  O  O302  1  0.25745362  0.75441533  0.61749536  1
  O  O303  1  0.74717843  0.25073817  0.10801510  1
  O  O304  1  0.75408090  0.25759127  0.61582458  1
  O  O305  1  0.75367534  0.76526767  0.12857832  1
  O  O306  1  0.76199908  0.75774783  0.62442625  1
  O  O307  1  0.24230213  0.25088966  0.38378090  1
  O  O308  1  0.24470329  0.24475054  0.88226428  1
  O  O309  1  0.25878157  0.75958700  0.38658790  1
  O  O310  1  0.24430665  0.73411744  0.87280334  1
  O  O311  1  0.75705218  0.24151197  0.38546450  1
  O  O312  1  0.74527090  0.24384412  0.88374155  1
  O  O313  1  0.73841577  0.75841440  0.37604109  1
  O  O314  1  0.73877159  0.74068893  0.86891686  1
  O  O315  1  0.00722564  0.11986519  0.00953495  1
  O  O316  1  0.00664090  0.12387503  0.50613975  1
  O  O317  1  0.00712238  0.62186854  0.01361150  1
  O  O318  1  0.00839581  0.61661802  0.50305850  1
  O  O319  1  0.50536866  0.11816402  0.00403491  1
  O  O320  1  0.50943542  0.11813834  0.49959211  1
  O  O321  1  0.49410279  0.61136557  0.00801521  1
  O  O322  1  0.51096270  0.61802081  0.49643552  1
  O  O323  1  0.49910708  0.38662056  0.49690462  1
  O  O324  1  0.50358802  0.38704843  0.99561875  1
  O  O325  1  0.50210279  0.88153531  0.49053653  1
  O  O326  1  0.49920752  0.89580112  1.00620242  1
  O  O327  1  0.99388847  0.38025317  0.49746892  1
  O  O328  1  1.00900105  0.37480387  0.98697563  1
  O  O329  1  1.00260449  0.87197507  0.48576191  1
  O  O330  1  0.99079048  0.87766637  0.99993790  1
  O  O331  1  0.48942879  0.50071243  0.38296751  1
  O  O332  1  0.50413513  0.49516300  0.89253902  1
  O  O333  1  0.49323768  0.99240672  0.37864138  1
  O  O334  1  0.49741131  1.00296395  0.88192985  1
  O  O335  1  1.00363483  0.48564668  0.38908371  1
  O  O336  1  0.98995073  0.49102552  0.86751981  1
  O  O337  1  0.99314618  0.99028289  0.37262461  1
  O  O338  1  0.98817187  0.99628831  0.87359772  1
  O  O339  1  0.01322085  0.00348677  0.12604604  1
  O  O340  1  0.00632002  0.00455274  0.62323975  1
  O  O341  1  0.00815892  0.50667981  0.13662595  1
  O  O342  1  -0.00424718  0.49802703  0.61252280  1
  O  O343  1  0.49431787  0.01455482  0.11747279  1
  O  O344  1  0.49600118  0.00141300  0.61049902  1
  O  O345  1  0.50432275  0.50520534  0.11442539  1
  O  O346  1  0.49709185  0.49722569  0.61217265  1
  O  O347  1  0.24468898  0.38299066  0.24434963  1
  O  O348  1  0.24244303  0.38139057  0.74502473  1
  O  O349  1  0.24455664  0.88227103  0.24135050  1
  O  O350  1  0.24337290  0.87871446  0.74235562  1
  O  O351  1  0.74357686  0.39359773  0.25653240  1
  O  O352  1  0.74357885  0.38097990  0.74703187  1
  O  O353  1  0.74437237  0.87854612  0.23959469  1
  O  O354  1  0.74491231  0.88039475  0.74097228  1
  O  O355  1  0.25006311  0.11203156  0.24963472  1
  O  O356  1  0.25427287  0.11879084  0.75490339  1
  O  O357  1  0.26018942  0.61563207  0.23712956  1
  O  O358  1  0.25241777  0.61823540  0.75572474  1
  O  O359  1  0.74771223  0.12562146  0.25967654  1
  O  O360  1  0.75289329  0.11722729  0.75385084  1
  O  O361  1  0.76202628  0.61839993  0.24750802  1
  O  O362  1  0.76066588  0.62111091  0.75062154  1
  O  O363  1  0.37279973  0.11174757  0.37103275  1
  O  O364  1  0.36199060  0.13264247  0.86503745  1
  O  O365  1  0.38147910  0.61960115  0.35943768  1
  O  O366  1  0.36395830  0.62886242  0.86386063  1
  O  O367  1  0.86757390  0.11983459  0.37331531  1
  O  O368  1  0.87084518  0.11555653  0.87050692  1
  O  O369  1  0.88257940  0.62588225  0.36093232  1
  O  O370  1  0.86962949  0.61998086  0.86415261  1
  O  O371  1  0.13646053  0.36662375  0.13901714  1
  O  O372  1  0.13359268  0.36766735  0.63476589  1
  O  O373  1  0.13396287  0.88163885  0.13064309  1
  O  O374  1  0.13420570  0.87829528  0.63284462  1
  O  O375  1  0.61971004  0.39435034  0.13799290  1
  O  O376  1  0.63032824  0.37910096  0.63379988  1
  O  O377  1  0.63626808  0.87033292  0.13273868  1
  O  O378  1  0.63690602  0.86623057  0.63578613  1
  O  O379  1  0.13501673  0.26088636  0.26232568  1
  O  O380  1  0.12599835  0.26098566  0.75750191  1
  O  O381  1  0.11757226  0.76082458  0.24136052  1
  O  O382  1  0.11573403  0.75732823  0.74058502  1
  O  O383  1  0.61601999  0.26455263  0.23950939  1
  O  O384  1  0.61987820  0.25571806  0.75742436  1
  O  O385  1  0.62332371  0.75877708  0.25690499  1
  O  O386  1  0.61710179  0.75383256  0.75230380  1
  O  O387  1  0.38316084  0.24960134  0.24119633  1
  O  O388  1  0.37926784  0.24059238  0.74846550  1
  O  O389  1  0.37773813  0.74318298  0.23727511  1
  O  O390  1  0.38201106  0.73966151  0.74300214  1
  O  O391  1  0.86788640  0.25291465  0.23455440  1
  O  O392  1  0.87198472  0.24218000  0.74301597  1
  O  O393  1  0.87937233  0.73359969  0.24416283  1
  O  O394  1  0.88104074  0.74290519  0.74310526  1
  O  O395  1  0.37934111  0.50597449  0.49132036  1
  O  O396  1  0.38437710  0.49664723  1.00550004  1
  O  O397  1  0.38202606  0.99683112  0.49074661  1
  O  O398  1  0.38773799  1.00394091  0.99827479  1
  O  O399  1  0.88043352  0.48837164  0.50259018  1
  O  O400  1  0.87247328  0.50794080  0.98020073  1
  O  O401  1  0.87875889  0.99581927  0.48540877  1
  O  O402  1  0.87423995  0.98902065  0.98836397  1
  O  O403  1  0.12717873  0.00507011  0.01029108  1
  O  O404  1  0.12530782  0.00563733  0.50591942  1
  O  O405  1  0.13265682  0.51634214  0.00685295  1
  O  O406  1  0.11977975  0.51081627  0.49746700  1
  O  O407  1  0.61301754  0.01211241  -0.01079515  1
  O  O408  1  0.61710569  0.00893350  0.49452361  1
  O  O409  1  0.62331064  0.49874777  0.01472074  1
  O  O410  1  0.61651191  0.51382834  0.50094539  1
  O  O411  1  0.36448634  0.36462377  0.13030291  1
  O  O412  1  0.36018764  0.37080883  0.62224537  1
  O  O413  1  0.36749016  0.86843549  0.12579728  1
  O  O414  1  0.36051523  0.86150501  0.62440980  1
  O  O415  1  0.87712715  0.39894256  0.11688949  1
  O  O416  1  0.86718547  0.37026900  0.61680793  1
  O  O417  1  0.86517649  0.87440431  0.11556913  1
  O  O418  1  0.86762906  0.86606925  0.62387058  1
  O  O419  1  0.12578296  0.13265751  0.37874817  1
  O  O420  1  0.13346842  0.13078595  0.87802119  1
  O  O421  1  0.11778265  0.62711075  0.39175928  1
  O  O422  1  0.12785540  0.61989450  0.88902015  1
  O  O423  1  0.63748367  0.12337788  0.38649130  1
  O  O424  1  0.63052842  0.13351077  0.88291411  1
  O  O425  1  0.61777983  0.63816227  0.37996038  1
  O  O426  1  0.63612472  0.63722569  0.87267200  1
