# generated using pymatgen
data_V85Zn86O256
_symmetry_space_group_name_H-M   'P 1'
_cell_length_a   16.95250188
_cell_length_b   16.96028037
_cell_length_c   16.95652319
_cell_angle_alpha   89.93244615
_cell_angle_beta   89.91788250
_cell_angle_gamma   89.96730033
_symmetry_Int_Tables_number   1
_chemical_formula_structural   V85Zn86O256
_chemical_formula_sum   'V85 Zn86 O256'
_cell_volume   4875.31654129
_cell_formula_units_Z   1
loop_
 _symmetry_equiv_pos_site_id
 _symmetry_equiv_pos_as_xyz
  1  'x, y, z'
loop_
 _atom_site_type_symbol
 _atom_site_label
 _atom_site_symmetry_multiplicity
 _atom_site_fract_x
 _atom_site_fract_y
 _atom_site_fract_z
 _atom_site_occupancy
  V  V0  1  0.62329663  0.86607473  0.25630444  1
  V  V1  1  0.37410942  0.37468109  0.50077699  1
  V  V2  1  0.62115711  0.49820340  0.12449975  1
  V  V3  1  0.86619654  0.62275221  0.74984733  1
  V  V4  1  0.11887837  0.25736386  0.86855780  1
  V  V5  1  0.50163339  0.50050143  0.50256643  1
  V  V6  1  0.12744213  0.24846311  0.37547647  1
  V  V7  1  0.49297171  0.00163771  0.49645288  1
  V  V8  1  0.74933537  0.60516448  0.37107754  1
  V  V9  1  0.12266726  0.50025974  0.62528449  1
  V  V10  1  0.24890274  0.49978900  0.75370723  1
  V  V11  1  0.12486945  0.87175365  0.75363138  1
  V  V12  1  0.25281308  0.01188748  0.75614018  1
  V  V13  1  0.25618777  0.77117239  -0.00210912  1
  V  V14  1  0.87717814  0.12346142  0.25226603  1
  V  V15  1  0.74938111  0.12589865  0.37795023  1
  V  V16  1  0.87557351  0.37546900  0.49667212  1
  V  V17  1  0.87592068  0.25175738  0.12648488  1
  V  V18  1  0.13158008  0.87439781  0.24092339  1
  V  V19  1  0.12991976  0.63239307  -0.00816611  1
  V  V20  1  0.74464536  0.75282766  0.48383140  1
  V  V21  1  0.24873875  0.37597371  0.62650941  1
  V  V22  1  -0.00058421  0.87012548  0.87524466  1
  V  V23  1  0.63191677  0.37767207  0.25026231  1
  V  V24  1  -0.00290727  0.62526436  0.62302802  1
  V  V25  1  0.00239412  0.87471756  0.37446072  1
  V  V26  1  0.87333035  0.74824912  0.12637239  1
  V  V27  1  0.51635408  0.25776010  0.76343739  1
  V  V28  1  0.74670037  0.87366918  0.12625407  1
  V  V29  1  0.00063802  -0.00181061  0.49918049  1
  V  V30  1  0.62355801  0.12813199  0.49798012  1
  V  V31  1  0.50583557  0.37061447  0.37633888  1
  V  V32  1  0.86947874  0.87274065  -0.00039601  1
  V  V33  1  0.37133760  0.75829734  0.13533528  1
  V  V34  1  0.62447197  0.86578557  0.75488529  1
  V  V35  1  0.86422989  0.00370519  0.87499867  1
  V  V36  1  0.37733703  0.50397868  0.36717230  1
  V  V37  1  -0.00160852  -0.00095692  0.00008790  1
  V  V38  1  0.37760708  0.12010360  0.25429430  1
  V  V39  1  0.12437553  -0.00356308  0.62647707  1
  V  V40  1  0.73901501  0.74778223  -0.00219229  1
  V  V41  1  0.36317585  0.25603386  0.12344308  1
  V  V42  1  0.87758783  -0.00086415  0.37571962  1
  V  V43  1  0.10672440  0.37638304  0.75315230  1
  V  V44  1  0.25290860  0.62553182  0.36715748  1
  V  V45  1  0.49581958  0.63600981  0.61767482  1
  V  V46  1  0.00016833  0.74875100  0.24902457  1
  V  V47  1  0.62170190  -0.00013611  0.62706677  1
  V  V48  1  0.00254474  0.37651718  0.37410560  1
  V  V49  1  0.00282996  0.24784487  0.25223123  1
  V  V50  1  0.37132753  0.63222313  0.74355286  1
  V  V51  1  0.12596661  0.12297204  0.50049684  1
  V  V52  1  0.38036180  0.49875533  0.87688088  1
  V  V53  1  0.50114437  0.75050375  0.76513775  1
  V  V54  1  0.75530647  0.25000539  -0.00309876  1
  V  V55  1  0.50246003  0.12507906  0.12281175  1
  V  V56  1  0.12693073  0.74911353  0.37325348  1
  V  V57  1  0.36657014  0.38080883  0.00177238  1
  V  V58  1  -0.00059577  0.74913503  0.75079039  1
  V  V59  1  0.13347846  0.13180112  -0.00352833  1
  V  V60  1  0.74805578  0.24924517  0.49974648  1
  V  V61  1  0.13115912  0.49507519  0.12194509  1
  V  V62  1  0.50701284  0.24910906  0.25539302  1
  V  V63  1  0.63311055  0.12809799  -0.00855073  1
  V  V64  1  0.87586321  0.49754124  0.87543212  1
  V  V65  1  0.49787840  0.87136961  0.37593621  1
  V  V66  1  0.75178996  0.87041492  0.62334270  1
  V  V67  1  0.25480843  0.74936448  0.50645903  1
  V  V68  1  0.62122484  0.00229612  0.12725943  1
  V  V69  1  0.74215878  0.62669619  0.87420040  1
  V  V70  1  0.00242283  0.12172035  0.12478286  1
  V  V71  1  -0.00220641  0.50156488  0.49471102  1
  V  V72  1  0.00139376  0.49537901  -0.00481845  1
  V  V73  1  -0.00299079  0.13039312  0.63460925  1
  V  V74  1  0.25341300  -0.00320317  0.24277155  1
  V  V75  1  0.74357734  0.38257313  0.62880015  1
  V  V76  1  0.87357030  0.60839307  0.25231666  1
  V  V77  1  0.37605025  0.24610015  0.63936089  1
  V  V78  1  0.37561027  0.87448539  0.50883895  1
  V  V79  1  0.61152510  0.62233228  0.00121488  1
  V  V80  1  0.25234915  0.49342057  0.24549813  1
  V  V81  1  0.75056102  -0.00010909  0.25204711  1
  V  V82  1  0.25593457  0.11622757  0.37720085  1
  V  V83  1  0.74767881  0.00523560  0.75264422  1
  V  V84  1  0.25189962  0.24910301  0.50064355  1
  Zn  Zn85  1  0.75863919  0.38339490  0.13490227  1
  Zn  Zn86  1  0.00174299  0.62430546  0.12382485  1
  Zn  Zn87  1  0.13239754  0.36892163  0.24087796  1
  Zn  Zn88  1  0.67801393  0.43458124  0.79504180  1
  Zn  Zn89  1  0.87178649  0.13058627  0.76010367  1
  Zn  Zn90  1  0.61969859  0.63088991  0.49155483  1
  Zn  Zn91  1  0.49576340  0.12274667  0.63261678  1
  Zn  Zn92  1  0.25911223  0.87003450  0.63215596  1
  Zn  Zn93  1  0.48583827  0.61762991  0.14127027  1
  Zn  Zn94  1  0.12523221  0.62574772  0.49871216  1
  Zn  Zn95  1  0.24727231  0.63801797  0.87029623  1
  Zn  Zn96  1  0.87782712  0.87210448  0.49910042  1
  Zn  Zn97  1  0.87264989  0.74820057  0.62072193  1
  Zn  Zn98  1  0.62655951  0.50543675  0.62909102  1
  Zn  Zn99  1  0.54246524  0.43225778  -0.06328332  1
  Zn  Zn100  1  0.13302457  -0.00434806  0.11686524  1
  Zn  Zn101  1  0.26537677  0.13360852  0.88012213  1
  Zn  Zn102  1  0.45311231  0.93948690  -0.06606426  1
  Zn  Zn103  1  0.88265517  0.37119059  -0.00498488  1
  Zn  Zn104  1  0.87907363  0.25548940  0.63377850  1
  Zn  Zn105  1  0.63321083  0.26707251  0.87764187  1
  Zn  Zn106  1  0.49908124  0.74045492  0.25678178  1
  Zn  Zn107  1  0.18672957  0.18138928  0.18837579  1
  Zn  Zn108  1  0.18252143  0.19186812  0.68871236  1
  Zn  Zn109  1  0.19282811  0.68452790  0.18003849  1
  Zn  Zn110  1  0.18259794  0.68665700  0.68595702  1
  Zn  Zn111  1  0.69059716  0.18964339  0.18962912  1
  Zn  Zn112  1  0.68754515  0.19016779  0.68467562  1
  Zn  Zn113  1  0.68642858  0.68028920  0.18649750  1
  Zn  Zn114  1  0.68201247  0.68474844  0.68068683  1
  Zn  Zn115  1  0.31664538  0.31093869  0.31342451  1
  Zn  Zn116  1  0.30264475  0.31505648  0.82216639  1
  Zn  Zn117  1  0.31683524  0.81796067  0.32054110  1
  Zn  Zn118  1  0.31313875  0.81915993  0.81764776  1
  Zn  Zn119  1  0.81514330  0.31070415  0.31607058  1
  Zn  Zn120  1  0.82111110  0.30994945  0.81118863  1
  Zn  Zn121  1  0.81604521  0.81296791  0.30894875  1
  Zn  Zn122  1  0.81055119  0.81125563  0.81298895  1
  Zn  Zn123  1  0.18718489  0.43855830  0.43626917  1
  Zn  Zn124  1  0.19015501  0.43534219  0.93937351  1
  Zn  Zn125  1  0.18951999  0.93390591  0.43599573  1
  Zn  Zn126  1  0.18634960  0.94336494  0.93292029  1
  Zn  Zn127  1  0.68528436  0.43567877  0.44004480  1
  Zn  Zn128  1  0.70762839  0.44481911  0.96101419  1
  Zn  Zn129  1  0.68444185  0.93954898  0.43722751  1
  Zn  Zn130  1  0.64634217  0.91968760  0.95593525  1
  Zn  Zn131  1  0.32201277  0.05547853  0.05823309  1
  Zn  Zn132  1  0.31253545  0.06039055  0.56989990  1
  Zn  Zn133  1  0.31455178  0.56863736  0.06355525  1
  Zn  Zn134  1  0.31222599  0.56247844  0.55963755  1
  Zn  Zn135  1  0.81172206  0.06201247  0.06385688  1
  Zn  Zn136  1  0.81341971  0.05920064  0.56403297  1
  Zn  Zn137  1  0.80976308  0.56334997  0.06386009  1
  Zn  Zn138  1  0.81410523  0.56453407  0.55624946  1
  Zn  Zn139  1  0.44185340  0.43464650  0.18567304  1
  Zn  Zn140  1  0.43919268  0.43717053  0.69012895  1
  Zn  Zn141  1  0.43801797  0.93414930  0.18460473  1
  Zn  Zn142  1  0.44143939  0.93916249  0.71267715  1
  Zn  Zn143  1  0.94950909  0.43662879  0.18393330  1
  Zn  Zn144  1  0.92825360  0.44316415  0.68275802  1
  Zn  Zn145  1  0.93926665  0.93513491  0.18706505  1
  Zn  Zn146  1  0.93457404  0.93967121  0.68846555  1
  Zn  Zn147  1  0.06800076  0.05967926  0.31160743  1
  Zn  Zn148  1  0.06239945  0.05941209  0.81773946  1
  Zn  Zn149  1  0.06633342  0.56226301  0.30918366  1
  Zn  Zn150  1  0.05949345  0.56417758  0.81298972  1
  Zn  Zn151  1  0.56307011  0.05859614  0.31513812  1
  Zn  Zn152  1  0.43592368  0.07888935  0.81054344  1
  Zn  Zn153  1  0.56701151  0.56040887  0.31020006  1
  Zn  Zn154  1  0.56014253  0.57292002  0.80829558  1
  Zn  Zn155  1  0.43682627  0.18795676  0.44183882  1
  Zn  Zn156  1  0.44433834  0.19960535  0.94535852  1
  Zn  Zn157  1  0.43437134  0.68976550  0.43396074  1
  Zn  Zn158  1  0.42629650  0.69025008  0.93792606  1
  Zn  Zn159  1  0.93757432  0.18800752  0.44293370  1
  Zn  Zn160  1  0.94244258  0.18606880  0.93749151  1
  Zn  Zn161  1  0.93221006  0.68785763  0.43372632  1
  Zn  Zn162  1  0.93529445  0.68368336  0.93851960  1
  Zn  Zn163  1  0.06444131  0.31118560  0.05993811  1
  Zn  Zn164  1  0.06527638  0.31275494  0.56286106  1
  Zn  Zn165  1  0.06134960  0.80940171  0.06146477  1
  Zn  Zn166  1  0.06520402  0.80985773  0.56254691  1
  Zn  Zn167  1  0.55882011  0.31045765  0.06746421  1
  Zn  Zn168  1  0.56101079  0.31213564  0.56588969  1
  Zn  Zn169  1  0.54510472  0.81203222  0.06409793  1
  Zn  Zn170  1  0.56526539  0.81462044  0.56002060  1
  O  O171  1  0.12005844  0.12388848  0.11334982  1
  O  O172  1  0.11627766  0.11642367  0.62089372  1
  O  O173  1  0.12556155  0.61344995  0.11298312  1
  O  O174  1  0.11466182  0.61789191  0.62207491  1
  O  O175  1  0.61868942  0.11812682  0.13296616  1
  O  O176  1  0.62444728  0.11538300  0.61553957  1
  O  O177  1  0.62333728  0.61521737  0.11592559  1
  O  O178  1  0.61219386  0.62292533  0.61272185  1
  O  O179  1  0.38471556  0.38254250  0.38045062  1
  O  O180  1  0.36967897  0.38362942  0.88840211  1
  O  O181  1  0.38595153  0.87870689  0.39049035  1
  O  O182  1  0.39273700  0.88339904  0.85726382  1
  O  O183  1  0.88962652  0.36750310  0.38530791  1
  O  O184  1  0.86772924  0.39354032  0.87502731  1
  O  O185  1  0.88469458  0.88222592  0.37290427  1
  O  O186  1  0.88019687  0.88126377  0.88018789  1
  O  O187  1  0.24628069  0.01159145  0.36731702  1
  O  O188  1  0.24837709  0.00418459  0.85921893  1
  O  O189  1  0.25723034  0.50628472  0.36958903  1
  O  O190  1  0.25642341  0.50116312  0.86311369  1
  O  O191  1  0.75716699  0.00533315  0.37164960  1
  O  O192  1  0.75819278  -0.00937853  0.86344546  1
  O  O193  1  0.75672195  0.50686201  0.38256734  1
  O  O194  1  0.75914406  0.51290327  0.87862326  1
  O  O195  1  0.24582908  0.50670374  0.13617458  1
  O  O196  1  0.24416637  0.49685667  0.63327550  1
  O  O197  1  0.25197097  1.00675339  0.13818522  1
  O  O198  1  0.23439250  0.99800584  0.63119703  1
  O  O199  1  0.73233566  0.49629216  0.11542039  1
  O  O200  1  0.74969013  0.48612084  0.61188963  1
  O  O201  1  0.74379085  0.99473499  0.13358535  1
  O  O202  1  0.74357477  0.98950967  0.62819265  1
  O  O203  1  0.00503658  0.36809926  0.26038653  1
  O  O204  1  0.00825830  0.38591048  0.74484423  1
  O  O205  1  0.01027103  0.86951871  0.25473517  1
  O  O206  1  0.00280888  0.86867007  0.75548015  1
  O  O207  1  0.50706257  0.36698576  0.25875421  1
  O  O208  1  0.49517526  0.35658733  0.74504476  1
  O  O209  1  0.50683867  0.87712754  0.26099439  1
  O  O210  1  0.50995505  0.85027107  0.73021241  1
  O  O211  1  0.49525474  0.13044691  0.24964998  1
  O  O212  1  0.49280473  0.15333209  0.74438993  1
  O  O213  1  0.50109174  0.62799134  0.25500795  1
  O  O214  1  0.49183138  0.63846518  0.73874742  1
  O  O215  1  0.99749760  0.12810715  0.24663461  1
  O  O216  1  1.00259731  0.11682196  0.73607214  1
  O  O217  1  0.98767306  0.62864120  0.25118502  1
  O  O218  1  0.99189567  0.63327289  0.74547985  1
  O  O219  1  0.37308275  0.25694560  0.01808256  1
  O  O220  1  0.36943709  0.25686304  0.50817911  1
  O  O221  1  0.36112748  0.75833808  0.00247767  1
  O  O222  1  0.36345354  0.75869139  0.49584331  1
  O  O223  1  0.87434696  0.24721938  0.01010202  1
  O  O224  1  0.86891809  0.25833754  0.50709145  1
  O  O225  1  0.86540093  0.75309901  0.00662824  1
  O  O226  1  0.86214631  0.75301207  0.50067111  1
  O  O227  1  0.13296801  0.24314782  0.49631535  1
  O  O228  1  0.12401877  0.23819224  0.99318743  1
  O  O229  1  0.13472471  0.74969040  0.49091777  1
  O  O230  1  0.13493958  0.73767510  1.00733412  1
  O  O231  1  0.63235459  0.23801866  0.50783189  1
  O  O232  1  0.63838392  0.24391729  1.00717202  1
  O  O233  1  0.64109122  0.74921862  0.49868968  1
  O  O234  1  0.63580081  0.74032131  1.01091721  1
  O  O235  1  0.49259541  0.24145247  0.13902782  1
  O  O236  1  0.48441492  0.25257246  0.62830136  1
  O  O237  1  0.48709231  0.74610016  0.13272389  1
  O  O238  1  0.49747231  0.73691765  0.61306941  1
  O  O239  1  0.99561837  0.24329295  0.13112253  1
  O  O240  1  1.00309861  0.23311855  0.61945973  1
  O  O241  1  0.99192262  0.74602198  0.13039203  1
  O  O242  1  0.99638705  0.74499986  0.63281258  1
  O  O243  1  0.00689622  0.25493361  0.37280927  1
  O  O244  1  0.01802286  0.24723304  0.87922336  1
  O  O245  1  0.00638678  0.75385936  0.36897794  1
  O  O246  1  -0.00949685  0.76057618  0.86583981  1
  O  O247  1  0.49285514  0.26038029  0.36862957  1
  O  O248  1  0.51059035  0.25438592  0.86758330  1
  O  O249  1  0.49828447  0.76509567  0.37573430  1
  O  O250  1  0.50006154  0.74704877  0.86323696  1
  O  O251  1  0.24702480  0.12676400  0.49413117  1
  O  O252  1  0.23447318  0.11575194  1.00131765  1
  O  O253  1  0.24892332  0.63142971  0.49007639  1
  O  O254  1  0.23670006  0.62440007  0.99452130  1
  O  O255  1  0.74409181  0.13016717  0.49961498  1
  O  O256  1  0.74257814  0.13692623  1.01069118  1
  O  O257  1  0.75546293  0.63559568  0.48434127  1
  O  O258  1  0.74209557  0.63109025  0.99296356  1
  O  O259  1  0.26529994  0.37565222  0.00402063  1
  O  O260  1  0.25331923  0.37056577  0.50545262  1
  O  O261  1  0.23948386  0.86951900  0.00108441  1
  O  O262  1  0.25826382  0.86822364  0.50090376  1
  O  O263  1  0.76438428  0.36283816  0.01568784  1
  O  O264  1  0.75739345  0.36771276  0.50179633  1
  O  O265  1  0.74701756  0.86623597  0.00623963  1
  O  O266  1  0.74971227  0.86587643  0.50335244  1
  O  O267  1  0.13299317  0.49736313  0.23953198  1
  O  O268  1  0.13009421  0.49662009  0.74704417  1
  O  O269  1  0.13463024  0.99212392  0.24524117  1
  O  O270  1  0.12872623  0.99071606  0.74434000  1
  O  O271  1  0.62439356  0.48581815  0.24217967  1
  O  O272  1  0.61763752  0.50718175  0.74076508  1
  O  O273  1  0.63151954  0.99430411  0.24468365  1
  O  O274  1  0.63430421  0.98552214  0.73510315  1
  O  O275  1  0.37104920  0.01301592  0.24450489  1
  O  O276  1  0.35233651  0.01091024  0.73078724  1
  O  O277  1  0.36966880  0.49181249  0.26044344  1
  O  O278  1  0.36619701  0.50637875  0.75552713  1
  O  O279  1  0.87123816  0.00451004  0.25506334  1
  O  O280  1  0.86532640  0.00113023  0.75745282  1
  O  O281  1  0.88000217  0.50979684  0.24397997  1
  O  O282  1  0.87964180  0.51524845  0.75882540  1
  O  O283  1  0.11608475  0.36623954  0.37756795  1
  O  O284  1  0.12795037  0.36572406  0.86873180  1
  O  O285  1  0.12125423  0.86900111  0.36436171  1
  O  O286  1  0.11054284  0.88183659  0.86403026  1
  O  O287  1  0.61290346  0.38048338  0.36807894  1
  O  O288  1  0.63623662  0.38431286  0.88803187  1
  O  O289  1  0.61533399  0.88284614  0.36578117  1
  O  O290  1  0.63361417  0.87414075  0.85249159  1
  O  O291  1  0.38434725  0.13566599  0.13462095  1
  O  O292  1  0.37198070  0.14322443  0.62287183  1
  O  O293  1  0.37759080  0.64482331  0.11378799  1
  O  O294  1  0.38057296  0.61803929  0.63560990  1
  O  O295  1  0.88246795  0.13102051  0.13223752  1
  O  O296  1  0.89177774  0.12027146  0.62401378  1
  O  O297  1  0.87181098  0.62943683  0.13856367  1
  O  O298  1  0.87810096  0.62432657  0.63348698  1
  O  O299  1  0.26505214  0.24692929  0.13720528  1
  O  O300  1  0.25587081  0.25547571  0.62086334  1
  O  O301  1  0.25972707  0.74908432  0.11187835  1
  O  O302  1  0.24195343  0.75163046  0.61157571  1
  O  O303  1  0.76587417  0.24812927  0.12295415  1
  O  O304  1  0.75187909  0.26102235  0.61322462  1
  O  O305  1  0.75462555  0.75346390  0.11855284  1
  O  O306  1  0.74974754  0.75754252  0.61486129  1
  O  O307  1  0.24748133  0.24002604  0.38029445  1
  O  O308  1  0.22951546  0.24308315  0.87121483  1
  O  O309  1  0.24725241  0.74195575  0.38081923  1
  O  O310  1  0.25192766  0.75366361  0.89098728  1
  O  O311  1  0.75656893  0.24240904  0.39134527  1
  O  O312  1  0.75415683  0.25654353  0.89244410  1
  O  O313  1  0.75223618  0.75067412  0.38262161  1
  O  O314  1  0.75546961  0.74049571  0.88753947  1
  O  O315  1  0.00898465  0.11775176  0.00656367  1
  O  O316  1  0.00747675  0.11684521  0.50706963  1
  O  O317  1  0.01243484  0.61991618  0.00083473  1
  O  O318  1  -0.00243730  0.61669919  0.50184172  1
  O  O319  1  0.52137088  0.14179519  0.01690997  1
  O  O320  1  0.50666992  0.11877310  0.50289154  1
  O  O321  1  0.51224183  0.63550099  -0.00571064  1
  O  O322  1  0.49589180  0.61652611  0.50076438  1
  O  O323  1  0.49614657  0.38047783  0.49400106  1
  O  O324  1  0.48148318  0.36642464  1.00386940  1
  O  O325  1  0.49589546  0.88255627  0.49612294  1
  O  O326  1  0.53928210  0.89247567  0.99016921  1
  O  O327  1  0.99508835  0.37987121  0.49501277  1
  O  O328  1  0.99977776  0.38971738  1.00192615  1
  O  O329  1  1.00185225  0.88001151  0.49310381  1
  O  O330  1  0.99311879  0.87616125  0.99285643  1
  O  O331  1  0.49324317  0.49177951  0.38181088  1
  O  O332  1  0.48463040  0.50572404  0.86849031  1
  O  O333  1  0.50355761  0.99282946  0.38985228  1
  O  O334  1  0.48473754  0.97951309  0.82236689  1
  O  O335  1  1.01000563  0.48883882  0.38323818  1
  O  O336  1  0.98871870  0.50936495  0.88444605  1
  O  O337  1  0.99808024  0.99538313  0.37937313  1
  O  O338  1  0.98967145  0.98749085  0.87943738  1
  O  O339  1  0.00073197  0.00440740  0.11789303  1
  O  O340  1  0.00853685  0.00518318  0.62084027  1
  O  O341  1  0.01098943  0.50520282  0.11453338  1
  O  O342  1  0.00306039  0.50546954  0.61467353  1
  O  O343  1  0.51042150  0.01273228  0.13428959  1
  O  O344  1  0.50929851  0.00088730  0.62081133  1
  O  O345  1  0.51290247  0.50171194  0.12807645  1
  O  O346  1  0.49398719  0.50728465  0.61261757  1
  O  O347  1  0.24776934  0.38774595  0.26041327  1
  O  O348  1  0.24092524  0.38673559  0.74590817  1
  O  O349  1  0.24284183  0.88668008  0.26040959  1
  O  O350  1  0.23899541  0.88212818  0.74940314  1
  O  O351  1  0.73696476  0.36239582  0.25198284  1
  O  O352  1  0.75578235  0.37511462  0.73254590  1
  O  O353  1  0.74340068  0.88035127  0.24675808  1
  O  O354  1  0.74474277  0.87527066  0.73884707  1
  O  O355  1  0.25796149  0.11749824  0.25847106  1
  O  O356  1  0.23463045  0.11350905  0.75286842  1
  O  O357  1  0.24623007  0.61418385  0.26132351  1
  O  O358  1  0.25359810  0.61882269  0.74879618  1
  O  O359  1  0.75686098  0.12075374  0.25799737  1
  O  O360  1  0.74892202  0.10806528  0.73979273  1
  O  O361  1  0.76059426  0.62511001  0.26064038  1
  O  O362  1  0.75763938  0.63682455  0.75823974  1
  O  O363  1  0.36713685  0.13130399  0.36638547  1
  O  O364  1  0.37720490  0.12936476  0.88963330  1
  O  O365  1  0.36564829  0.61324359  0.37905956  1
  O  O366  1  0.36943358  0.61695130  0.86353618  1
  O  O367  1  0.87158775  0.11949764  0.37160342  1
  O  O368  1  0.88232869  0.10779093  0.87753859  1
  O  O369  1  0.86607087  0.62566291  0.36038401  1
  O  O370  1  0.86504845  0.61985137  0.86858295  1
  O  O371  1  0.12342819  0.38912272  0.12207275  1
  O  O372  1  0.12864271  0.38000988  0.63393853  1
  O  O373  1  0.12173779  0.87477002  0.13739402  1
  O  O374  1  0.12194789  0.88280063  0.63600141  1
  O  O375  1  0.62463773  0.37951088  0.13460915  1
  O  O376  1  0.64072990  0.37703488  0.61714165  1
  O  O377  1  0.62822058  0.88663047  0.13605515  1
  O  O378  1  0.63480251  0.88022163  0.62690569  1
  O  O379  1  0.12064756  0.24919980  0.25623484  1
  O  O380  1  0.12219541  0.26162783  0.75852550  1
  O  O381  1  0.12310210  0.75475126  0.25227245  1
  O  O382  1  0.11172834  0.75894477  0.74560115  1
  O  O383  1  0.61282814  0.25649887  0.24648243  1
  O  O384  1  0.62123777  0.25386141  0.75359428  1
  O  O385  1  0.62667687  0.76458148  0.24258508  1
  O  O386  1  0.61060354  0.74907290  0.74564651  1
  O  O387  1  0.38477200  0.24276737  0.24434740  1
  O  O388  1  0.36626999  0.25720454  0.73937197  1
  O  O389  1  0.36841617  0.75453905  0.23950299  1
  O  O390  1  0.38319806  0.73991986  0.75369554  1
  O  O391  1  0.88267666  0.24281446  0.24586284  1
  O  O392  1  0.87331055  0.24078596  0.74480648  1
  O  O393  1  0.88168168  0.74533328  0.24304878  1
  O  O394  1  0.88345651  0.74182589  0.74746107  1
  O  O395  1  0.38123519  0.49395979  0.49013154  1
  O  O396  1  0.37095821  0.49115473  0.99314381  1
  O  O397  1  0.38620566  0.99581107  0.50809417  1
  O  O398  1  0.40089470  1.02253377  0.99042450  1
  O  O399  1  0.88827807  0.48959894  0.50135849  1
  O  O400  1  0.88431439  0.50457831  0.99391966  1
  O  O401  1  0.88198336  0.99641972  0.49273952  1
  O  O402  1  0.87599361  0.99221129  0.99483924  1
  O  O403  1  0.11655854  0.00927187  -0.00111215  1
  O  O404  1  0.12194861  0.00186335  0.50766222  1
  O  O405  1  0.12122199  0.50735345  0.00226473  1
  O  O406  1  0.11475543  0.49968799  0.50651727  1
  O  O407  1  0.63785657  0.02028466  0.01700287  1
  O  O408  1  0.61775450  0.00569872  0.51000922  1
  O  O409  1  0.61734640  0.50661561  0.00493641  1
  O  O410  1  0.60972831  0.50121772  0.50015355  1
  O  O411  1  0.37655162  0.36387890  0.12129687  1
  O  O412  1  0.36724216  0.36799076  0.61996991  1
  O  O413  1  0.38160364  0.86034492  0.12089918  1
  O  O414  1  0.37690435  0.87941473  0.61301460  1
  O  O415  1  0.88082176  0.36079260  0.12976994  1
  O  O416  1  0.86591271  0.37533148  0.61291011  1
  O  O417  1  0.86726747  0.86963374  0.11972955  1
  O  O418  1  0.86316033  0.87494307  0.62264627  1
  O  O419  1  0.13497709  0.12885687  0.38034407  1
  O  O420  1  0.12280367  0.13040503  0.88707239  1
  O  O421  1  0.13475667  0.63008017  0.37602006  1
  O  O422  1  0.12544875  0.62419239  0.88720919  1
  O  O423  1  0.63275526  0.11646065  0.38987036  1
  O  O424  1  0.62782793  0.12969987  0.89513228  1
  O  O425  1  0.64495335  0.61828383  0.37474357  1
  O  O426  1  0.63507631  0.61950890  0.88461490  1
