# generated using pymatgen
data_V85Zn86O256
_symmetry_space_group_name_H-M   'P 1'
_cell_length_a   16.97427145
_cell_length_b   16.96942471
_cell_length_c   16.96767006
_cell_angle_alpha   89.92898055
_cell_angle_beta   89.98559139
_cell_angle_gamma   90.07665764
_symmetry_Int_Tables_number   1
_chemical_formula_structural   V85Zn86O256
_chemical_formula_sum   'V85 Zn86 O256'
_cell_volume   4887.42084192
_cell_formula_units_Z   1
loop_
 _symmetry_equiv_pos_site_id
 _symmetry_equiv_pos_as_xyz
  1  'x, y, z'
loop_
 _atom_site_type_symbol
 _atom_site_label
 _atom_site_symmetry_multiplicity
 _atom_site_fract_x
 _atom_site_fract_y
 _atom_site_fract_z
 _atom_site_occupancy
  V  V0  1  0.00681369  0.75236206  0.75329748  1
  V  V1  1  0.00006932  0.50495196  0.50879800  1
  V  V2  1  0.75165571  0.62517124  0.87521371  1
  V  V3  1  -0.00571563  0.24502754  0.75111909  1
  V  V4  1  0.11869846  0.00252382  0.63008401  1
  V  V5  1  0.50267694  0.87649646  0.87662973  1
  V  V6  1  0.62412223  0.37711826  0.75027218  1
  V  V7  1  0.13211230  0.63651781  -0.00240649  1
  V  V8  1  0.74976919  0.49902579  0.74736104  1
  V  V9  1  0.50581709  0.62386376  0.62447603  1
  V  V10  1  -0.00310259  0.50150565  0.00000198  1
  V  V11  1  0.87780987  0.00321878  0.88682615  1
  V  V12  1  0.75025075  -0.00291979  0.24769512  1
  V  V13  1  0.74665210  0.49783629  0.25091900  1
  V  V14  1  0.87013710  0.50485826  0.37609022  1
  V  V15  1  0.37462752  0.12515067  0.75205510  1
  V  V16  1  0.76081451  0.02000742  0.75018605  1
  V  V17  1  0.50433772  0.11943677  0.61164251  1
  V  V18  1  0.63042827  0.24542712  0.87425971  1
  V  V19  1  0.50101386  0.50018513  0.49789998  1
  V  V20  1  0.63123385  0.12484405  -0.00288746  1
  V  V21  1  0.50366645  0.74906659  0.75086671  1
  V  V22  1  0.00033766  0.11967091  0.12031609  1
  V  V23  1  0.36337432  0.49916969  0.87291754  1
  V  V24  1  0.37730786  0.75295056  0.62031721  1
  V  V25  1  0.50401035  0.75103331  0.25996221  1
  V  V26  1  0.87771744  0.13073773  0.24816874  1
  V  V27  1  0.49840768  0.49934448  -0.00019984  1
  V  V28  1  0.50005156  0.62501614  0.12465329  1
  V  V29  1  0.24690942  0.38670785  0.63047538  1
  V  V30  1  0.37302715  0.37400561  0.49672641  1
  V  V31  1  0.62476453  0.49233823  0.12736842  1
  V  V32  1  0.24847407  0.64435410  0.87697657  1
  V  V33  1  0.25121645  0.75550964  0.49695952  1
  V  V34  1  0.24470495  0.00284062  0.75561803  1
  V  V35  1  0.75209018  0.75975616  0.00579510  1
  V  V36  1  0.00466129  0.87691616  0.37319466  1
  V  V37  1  0.25087061  0.13162900  0.88435175  1
  V  V38  1  0.00091141  0.62677724  0.12651924  1
  V  V39  1  0.12608682  0.25120438  0.88200285  1
  V  V40  1  0.24854068  0.36590010  0.12183354  1
  V  V41  1  0.87313395  0.23852511  0.62626315  1
  V  V42  1  0.36917751  0.36731592  0.00057008  1
  V  V43  1  0.12168498  0.62708579  0.50312750  1
  V  V44  1  0.87437171  0.37436910  0.50368508  1
  V  V45  1  0.87064985  0.62565259  0.25197211  1
  V  V46  1  0.25597989  0.11922357  0.37636549  1
  V  V47  1  0.37384195  0.49850267  0.37223007  1
  V  V48  1  0.37518513  0.62462124  0.24937278  1
  V  V49  1  0.74764515  0.74845673  0.48927326  1
  V  V50  1  0.36880651  0.87202008  0.00021324  1
  V  V51  1  0.88414398  0.74714619  0.61747958  1
  V  V52  1  0.87578242  0.49962163  0.87838928  1
  V  V53  1  0.62798506  -0.00529888  0.12483222  1
  V  V54  1  0.75049327  0.86687668  0.63146380  1
  V  V55  1  0.49237541  0.89321247  0.38589544  1
  V  V56  1  0.25052611  0.49946256  0.25058671  1
  V  V57  1  -0.00023207  0.37243681  0.37499677  1
  V  V58  1  0.62749355  0.74938443  0.87582629  1
  V  V59  1  0.51222881  0.25398406  0.25161967  1
  V  V60  1  0.62598437  0.87220671  0.25451913  1
  V  V61  1  0.12456486  0.37361796  0.25236796  1
  V  V62  1  0.49855755  0.12622281  0.12512538  1
  V  V63  1  0.75881189  0.37711745  0.12120384  1
  V  V64  1  0.37157663  0.75159977  0.12137068  1
  V  V65  1  0.26667451  0.89315178  0.61166759  1
  V  V66  1  0.49850793  0.37548333  0.87537343  1
  V  V67  1  0.36814221  0.61985203  0.74962776  1
  V  V68  1  0.86870979  0.76209073  0.12535253  1
  V  V69  1  0.00552436  0.75505290  0.25022815  1
  V  V70  1  0.51299952  0.37037434  0.37154761  1
  V  V71  1  0.12433131  0.49978317  0.12502153  1
  V  V72  1  0.87473544  -0.00135933  0.37824725  1
  V  V73  1  0.12265378  0.11631740  0.00317526  1
  V  V74  1  -0.00679354  -0.00328476  0.50307270  1
  V  V75  1  0.73866981  0.25076231  0.49377222  1
  V  V76  1  0.88596642  0.62223678  0.74427751  1
  V  V77  1  0.75638813  0.25519435  -0.00149053  1
  V  V78  1  0.50041948  0.24886277  0.74979829  1
  V  V79  1  0.25095308  -0.00870920  0.24715097  1
  V  V80  1  0.62516995  0.62324807  -0.00029245  1
  V  V81  1  0.37029107  0.24956229  0.62456930  1
  V  V82  1  0.73832931  0.13268140  0.37392600  1
  V  V83  1  -0.00355995  0.37432459  0.88031718  1
  V  V84  1  0.62850681  0.62595320  0.47982641  1
  Zn  Zn85  1  0.37816079  0.00163432  0.87726738  1
  Zn  Zn86  1  0.62619689  0.49890095  0.62292838  1
  Zn  Zn87  1  0.24922604  0.62720280  0.37403054  1
  Zn  Zn88  1  -0.00081967  0.25088238  0.24732517  1
  Zn  Zn89  1  0.12969259  0.75489721  0.37168345  1
  Zn  Zn90  1  0.50232162  -0.00032606  -0.00018751  1
  Zn  Zn91  1  0.24388746  0.24869572  0.49794665  1
  Zn  Zn92  1  0.74605194  0.37288038  0.62341855  1
  Zn  Zn93  1  0.12580896  0.24643514  0.37794121  1
  Zn  Zn94  1  0.13284881  0.86598573  0.75661222  1
  Zn  Zn95  1  0.37121664  0.24539162  0.12595164  1
  Zn  Zn96  1  -0.00851620  0.11863609  0.63116173  1
  Zn  Zn97  1  0.62756049  0.88097170  0.75228333  1
  Zn  Zn98  1  0.00359896  0.88499510  0.89057150  1
  Zn  Zn99  1  0.24021064  0.86841553  0.12388917  1
  Zn  Zn100  1  0.37966815  0.12259565  0.25796549  1
  Zn  Zn101  1  0.11855544  -0.01178273  0.13103407  1
  Zn  Zn102  1  0.61998534  -0.00486039  0.61704180  1
  Zn  Zn103  1  0.11972453  0.12744720  0.50063642  1
  Zn  Zn104  1  0.12950581  0.38155840  0.75671754  1
  Zn  Zn105  1  0.12253394  0.51074252  0.63503800  1
  Zn  Zn106  1  0.87957641  0.25509512  0.11682766  1
  Zn  Zn107  1  0.18520332  0.18220966  0.19331898  1
  Zn  Zn108  1  0.18086900  0.18871013  0.69322552  1
  Zn  Zn109  1  0.18755218  0.68650472  0.18629324  1
  Zn  Zn110  1  0.19359934  0.69014779  0.68170855  1
  Zn  Zn111  1  0.68917671  0.18794599  0.18327257  1
  Zn  Zn112  1  0.68607059  0.19278243  0.68052878  1
  Zn  Zn113  1  0.68647306  0.68485726  0.18836186  1
  Zn  Zn114  1  0.69129641  0.68764230  0.68821526  1
  Zn  Zn115  1  0.31690371  0.30287568  0.30930865  1
  Zn  Zn116  1  0.31204999  0.31199327  0.81173789  1
  Zn  Zn117  1  0.31949568  0.81508426  0.31576458  1
  Zn  Zn118  1  0.31944130  0.81680582  0.80410050  1
  Zn  Zn119  1  0.80955556  0.31611832  0.31020110  1
  Zn  Zn120  1  0.81343447  0.31272449  0.81212778  1
  Zn  Zn121  1  0.81699130  0.81647694  0.31041916  1
  Zn  Zn122  1  0.82085165  0.81275085  0.81711118  1
  Zn  Zn123  1  0.18609723  0.44013662  0.44087024  1
  Zn  Zn124  1  0.18406748  0.44017951  0.94037512  1
  Zn  Zn125  1  0.18274701  0.94464171  0.43594108  1
  Zn  Zn126  1  0.18395177  0.93354239  0.93660459  1
  Zn  Zn127  1  0.68837050  0.44065048  0.43930889  1
  Zn  Zn128  1  0.68746193  0.43585199  0.93733820  1
  Zn  Zn129  1  0.67465292  0.92963764  0.44452683  1
  Zn  Zn130  1  0.69422600  0.94088950  0.93390160  1
  Zn  Zn131  1  0.31335395  0.05439929  0.06252807  1
  Zn  Zn132  1  0.31095016  0.06563960  0.56417762  1
  Zn  Zn133  1  0.31063454  0.56023274  0.06143454  1
  Zn  Zn134  1  0.31284319  0.56688661  0.55749807  1
  Zn  Zn135  1  0.81366699  0.06314819  0.06142527  1
  Zn  Zn136  1  0.77961520  0.04269331  0.54385615  1
  Zn  Zn137  1  0.81275257  0.57058569  0.06398645  1
  Zn  Zn138  1  0.81048486  0.56658696  0.56153690  1
  Zn  Zn139  1  0.43633226  0.43349154  0.18674940  1
  Zn  Zn140  1  0.43615693  0.43774710  0.68704394  1
  Zn  Zn141  1  0.43581573  0.93851827  0.19165356  1
  Zn  Zn142  1  0.43936970  0.94172398  0.69087838  1
  Zn  Zn143  1  0.93692516  0.44004670  0.18808381  1
  Zn  Zn144  1  0.93970964  0.43130497  0.69188459  1
  Zn  Zn145  1  0.93766347  0.93883450  0.18871248  1
  Zn  Zn146  1  0.92942136  0.93201257  0.69313654  1
  Zn  Zn147  1  0.06743334  0.06284515  0.31206434  1
  Zn  Zn148  1  0.05872406  0.06121086  0.81859496  1
  Zn  Zn149  1  0.06144422  0.56445994  0.31754191  1
  Zn  Zn150  1  0.06859334  0.56629305  0.81297028  1
  Zn  Zn151  1  0.56137014  0.06218602  0.31137796  1
  Zn  Zn152  1  0.56908973  0.06045563  0.80337868  1
  Zn  Zn153  1  0.55820691  0.55719599  0.30841495  1
  Zn  Zn154  1  0.56011342  0.56249074  0.81347554  1
  Zn  Zn155  1  0.43812204  0.18963549  0.43420704  1
  Zn  Zn156  1  0.44180572  0.18643642  0.93825087  1
  Zn  Zn157  1  0.43734771  0.68818121  0.43720874  1
  Zn  Zn158  1  0.43608666  0.68769372  0.93680824  1
  Zn  Zn159  1  0.93277658  0.18351928  0.44076943  1
  Zn  Zn160  1  0.93590645  0.17781675  0.93317021  1
  Zn  Zn161  1  0.93877691  0.68865894  0.43655948  1
  Zn  Zn162  1  0.95775437  0.71858058  0.95741622  1
  Zn  Zn163  1  0.06107737  0.30916929  0.06232097  1
  Zn  Zn164  1  0.06142536  0.31062062  0.56350475  1
  Zn  Zn165  1  0.06228028  0.82415497  0.05871572  1
  Zn  Zn166  1  0.07020218  0.82016886  0.56175464  1
  Zn  Zn167  1  0.56288784  0.31191933  0.06133546  1
  Zn  Zn168  1  0.55894600  0.31249321  0.56426287  1
  Zn  Zn169  1  0.56186869  0.81078899  0.06389785  1
  Zn  Zn170  1  0.56765769  0.80919318  0.55954904  1
  O  O171  1  0.11688667  0.12910595  0.11709134  1
  O  O172  1  0.11713076  0.11461323  0.62763922  1
  O  O173  1  0.12154956  0.61744287  0.11940738  1
  O  O174  1  0.13413926  0.62430483  0.60841839  1
  O  O175  1  0.61754590  0.11779885  0.11815710  1
  O  O176  1  0.60469976  0.13377841  0.62561469  1
  O  O177  1  0.61930720  0.61389500  0.11922110  1
  O  O178  1  0.61276953  0.62330404  0.62419247  1
  O  O179  1  0.38077109  0.37705944  0.38294869  1
  O  O180  1  0.37732955  0.38034400  0.88042922  1
  O  O181  1  0.39392859  0.87308138  0.37820123  1
  O  O182  1  0.38647406  0.87370660  0.88168566  1
  O  O183  1  0.88088078  0.38348732  0.38232432  1
  O  O184  1  0.88275645  0.38908914  0.87228957  1
  O  O185  1  0.88431212  0.89200777  0.36766481  1
  O  O186  1  0.88378357  0.89247590  0.86165891  1
  O  O187  1  0.24685143  0.01080648  0.36630633  1
  O  O188  1  0.25025125  0.01177700  0.86719237  1
  O  O189  1  0.25723559  0.49854843  0.36851908  1
  O  O190  1  0.26170411  0.50011928  0.87506445  1
  O  O191  1  0.75757133  0.01463517  0.36506930  1
  O  O192  1  0.75573200  -0.00486159  0.85437665  1
  O  O193  1  0.76133112  0.49305442  0.36572221  1
  O  O194  1  0.75694913  0.50242416  0.86805633  1
  O  O195  1  0.24374557  0.49050188  0.13139475  1
  O  O196  1  0.25351011  0.48842885  0.62005009  1
  O  O197  1  0.24648905  0.99737355  0.13611912  1
  O  O198  1  0.23438751  1.00968660  0.64277812  1
  O  O199  1  0.74442131  0.49527577  0.12844163  1
  O  O200  1  0.74974710  0.49830991  0.63679385  1
  O  O201  1  0.73978812  1.01059356  0.13797129  1
  O  O202  1  0.76481682  0.97703292  0.64092075  1
  O  O203  1  0.00674493  0.37821808  0.25785240  1
  O  O204  1  0.00045250  0.36523613  0.76540275  1
  O  O205  1  -0.00612304  0.86455268  0.25803624  1
  O  O206  1  0.00085379  0.85666449  0.74454605  1
  O  O207  1  0.49663695  0.36268689  0.25589293  1
  O  O208  1  0.50291056  0.36951295  0.75505168  1
  O  O209  1  0.50645255  0.86982903  0.25928297  1
  O  O210  1  0.50225016  0.86790434  0.76022845  1
  O  O211  1  0.50133026  0.13436607  0.24200114  1
  O  O212  1  0.49304498  0.13136593  0.74504432  1
  O  O213  1  0.49584280  0.63126204  0.24387251  1
  O  O214  1  0.49223115  0.62828236  0.74256541  1
  O  O215  1  0.99238504  0.12778363  0.24370094  1
  O  O216  1  1.00250275  0.14148715  0.75240233  1
  O  O217  1  0.99043762  0.63046466  0.24762167  1
  O  O218  1  0.99099818  0.62821526  0.74620327  1
  O  O219  1  0.38042215  0.26437054  0.00094556  1
  O  O220  1  0.37520757  0.26050211  0.50842120  1
  O  O221  1  0.38344719  0.75790318  0.01102130  1
  O  O222  1  0.36642904  0.74341171  0.51058879  1
  O  O223  1  0.85942066  0.24248584  -0.00374659  1
  O  O224  1  0.87014459  0.26014431  0.50524357  1
  O  O225  1  0.85976639  0.73185501  0.01630700  1
  O  O226  1  0.86375087  0.73607679  0.51222859  1
  O  O227  1  0.12621426  0.24619647  0.49746971  1
  O  O228  1  0.12123984  0.24205803  0.98748144  1
  O  O229  1  0.13048800  0.74281817  0.49796345  1
  O  O230  1  0.12849559  0.73355704  1.01001322  1
  O  O231  1  0.63973464  0.25852350  0.50294872  1
  O  O232  1  0.63112719  0.24522822  0.99201139  1
  O  O233  1  0.63852614  0.73824634  0.50041756  1
  O  O234  1  0.63139709  0.74205991  0.99726149  1
  O  O235  1  0.50202717  0.24384702  0.13354593  1
  O  O236  1  0.48752979  0.24439887  0.62928208  1
  O  O237  1  0.49289942  0.74393167  0.13363302  1
  O  O238  1  0.49616831  0.74037571  0.62744344  1
  O  O239  1  0.99558009  0.24101518  0.12738025  1
  O  O240  1  0.99070765  0.25192511  0.63448464  1
  O  O241  1  0.98833105  0.74319951  0.13613902  1
  O  O242  1  0.98672668  0.75407245  0.62154971  1
  O  O243  1  -0.00399456  0.26490567  0.37492289  1
  O  O244  1  0.00239732  0.25696072  0.87275425  1
  O  O245  1  -0.00482510  0.76085497  0.36775763  1
  O  O246  1  -0.00157463  0.73901397  0.85127420  1
  O  O247  1  0.49784143  0.25540511  0.36128915  1
  O  O248  1  0.50932668  0.25587093  0.86997505  1
  O  O249  1  0.49929922  0.75164798  0.36222006  1
  O  O250  1  0.50638334  0.75550764  0.87118420  1
  O  O251  1  0.24793558  0.12309323  0.48890952  1
  O  O252  1  0.24457011  0.12212596  0.98994169  1
  O  O253  1  0.24389699  0.63688936  0.49694384  1
  O  O254  1  0.24416905  0.61818593  0.98911101  1
  O  O255  1  0.76063935  0.13866476  0.47957759  1
  O  O256  1  0.73575857  0.13778729  1.00949192  1
  O  O257  1  0.73996959  0.63429451  0.50279470  1
  O  O258  1  0.74151973  0.62666488  0.99288011  1
  O  O259  1  0.25703427  0.38128821  0.01005861  1
  O  O260  1  0.26067219  0.37408848  0.50810072  1
  O  O261  1  0.26610375  0.88086512  -0.00002398  1
  O  O262  1  0.23266808  0.85986178  0.50114854  1
  O  O263  1  0.74586129  0.36743614  0.00859392  1
  O  O264  1  0.76034892  0.36979337  0.49686100  1
  O  O265  1  0.74416877  0.85839757  -0.00289271  1
  O  O266  1  0.74466217  0.85494394  0.51372164  1
  O  O267  1  0.12783655  0.49195645  0.24604335  1
  O  O268  1  0.11418125  0.49260271  0.74435240  1
  O  O269  1  0.14329862  1.00712773  0.24715613  1
  O  O270  1  0.12922371  1.00197167  0.74651062  1
  O  O271  1  0.63498494  0.50717426  0.23866647  1
  O  O272  1  0.63428681  0.49632937  0.75195671  1
  O  O273  1  0.63202614  0.99442411  0.24314955  1
  O  O274  1  0.64290064  0.99874232  0.73879922  1
  O  O275  1  0.36022122  0.00816203  0.24322037  1
  O  O276  1  0.36362414  0.00794971  0.75276347  1
  O  O277  1  0.37115892  0.50404890  0.25268583  1
  O  O278  1  0.38214104  0.51049357  0.75953878  1
  O  O279  1  0.86708036  0.01010552  0.25400000  1
  O  O280  1  0.86489273  0.00560609  0.75145629  1
  O  O281  1  0.86930605  0.50660084  0.25723651  1
  O  O282  1  0.86915166  0.50293547  0.75482222  1
  O  O283  1  0.11580881  0.37873233  0.36800727  1
  O  O284  1  0.11641498  0.36772240  0.87879985  1
  O  O285  1  0.10885158  0.87573166  0.37585769  1
  O  O286  1  0.11659738  0.88124434  0.86753877  1
  O  O287  1  0.61160891  0.38032703  0.37850393  1
  O  O288  1  0.61743021  0.36805563  0.87039814  1
  O  O289  1  0.61644892  0.88075656  0.36041100  1
  O  O290  1  0.61789013  0.86797818  0.87482783  1
  O  O291  1  0.39151805  0.12606867  0.11438063  1
  O  O292  1  0.38113153  0.13260305  0.63031388  1
  O  O293  1  0.38055934  0.62979727  0.12833647  1
  O  O294  1  0.38283336  0.63086629  0.63069896  1
  O  O295  1  0.88163046  0.12614553  0.13221159  1
  O  O296  1  0.87246888  0.13868950  0.61643271  1
  O  O297  1  0.88195490  0.62671321  0.13814121  1
  O  O298  1  0.86926696  0.63513394  0.63431275  1
  O  O299  1  0.24863682  0.26291074  0.13166147  1
  O  O300  1  0.26097954  0.25378984  0.62484396  1
  O  O301  1  0.26756533  0.75145762  0.13513729  1
  O  O302  1  0.26036401  0.76468049  0.61679041  1
  O  O303  1  0.75029946  0.26127439  0.11710045  1
  O  O304  1  0.75737054  0.25395035  0.61342157  1
  O  O305  1  0.75622436  0.74270363  0.11870857  1
  O  O306  1  0.75866988  0.75238895  0.61967323  1
  O  O307  1  0.24849255  0.23801393  0.37631328  1
  O  O308  1  0.23911127  0.24173029  0.86769788  1
  O  O309  1  0.25049307  0.74991923  0.38250157  1
  O  O310  1  0.25808429  0.74318310  0.87141528  1
  O  O311  1  0.75367443  0.24095284  0.37665839  1
  O  O312  1  0.73755432  0.26017983  0.88215589  1
  O  O313  1  0.76124933  0.75593508  0.39116396  1
  O  O314  1  0.74868396  0.74290889  0.88283726  1
  O  O315  1  0.00885352  0.12948857  0.00991320  1
  O  O316  1  -0.00250255  0.10995348  0.50363462  1
  O  O317  1  0.01020695  0.62008016  0.00559495  1
  O  O318  1  0.00731552  0.61501118  0.49374369  1
  O  O319  1  0.51419022  0.12508421  0.00657568  1
  O  O320  1  0.49158129  0.12832890  0.51309109  1
  O  O321  1  0.50453874  0.61884964  0.00438638  1
  O  O322  1  0.50820425  0.62157323  0.50568795  1
  O  O323  1  0.49128364  0.37826882  0.49317484  1
  O  O324  1  0.49127161  0.38010789  0.99561826  1
  O  O325  1  0.51686879  0.87438265  0.48341311  1
  O  O326  1  0.49604103  0.87493811  0.98982098  1
  O  O327  1  0.99183447  0.38279482  0.49286731  1
  O  O328  1  1.00385016  0.38715213  0.99158385  1
  O  O329  1  1.00054264  0.88842375  0.49211067  1
  O  O330  1  0.98427269  0.82708512  0.98532490  1
  O  O331  1  0.49297058  0.48950692  0.37757667  1
  O  O332  1  0.49026892  0.49499926  0.88050421  1
  O  O333  1  0.49898561  0.99356724  0.37403231  1
  O  O334  1  0.50344226  0.98864562  0.87239692  1
  O  O335  1  0.98976353  0.49095470  0.38271251  1
  O  O336  1  0.99428243  0.49488429  0.88208575  1
  O  O337  1  0.99390422  0.99647815  0.38054136  1
  O  O338  1  0.98576337  1.00249454  0.88020308  1
  O  O339  1  0.00109982  0.01480759  0.13176866  1
  O  O340  1  0.00088147  -0.00445283  0.62180511  1
  O  O341  1  0.00326990  0.50548785  0.11814268  1
  O  O342  1  -0.00241084  0.49164327  0.61085678  1
  O  O343  1  0.51148588  0.00957340  0.12669570  1
  O  O344  1  0.50112982  0.01441541  0.62863852  1
  O  O345  1  0.50658537  0.50285795  0.12162800  1
  O  O346  1  0.49803361  0.50910756  0.61716583  1
  O  O347  1  0.24246511  0.37968750  0.24380477  1
  O  O348  1  0.25307924  0.37267110  0.73346573  1
  O  O349  1  0.25645715  0.88837426  0.25269097  1
  O  O350  1  0.25522376  0.88922110  0.73739764  1
  O  O351  1  0.75374064  0.38929709  0.23946186  1
  O  O352  1  0.74426566  0.38545550  0.75018957  1
  O  O353  1  0.74212479  0.88864242  0.25784983  1
  O  O354  1  0.74774567  0.86012024  0.73768992  1
  O  O355  1  0.25386312  0.12078070  0.26193012  1
  O  O356  1  0.25334026  0.12106902  0.76075624  1
  O  O357  1  0.25699519  0.61683742  0.25077419  1
  O  O358  1  0.26216373  0.63073974  0.75626588  1
  O  O359  1  0.75688957  0.12209952  0.25672346  1
  O  O360  1  0.74962473  0.11828274  0.73980822  1
  O  O361  1  0.76073964  0.61251053  0.24459601  1
  O  O362  1  0.75785894  0.61544379  0.75508527  1
  O  O363  1  0.36093298  0.12617744  0.37865703  1
  O  O364  1  0.36740217  0.12745782  0.87189174  1
  O  O365  1  0.37602722  0.61622657  0.36745001  1
  O  O366  1  0.36757648  0.61834982  0.86974002  1
  O  O367  1  0.87320985  0.11789860  0.36258452  1
  O  O368  1  0.87102596  0.10640273  0.87616902  1
  O  O369  1  0.88096550  0.61395639  0.36550838  1
  O  O370  1  0.87035506  0.61116442  0.86201664  1
  O  O371  1  0.12907988  0.37928245  0.13164657  1
  O  O372  1  0.14270822  0.37454188  0.62135830  1
  O  O373  1  0.12784822  0.87493670  0.12637135  1
  O  O374  1  0.14029548  0.89016392  0.62766318  1
  O  O375  1  0.63259196  0.38782226  0.12011690  1
  O  O376  1  0.62446221  0.37865150  0.63419494  1
  O  O377  1  0.61707329  0.88774651  0.13468752  1
  O  O378  1  0.63776040  0.87102133  0.62938095  1
  O  O379  1  0.12172164  0.26497739  0.25334784  1
  O  O380  1  0.11472703  0.25642777  0.76269683  1
  O  O381  1  0.10891398  0.73968710  0.25289841  1
  O  O382  1  0.11010395  0.74715220  0.73335536  1
  O  O383  1  0.61172493  0.24757280  0.24514821  1
  O  O384  1  0.62174230  0.25616371  0.75734141  1
  O  O385  1  0.61655759  0.76094378  0.23974345  1
  O  O386  1  0.61922905  0.74668386  0.75877280  1
  O  O387  1  0.38871544  0.24247384  0.24292936  1
  O  O388  1  0.37998631  0.24579275  0.74254568  1
  O  O389  1  0.38604853  0.74491165  0.24283554  1
  O  O390  1  0.38390154  0.73646354  0.74336323  1
  O  O391  1  0.87381270  0.24021338  0.24675276  1
  O  O392  1  0.88134480  0.25901054  0.73852986  1
  O  O393  1  0.87766457  0.74111891  0.24568363  1
  O  O394  1  0.88547838  0.74001000  0.73875662  1
  O  O395  1  0.38059727  0.49245471  0.49378890  1
  O  O396  1  0.37941416  0.49105085  0.99181528  1
  O  O397  1  0.32915579  0.95311220  0.55575675  1
  O  O398  1  0.38360589  0.98886217  0.99637469  1
  O  O399  1  0.87791883  0.49600872  0.49394887  1
  O  O400  1  0.88687588  0.51225769  0.99132630  1
  O  O401  1  0.87765299  1.00574719  0.48730871  1
  O  O402  1  0.85541495  0.99285646  0.98598760  1
  O  O403  1  0.12912921  0.01419897  0.00434158  1
  O  O404  1  0.11346803  0.00263489  0.51288146  1
  O  O405  1  0.11386129  0.50700306  0.00565833  1
  O  O406  1  0.11585410  0.50715458  0.50309652  1
  O  O407  1  0.62942235  0.00767888  0.00692292  1
  O  O408  1  0.66963851  0.01078525  0.51749644  1
  O  O409  1  0.61867250  0.50364541  0.00615780  1
  O  O410  1  0.62020756  0.50931431  0.50270268  1
  O  O411  1  0.36521139  0.37519156  0.11632840  1
  O  O412  1  0.36838714  0.36951672  0.61766265  1
  O  O413  1  0.37913427  0.86681936  0.11638594  1
  O  O414  1  0.37889089  0.85442826  0.64372907  1
  O  O415  1  0.86413769  0.37633264  0.12532187  1
  O  O416  1  0.87332012  0.37091613  0.61269677  1
  O  O417  1  0.87328548  0.86109654  0.13368448  1
  O  O418  1  0.86407803  0.85511355  0.62793270  1
  O  O419  1  0.13628273  0.12747768  0.37823389  1
  O  O420  1  0.13080868  0.13166063  0.88361895  1
  O  O421  1  0.12840102  0.62774606  0.38691718  1
  O  O422  1  0.13817484  0.62184366  0.88384281  1
  O  O423  1  0.64045112  0.12463938  0.36817464  1
  O  O424  1  0.61921682  0.13628845  0.88228452  1
  O  O425  1  0.62136866  0.61943123  0.38095305  1
  O  O426  1  0.63017619  0.62899093  0.88002120  1
