# generated using pymatgen
data_V85Zn86O256
_symmetry_space_group_name_H-M   'P 1'
_cell_length_a   16.96057354
_cell_length_b   16.97030412
_cell_length_c   16.98940615
_cell_angle_alpha   89.92784487
_cell_angle_beta   90.14181713
_cell_angle_gamma   90.15349438
_symmetry_Int_Tables_number   1
_chemical_formula_structural   V85Zn86O256
_chemical_formula_sum   'V85 Zn86 O256'
_cell_volume   4889.95799656
_cell_formula_units_Z   1
loop_
 _symmetry_equiv_pos_site_id
 _symmetry_equiv_pos_as_xyz
  1  'x, y, z'
loop_
 _atom_site_type_symbol
 _atom_site_label
 _atom_site_symmetry_multiplicity
 _atom_site_fract_x
 _atom_site_fract_y
 _atom_site_fract_z
 _atom_site_occupancy
  V  V0  1  0.00183009  0.00602235  0.50291746  1
  V  V1  1  0.24539036  0.24516375  0.00283419  1
  V  V2  1  0.62446650  0.49220200  0.62779436  1
  V  V3  1  0.00442843  0.13055784  0.12100656  1
  V  V4  1  0.37440994  0.37379554  -0.00097179  1
  V  V5  1  0.75055518  0.49991909  0.25585512  1
  V  V6  1  0.87925861  0.38042770  0.50254415  1
  V  V7  1  0.75078826  0.12645255  0.37129394  1
  V  V8  1  0.37275197  0.74941900  0.62371329  1
  V  V9  1  0.75188170  0.24834164  0.50153537  1
  V  V10  1  0.49944142  0.37365922  0.37427908  1
  V  V11  1  0.62387525  0.87799497  0.74695244  1
  V  V12  1  0.75047538  0.24581213  0.00416243  1
  V  V13  1  0.74213912  0.12287216  0.88056549  1
  V  V14  1  0.12735143  0.38069110  0.75232766  1
  V  V15  1  0.74392404  0.64074134  0.38062662  1
  V  V16  1  0.87866103  0.12355819  0.74426205  1
  V  V17  1  0.74459544  -0.00341359  0.74693852  1
  V  V18  1  0.50688170  0.25419975  0.75039558  1
  V  V19  1  0.50229780  0.62586057  0.12191956  1
  V  V20  1  -0.00709310  0.74948579  0.74419240  1
  V  V21  1  0.87542634  0.13367594  0.24196496  1
  V  V22  1  0.50485101  0.00026320  0.50389460  1
  V  V23  1  0.25056953  0.38192248  0.62995452  1
  V  V24  1  0.37345828  0.87418421  0.49771955  1
  V  V25  1  0.86804329  0.50324634  0.87611000  1
  V  V26  1  0.50137891  0.50312330  -0.00191697  1
  V  V27  1  0.25364115  0.87849490  0.13167687  1
  V  V28  1  0.24875712  0.61981594  0.37098354  1
  V  V29  1  0.12182869  0.24607827  0.87862202  1
  V  V30  1  0.50784960  0.01617864  0.01984383  1
  V  V31  1  0.24695729  0.87992356  0.62333867  1
  V  V32  1  0.38777234  0.24626166  0.12978738  1
  V  V33  1  0.11971225  0.61606250  0.50046726  1
  V  V34  1  0.12497027  0.62573186  -0.00113478  1
  V  V35  1  0.87439461  0.00068821  0.87552668  1
  V  V36  1  0.50511792  0.74780492  0.25218620  1
  V  V37  1  0.62587440  0.73800577  0.87871356  1
  V  V38  1  0.62066134  0.25013045  0.37551861  1
  V  V39  1  0.37168356  0.61966109  0.24756685  1
  V  V40  1  -0.00009509  0.87529831  0.87526197  1
  V  V41  1  0.62576411  0.25700905  0.87451777  1
  V  V42  1  0.12945582  0.00399892  0.13130064  1
  V  V43  1  0.74634492  0.87697649  0.11983777  1
  V  V44  1  0.36805493  0.49922770  0.86949499  1
  V  V45  1  0.87751755  -0.00071471  0.37428493  1
  V  V46  1  0.75603489  0.36805031  0.12667558  1
  V  V47  1  0.13038565  0.49795048  0.13623457  1
  V  V48  1  0.50282066  0.50196698  0.49919071  1
  V  V49  1  0.25526789  0.12144361  0.87572686  1
  V  V50  1  0.74525490  0.73478338  -0.00333439  1
  V  V51  1  0.50689653  0.12038744  0.62593599  1
  V  V52  1  0.24688700  0.62115473  0.86754287  1
  V  V53  1  -0.00542080  0.61800239  0.62370958  1
  V  V54  1  0.00113771  0.25727351  0.24635467  1
  V  V55  1  0.62574276  0.50212120  0.12101076  1
  V  V56  1  -0.00050980  0.49761666  -0.00148546  1
  V  V57  1  0.00528349  0.00472335  0.00138000  1
  V  V58  1  -0.00019655  0.75270054  0.24880864  1
  V  V59  1  0.49654883  0.74706366  0.75311670  1
  V  V60  1  0.12366571  0.74943046  0.87571142  1
  V  V61  1  0.12369268  0.87600960  0.74795133  1
  V  V62  1  0.37378638  0.49895296  0.37224393  1
  V  V63  1  0.37436109  0.24568589  0.62742426  1
  V  V64  1  0.86529241  0.62744802  0.74891336  1
  V  V65  1  0.24748543  0.37913787  0.13722674  1
  V  V66  1  0.00098339  0.38015223  0.37771939  1
  V  V67  1  0.12685806  0.25500295  0.37063207  1
  V  V68  1  0.50306981  0.87092058  0.37420820  1
  V  V69  1  0.74428528  0.49331317  0.75278523  1
  V  V70  1  0.25233769  0.12397853  0.36389730  1
  V  V71  1  0.62561791  0.87481294  0.24706999  1
  V  V72  1  0.87357634  0.87443176  -0.00027332  1
  V  V73  1  0.88284506  0.24166413  0.62468581  1
  V  V74  1  0.62001226  0.37305122  0.25211870  1
  V  V75  1  0.49122935  0.88431719  0.87761050  1
  V  V76  1  0.87382905  0.62680359  0.24896644  1
  V  V77  1  0.74817589  0.00121079  0.24265880  1
  V  V78  1  -0.00164873  0.87789788  0.37753656  1
  V  V79  1  0.49847394  0.62380693  0.62310796  1
  V  V80  1  0.12567151  0.12666373  0.50482713  1
  V  V81  1  0.37193852  0.00130781  0.36467896  1
  V  V82  1  0.00160786  0.62598544  0.12531673  1
  V  V83  1  0.37469047  0.37452877  0.50049108  1
  V  V84  1  0.12646633  0.75161503  0.37494217  1
  Zn  Zn85  1  0.11960440  0.00772835  0.62917194  1
  Zn  Zn86  1  0.50320840  0.37837721  0.86924564  1
  Zn  Zn87  1  0.62815134  0.12110618  0.50377275  1
  Zn  Zn88  1  0.24907719  0.74886072  0.50013244  1
  Zn  Zn89  1  0.37434168  0.75087959  0.12103953  1
  Zn  Zn90  1  0.63037741  0.63324827  0.50074585  1
  Zn  Zn91  1  0.12964587  0.88428127  0.25393789  1
  Zn  Zn92  1  0.87589691  0.37003865  0.00140676  1
  Zn  Zn93  1  0.39419482  0.12812987  0.24364968  1
  Zn  Zn94  1  0.38039856  0.11547299  0.75734270  1
  Zn  Zn95  1  0.25014216  0.24896432  0.50000362  1
  Zn  Zn96  1  0.87851224  0.50286873  0.38372318  1
  Zn  Zn97  1  0.00168802  0.24684037  0.74781146  1
  Zn  Zn98  1  0.87472486  0.75060671  0.12070472  1
  Zn  Zn99  1  0.12466510  0.49991644  0.62868565  1
  Zn  Zn100  1  0.36609126  0.61728863  0.74403820  1
  Zn  Zn101  1  0.25369176  0.75218868  -0.00112778  1
  Zn  Zn102  1  0.25296861  -0.00267307  0.75904298  1
  Zn  Zn103  1  0.74814654  0.37057128  0.62966337  1
  Zn  Zn104  1  0.37080864  0.88116715  -0.00615651  1
  Zn  Zn105  1  -0.00291613  0.37294802  0.87148571  1
  Zn  Zn106  1  0.73361415  -0.12884647  0.60281758  1
  Zn  Zn107  1  0.18764148  0.19113213  0.18517890  1
  Zn  Zn108  1  0.18879052  0.19214433  0.69256070  1
  Zn  Zn109  1  0.18691123  0.68995296  0.18590102  1
  Zn  Zn110  1  0.18213623  0.69067331  0.68591316  1
  Zn  Zn111  1  0.67646458  0.18626585  0.18868137  1
  Zn  Zn112  1  0.69048260  0.18463638  0.69125090  1
  Zn  Zn113  1  0.68814667  0.69029241  0.18543259  1
  Zn  Zn114  1  0.67939832  0.68576986  0.68624759  1
  Zn  Zn115  1  0.31528467  0.30802546  0.31088974  1
  Zn  Zn116  1  0.31256318  0.30782125  0.81175355  1
  Zn  Zn117  1  0.31517694  0.80852714  0.30825638  1
  Zn  Zn118  1  0.30945767  0.80929506  0.80964319  1
  Zn  Zn119  1  0.81383469  0.31391198  0.31511808  1
  Zn  Zn120  1  0.81378433  0.31203557  0.81437042  1
  Zn  Zn121  1  0.81424438  0.81478298  0.31142320  1
  Zn  Zn122  1  0.80839272  0.81195209  0.81511148  1
  Zn  Zn123  1  0.18930873  0.43574021  0.43855888  1
  Zn  Zn124  1  0.18620046  0.43477861  0.94164046  1
  Zn  Zn125  1  0.18824410  0.94099161  0.43839919  1
  Zn  Zn126  1  0.18600210  0.93624517  0.94360557  1
  Zn  Zn127  1  0.68871695  0.43798718  0.44245802  1
  Zn  Zn128  1  0.68995168  0.43569126  0.93842837  1
  Zn  Zn129  1  0.68615354  0.93163437  0.43130842  1
  Zn  Zn130  1  0.67910408  0.93401809  0.93412657  1
  Zn  Zn131  1  0.32224391  0.05935792  0.05710442  1
  Zn  Zn132  1  0.31470479  0.06250403  0.55616357  1
  Zn  Zn133  1  0.31058268  0.56291899  0.05824311  1
  Zn  Zn134  1  0.31037182  0.56272008  0.55708875  1
  Zn  Zn135  1  0.81620739  0.06342096  0.06110951  1
  Zn  Zn136  1  0.79456230  0.03539118  0.54544898  1
  Zn  Zn137  1  0.81417894  0.55798563  0.06617568  1
  Zn  Zn138  1  0.81003474  0.56467569  0.56759868  1
  Zn  Zn139  1  0.43580265  0.43561520  0.18541655  1
  Zn  Zn140  1  0.43804277  0.43519411  0.68647616  1
  Zn  Zn141  1  0.43988078  0.94055546  0.18436581  1
  Zn  Zn142  1  0.43231143  0.93816820  0.69034072  1
  Zn  Zn143  1  0.93929231  0.44045156  0.18898609  1
  Zn  Zn144  1  0.93573043  0.43434136  0.68953311  1
  Zn  Zn145  1  0.93781341  0.93912569  0.18710422  1
  Zn  Zn146  1  0.93411086  0.93887910  0.68777615  1
  Zn  Zn147  1  0.06385644  0.06968013  0.31157986  1
  Zn  Zn148  1  0.06628907  0.06377121  0.81377651  1
  Zn  Zn149  1  0.06285325  0.56247890  0.31211144  1
  Zn  Zn150  1  0.05771262  0.56218036  0.81154287  1
  Zn  Zn151  1  0.56686902  0.05623893  0.31795379  1
  Zn  Zn152  1  0.56190931  0.06487404  0.81477844  1
  Zn  Zn153  1  0.56436294  0.56221766  0.31331488  1
  Zn  Zn154  1  0.55964592  0.56095318  0.81041878  1
  Zn  Zn155  1  0.43668560  0.18523840  0.44046019  1
  Zn  Zn156  1  0.44041522  0.18588573  0.94168599  1
  Zn  Zn157  1  0.43673159  0.68653200  0.43770009  1
  Zn  Zn158  1  0.43163256  0.69022702  0.93718449  1
  Zn  Zn159  1  0.93906794  0.18756715  0.43486526  1
  Zn  Zn160  1  0.93225544  0.18690618  0.93576014  1
  Zn  Zn161  1  0.94580955  0.67617726  0.42702760  1
  Zn  Zn162  1  0.93424765  0.68708131  0.93520680  1
  Zn  Zn163  1  0.06518662  0.31594784  0.06379696  1
  Zn  Zn164  1  0.06419572  0.31198671  0.56172991  1
  Zn  Zn165  1  0.06596935  0.81558284  0.06340699  1
  Zn  Zn166  1  0.05978594  0.81159679  0.56032920  1
  Zn  Zn167  1  0.56885985  0.31319970  0.05728373  1
  Zn  Zn168  1  0.56078079  0.31049932  0.56108295  1
  Zn  Zn169  1  0.56406971  0.81382480  0.05900774  1
  Zn  Zn170  1  0.55896763  0.81402623  0.56641139  1
  O  O171  1  0.11377041  0.11949389  0.12777925  1
  O  O172  1  0.13594620  0.12708038  0.61005980  1
  O  O173  1  0.12136303  0.61865552  0.11868956  1
  O  O174  1  0.11790210  0.62303325  0.61648506  1
  O  O175  1  0.57228691  0.13328621  0.17268309  1
  O  O176  1  0.61150979  0.12984989  0.62331036  1
  O  O177  1  0.61499555  0.61255195  0.13395320  1
  O  O178  1  0.61561753  0.61061894  0.62277262  1
  O  O179  1  0.37934566  0.37868505  0.37897662  1
  O  O180  1  0.37389178  0.38009817  0.88453410  1
  O  O181  1  0.38240274  0.88107230  0.37546362  1
  O  O182  1  0.38804122  0.86728469  0.87122029  1
  O  O183  1  0.88309317  0.37541351  0.38462459  1
  O  O184  1  0.87680137  0.38869217  0.87723723  1
  O  O185  1  0.88505499  0.88804121  0.36642062  1
  O  O186  1  0.88076494  0.88145880  0.87965860  1
  O  O187  1  0.26259212  0.00839133  0.37858290  1
  O  O188  1  0.24040811  0.01908143  0.88366828  1
  O  O189  1  0.25500925  0.51252418  0.37829277  1
  O  O190  1  0.25801512  0.50755212  0.88354830  1
  O  O191  1  0.75938096  0.00604074  0.36008187  1
  O  O192  1  0.75460824  0.00505731  0.87155477  1
  O  O193  1  0.75112258  0.50309640  0.36331768  1
  O  O194  1  0.75687026  0.49822113  0.86846432  1
  O  O195  1  0.24178391  0.49176286  0.11612030  1
  O  O196  1  0.25020025  0.48629477  0.62148920  1
  O  O197  1  0.24114512  0.99091999  0.11585015  1
  O  O198  1  0.24818146  0.98601292  0.61832973  1
  O  O199  1  0.74228503  0.49363367  0.13427376  1
  O  O200  1  0.74063219  0.49759200  0.63350205  1
  O  O201  1  0.75688879  0.99232195  0.13419829  1
  O  O202  1  0.75100246  1.00379293  0.64706065  1
  O  O203  1  -0.00866109  0.36414660  0.25832048  1
  O  O204  1  0.00973750  0.36917273  0.75139869  1
  O  O205  1  0.00319386  0.87110517  0.25918925  1
  O  O206  1  0.00179064  0.86860822  0.75402729  1
  O  O207  1  0.51314938  0.38313237  0.25594412  1
  O  O208  1  0.49563961  0.35923209  0.75125646  1
  O  O209  1  0.50623682  0.86762455  0.25418897  1
  O  O210  1  0.50245966  0.86516764  0.75672601  1
  O  O211  1  0.52465011  0.13206815  0.23913852  1
  O  O212  1  0.49917067  0.13265024  0.74232748  1
  O  O213  1  0.49482187  0.63013770  0.24418256  1
  O  O214  1  0.49608994  0.63409357  0.74268620  1
  O  O215  1  0.99324954  0.13566051  0.24255642  1
  O  O216  1  0.98360334  0.12428836  0.75736146  1
  O  O217  1  0.99115401  0.63080548  0.24772475  1
  O  O218  1  0.99106126  0.63177308  0.74344687  1
  O  O219  1  0.36783442  0.25869122  0.00793835  1
  O  O220  1  0.37718656  0.25678391  0.51086253  1
  O  O221  1  0.37264096  0.75799730  0.00569127  1
  O  O222  1  0.37411532  0.75659235  0.50520863  1
  O  O223  1  0.85720431  0.25308644  -0.00603860  1
  O  O224  1  0.86831917  0.25158297  0.50499138  1
  O  O225  1  0.86488898  0.75669698  -0.00196838  1
  O  O226  1  0.89203500  0.81547213  0.57205242  1
  O  O227  1  0.12504485  0.24234580  0.48869700  1
  O  O228  1  0.13600262  0.25869591  0.99203484  1
  O  O229  1  0.12346397  0.74157284  0.48657339  1
  O  O230  1  0.12150427  0.74269341  0.99193874  1
  O  O231  1  0.63560250  0.25060380  0.49211134  1
  O  O232  1  0.63773309  0.25153601  0.98943974  1
  O  O233  1  0.64911525  0.74955371  0.53071215  1
  O  O234  1  0.63378947  0.75411502  0.99125447  1
  O  O235  1  0.48548072  0.25951359  0.11539610  1
  O  O236  1  0.49464315  0.24294742  0.63077541  1
  O  O237  1  0.50260783  0.74015265  0.13211960  1
  O  O238  1  0.49279954  0.74493774  0.63368937  1
  O  O239  1  1.00855560  0.24325054  0.13359295  1
  O  O240  1  0.98651089  0.24809392  0.62337980  1
  O  O241  1  0.99990046  0.74425774  0.13067604  1
  O  O242  1  1.00661441  0.74064723  0.63857493  1
  O  O243  1  0.00707766  0.25715594  0.36624228  1
  O  O244  1  0.00893194  0.25172392  0.87831623  1
  O  O245  1  0.00440754  0.75848026  0.37116732  1
  O  O246  1  0.00379775  0.75528005  0.86667872  1
  O  O247  1  0.51284018  0.25617856  0.38420942  1
  O  O248  1  0.50865469  0.24846274  0.86849051  1
  O  O249  1  0.49350842  0.75991282  0.36538368  1
  O  O250  1  0.50351930  0.75271003  0.86631913  1
  O  O251  1  0.24412356  0.12745091  0.48675110  1
  O  O252  1  0.25537565  0.13771783  0.99295374  1
  O  O253  1  0.23993192  0.62881777  0.48956051  1
  O  O254  1  0.24198821  0.62794486  0.98926765  1
  O  O255  1  0.74895514  0.13175783  0.49175940  1
  O  O256  1  0.75574366  0.13031914  0.99077573  1
  O  O257  1  0.75461026  0.61976596  0.48227875  1
  O  O258  1  0.75263645  0.63613180  1.00929536  1
  O  O259  1  0.26021190  0.36727259  0.00619402  1
  O  O260  1  0.25666514  0.37142087  0.50938550  1
  O  O261  1  0.25115500  0.87314737  0.01203354  1
  O  O262  1  0.25452061  0.87138062  0.50539740  1
  O  O263  1  0.75033226  0.36775982  0.01211928  1
  O  O264  1  0.75959861  0.36242355  0.49925174  1
  O  O265  1  0.75339326  0.87496705  0.00770388  1
  O  O266  1  0.76105672  0.92672448  0.50968263  1
  O  O267  1  0.12370091  0.50628940  0.23526715  1
  O  O268  1  0.12106407  0.48576633  0.75151532  1
  O  O269  1  0.12035928  1.00256746  0.23678019  1
  O  O270  1  0.12840950  0.99325479  0.74633738  1
  O  O271  1  0.63271634  0.49282852  0.24331903  1
  O  O272  1  0.63349602  0.50567465  0.74268597  1
  O  O273  1  0.63891092  0.98801840  0.25584814  1
  O  O274  1  0.63362600  0.98926250  0.76402934  1
  O  O275  1  0.38753735  0.00878434  0.26095240  1
  O  O276  1  0.36500927  0.00445283  0.74710241  1
  O  O277  1  0.38297746  0.51229537  0.25564345  1
  O  O278  1  0.38147913  0.49839909  0.76526824  1
  O  O279  1  0.87002765  0.01014905  0.25532811  1
  O  O280  1  0.86754457  0.00362849  0.75667183  1
  O  O281  1  0.86605050  0.51074077  0.25037218  1
  O  O282  1  0.86567423  0.50717660  0.75614297  1
  O  O283  1  0.11694027  0.36435010  0.38304760  1
  O  O284  1  0.12636648  0.36579051  0.86838364  1
  O  O285  1  0.12069703  0.86779214  0.37261531  1
  O  O286  1  0.11880338  0.87079341  0.86934222  1
  O  O287  1  0.62098637  0.37066388  0.37061343  1
  O  O288  1  0.62299996  0.36284400  0.87757918  1
  O  O289  1  0.61337485  0.87620196  0.36338034  1
  O  O290  1  0.61063157  0.86277956  0.86476366  1
  O  O291  1  0.37027761  0.14244592  0.12535282  1
  O  O292  1  0.38343235  0.13498399  0.62124682  1
  O  O293  1  0.38436431  0.62183710  0.13221957  1
  O  O294  1  0.37845868  0.62934905  0.62453032  1
  O  O295  1  0.88718461  0.12025834  0.13502090  1
  O  O296  1  0.86445973  0.13139207  0.63652145  1
  O  O297  1  0.88105412  0.62579352  0.13544989  1
  O  O298  1  0.88227548  0.62347102  0.63545699  1
  O  O299  1  0.25381595  0.25922057  0.11779953  1
  O  O300  1  0.26102670  0.25690545  0.62396561  1
  O  O301  1  0.24757924  0.76481904  0.12258620  1
  O  O302  1  0.25375516  0.75968994  0.62348403  1
  O  O303  1  0.73661197  0.25596266  0.11817613  1
  O  O304  1  0.75561427  0.24890855  0.61535374  1
  O  O305  1  0.75067692  0.75990862  0.11600467  1
  O  O306  1  0.71184707  0.75268194  0.59256681  1
  O  O307  1  0.24304299  0.24485672  0.37603325  1
  O  O308  1  0.24290337  0.24422840  0.88383299  1
  O  O309  1  0.24225401  0.74071351  0.37412287  1
  O  O310  1  0.24101012  0.74060907  0.87530571  1
  O  O311  1  0.74439011  0.24634316  0.38337332  1
  O  O312  1  0.74354430  0.24313877  0.87995240  1
  O  O313  1  0.75407491  0.74010221  0.37324217  1
  O  O314  1  0.73879868  0.75515612  0.88577080  1
  O  O315  1  -0.01012929  0.11641104  0.01004764  1
  O  O316  1  0.01387119  0.11769874  0.48932373  1
  O  O317  1  0.00295946  0.61701730  0.00506449  1
  O  O318  1  0.00548535  0.63372115  0.51038549  1
  O  O319  1  0.50185022  0.11644896  0.00378763  1
  O  O320  1  0.50126560  0.11712156  0.50811303  1
  O  O321  1  0.49218353  0.61365597  0.01036804  1
  O  O322  1  0.50428823  0.62083899  0.50406252  1
  O  O323  1  0.49419828  0.38153731  0.49404422  1
  O  O324  1  0.49001752  0.38566481  0.99982125  1
  O  O325  1  0.49583693  0.87852764  0.49236140  1
  O  O326  1  0.50006932  0.87390420  0.98343780  1
  O  O327  1  0.99016151  0.36686123  0.49004926  1
  O  O328  1  0.99618707  0.38727586  1.00184277  1
  O  O329  1  1.00807634  0.88576061  0.48354995  1
  O  O330  1  0.99416422  0.88286444  0.99578491  1
  O  O331  1  0.49520508  0.49474648  0.37981503  1
  O  O332  1  0.49232503  0.49977329  0.88378969  1
  O  O333  1  0.49231223  0.99036539  0.38040443  1
  O  O334  1  0.49816546  0.98450623  0.86863996  1
  O  O335  1  0.99801037  0.48584078  0.36740455  1
  O  O336  1  0.99153084  0.49904848  0.88534637  1
  O  O337  1  0.99674637  0.99562787  0.37606864  1
  O  O338  1  0.99677063  0.99649491  0.88358387  1
  O  O339  1  0.00633249  0.00801810  0.11957863  1
  O  O340  1  -0.00212804  -0.00937764  0.60710693  1
  O  O341  1  0.00686581  0.50536748  0.11833972  1
  O  O342  1  0.00147236  0.51382723  0.63157329  1
  O  O343  1  0.51088202  -0.00358263  0.11970056  1
  O  O344  1  0.49142029  0.00838052  0.61469343  1
  O  O345  1  0.50640546  0.50552776  0.11879565  1
  O  O346  1  0.50404955  0.50316380  0.61976166  1
  O  O347  1  0.25659974  0.37339579  0.23635316  1
  O  O348  1  0.24143246  0.36663641  0.74053456  1
  O  O349  1  0.24828786  0.87303595  0.23749619  1
  O  O350  1  0.24175920  0.87389475  0.74052469  1
  O  O351  1  0.74346460  0.38206407  0.24662428  1
  O  O352  1  0.75480863  0.38847960  0.74806403  1
  O  O353  1  0.74551088  0.88019052  0.24196039  1
  O  O354  1  0.73986651  0.88022103  0.75183335  1
  O  O355  1  0.25147750  0.13128387  0.26238464  1
  O  O356  1  0.25008037  0.12674851  0.76662903  1
  O  O357  1  0.26124543  0.63248596  0.25798543  1
  O  O358  1  0.24605362  0.62744369  0.76244352  1
  O  O359  1  0.75539630  0.11988142  0.24815419  1
  O  O360  1  0.75600796  0.11679291  0.76131316  1
  O  O361  1  0.75470557  0.62069954  0.25732964  1
  O  O362  1  0.75910817  0.61952669  0.74196191  1
  O  O363  1  0.37193081  0.12043533  0.36946186  1
  O  O364  1  0.35896131  0.13500785  0.87594010  1
  O  O365  1  0.36780838  0.62082749  0.36786505  1
  O  O366  1  0.36429232  0.61639603  0.87354624  1
  O  O367  1  0.87122693  0.12052402  0.36062895  1
  O  O368  1  0.86381232  0.11939501  0.86668557  1
  O  O369  1  0.86592699  0.62255918  0.36677219  1
  O  O370  1  0.87997127  0.61284257  0.86330056  1
  O  O371  1  0.13560744  0.38613379  0.12023636  1
  O  O372  1  0.13289679  0.37440121  0.63173781  1
  O  O373  1  0.13378933  0.88455507  0.12890043  1
  O  O374  1  0.13189785  0.87411673  0.62875204  1
  O  O375  1  0.63178996  0.38287138  0.13428334  1
  O  O376  1  0.62498300  0.38740500  0.62026633  1
  O  O377  1  0.63575527  0.87130127  0.13488249  1
  O  O378  1  0.61865658  0.87764090  0.64302896  1
  O  O379  1  0.11445934  0.24544947  0.26110663  1
  O  O380  1  0.12141662  0.25806350  0.75988267  1
  O  O381  1  0.11783131  0.74700199  0.26323781  1
  O  O382  1  0.11309764  0.75549569  0.75694053  1
  O  O383  1  0.63501019  0.26471895  0.26506950  1
  O  O384  1  0.61755961  0.24549488  0.75887803  1
  O  O385  1  0.61476466  0.75858063  0.24723493  1
  O  O386  1  0.61495555  0.75548143  0.75626503  1
  O  O387  1  0.38026775  0.25048242  0.23502015  1
  O  O388  1  0.38395157  0.24467665  0.74052073  1
  O  O389  1  0.38764983  0.73894060  0.24486646  1
  O  O390  1  0.38306260  0.74619017  0.74306313  1
  O  O391  1  0.88307532  0.24121594  0.25491137  1
  O  O392  1  0.87320186  0.24138985  0.74200967  1
  O  O393  1  0.87987203  0.74108756  0.24768566  1
  O  O394  1  0.88284753  0.74121155  0.75915706  1
  O  O395  1  0.38182407  0.49488714  0.49212827  1
  O  O396  1  0.38188144  0.49236926  0.99263299  1
  O  O397  1  0.38517610  0.99386647  0.48768190  1
  O  O398  1  0.39818017  0.99394556  1.00437253  1
  O  O399  1  0.86757518  0.48444686  0.50240259  1
  O  O400  1  0.88198003  0.50112582  0.99341473  1
  O  O401  1  0.89002157  1.01842152  0.47959705  1
  O  O402  1  0.88452389  0.99424377  0.99516315  1
  O  O403  1  0.11013250  -0.00286133  0.01022688  1
  O  O404  1  0.11814742  0.00985889  0.49961534  1
  O  O405  1  0.11453568  0.50589802  0.00431233  1
  O  O406  1  0.12527581  0.51334353  0.49956160  1
  O  O407  1  0.60449964  -0.00511598  -0.00954278  1
  O  O408  1  0.60740406  0.00240328  0.48886659  1
  O  O409  1  0.61525484  0.49145755  0.01140156  1
  O  O410  1  0.62010379  0.50328665  0.50834013  1
  O  O411  1  0.36815940  0.36942350  0.11709934  1
  O  O412  1  0.36957186  0.36684279  0.62144110  1
  O  O413  1  0.36081784  0.87639418  0.12888307  1
  O  O414  1  0.36675416  0.86873601  0.61792053  1
  O  O415  1  0.85923700  0.38042079  0.12746067  1
  O  O416  1  0.87300848  0.36305190  0.61761326  1
  O  O417  1  0.86501238  0.87387328  0.12006401  1
  O  O418  1  0.86007087  0.86011432  0.62577424  1
  O  O419  1  0.13349774  0.13343768  0.38054128  1
  O  O420  1  0.13426943  0.13891208  0.87294728  1
  O  O421  1  0.12860615  0.63067726  0.37996160  1
  O  O422  1  0.12841862  0.62808761  0.87862744  1
  O  O423  1  0.63221040  0.13508438  0.37569531  1
  O  O424  1  0.63720383  0.13406373  0.87119765  1
  O  O425  1  0.63941297  0.62529385  0.37542569  1
  O  O426  1  0.61832709  0.63858365  0.87111127  1
