# generated using pymatgen
data_V85Zn86O256
_symmetry_space_group_name_H-M   'P 1'
_cell_length_a   16.94415975
_cell_length_b   16.97799750
_cell_length_c   16.97956704
_cell_angle_alpha   89.98446236
_cell_angle_beta   89.96253595
_cell_angle_gamma   90.10338658
_symmetry_Int_Tables_number   1
_chemical_formula_structural   V85Zn86O256
_chemical_formula_sum   'V85 Zn86 O256'
_cell_volume   4884.63704139
_cell_formula_units_Z   1
loop_
 _symmetry_equiv_pos_site_id
 _symmetry_equiv_pos_as_xyz
  1  'x, y, z'
loop_
 _atom_site_type_symbol
 _atom_site_label
 _atom_site_symmetry_multiplicity
 _atom_site_fract_x
 _atom_site_fract_y
 _atom_site_fract_z
 _atom_site_occupancy
  V  V0  1  0.50384373  0.37573568  0.87667236  1
  V  V1  1  0.87739342  0.24835971  0.12295390  1
  V  V2  1  0.62449613  0.88239801  0.24766138  1
  V  V3  1  0.50944442  0.00606647  0.00645846  1
  V  V4  1  0.11731308  0.75077005  0.37525046  1
  V  V5  1  0.24738914  0.87544524  0.62374611  1
  V  V6  1  0.37491314  0.24935887  0.62466499  1
  V  V7  1  0.74776600  0.62527012  0.37311854  1
  V  V8  1  0.37327225  0.75254155  0.12569250  1
  V  V9  1  0.25527052  0.74344239  -0.00092433  1
  V  V10  1  0.12962094  0.49715358  0.13055889  1
  V  V11  1  0.37575488  0.37146323  -0.00058649  1
  V  V12  1  0.74945302  -0.00627477  0.74731058  1
  V  V13  1  0.74593445  0.87631834  0.11842175  1
  V  V14  1  0.24900455  0.37280309  0.62604130  1
  V  V15  1  0.12779623  0.62414210  0.00123443  1
  V  V16  1  0.25231687  0.62152233  0.87369889  1
  V  V17  1  -0.00073321  0.87780812  0.88204348  1
  V  V18  1  0.50220460  0.25091266  0.75099345  1
  V  V19  1  0.87645940  0.12371817  0.25025684  1
  V  V20  1  0.37730934  0.00228430  0.37748560  1
  V  V21  1  0.62966270  0.24913847  0.38660263  1
  V  V22  1  0.88161080  0.13581525  0.74771460  1
  V  V23  1  0.12614854  0.74900918  0.87384154  1
  V  V24  1  0.37469317  0.12482105  0.74932171  1
  V  V25  1  0.75846944  0.50913549  0.74489394  1
  V  V26  1  0.62689309  0.50451188  0.62485467  1
  V  V27  1  0.63006436  0.75301879  0.37989391  1
  V  V28  1  0.62960725  0.75330703  0.87757506  1
  V  V29  1  0.74668364  0.12325698  0.87897111  1
  V  V30  1  0.11284240  0.00270925  0.61344974  1
  V  V31  1  -0.00700021  0.49434980  -0.00250882  1
  V  V32  1  0.00007049  0.62732798  0.12878586  1
  V  V33  1  0.62545596  0.24693894  0.88080938  1
  V  V34  1  -0.00735990  0.62367166  0.63224179  1
  V  V35  1  0.50530555  0.75667295  0.74874535  1
  V  V36  1  0.37422588  0.50185415  0.37765383  1
  V  V37  1  0.75077536  0.38544239  0.12669822  1
  V  V38  1  0.01306725  0.10745035  0.11951248  1
  V  V39  1  0.12266580  0.49778275  0.62526051  1
  V  V40  1  0.24787924  0.37200258  0.13128021  1
  V  V41  1  0.23718273  0.88968376  0.10810257  1
  V  V42  1  0.75164749  0.36060226  0.62048453  1
  V  V43  1  0.25044267  0.00087591  0.24861179  1
  V  V44  1  0.62159929  0.62056911  0.00695687  1
  V  V45  1  0.24988876  0.75128000  0.50071985  1
  V  V46  1  0.37483453  0.62722828  0.25129744  1
  V  V47  1  0.87274487  0.74687027  0.62155915  1
  V  V48  1  0.11163424  0.36745316  0.75943835  1
  V  V49  1  0.00727286  0.25741577  0.24757302  1
  V  V50  1  0.25000275  0.49841256  0.75031235  1
  V  V51  1  0.87854841  0.88628729  0.49489239  1
  V  V52  1  0.50199790  0.37679760  0.37614472  1
  V  V53  1  -0.00522635  0.49800927  0.49828459  1
  V  V54  1  0.37369198  0.87615003  0.50123922  1
  V  V55  1  0.74887292  0.86976749  0.61721021  1
  V  V56  1  0.38030079  0.49817389  0.87477601  1
  V  V57  1  0.87032468  0.75158166  0.12187257  1
  V  V58  1  0.75766467  0.62618172  0.87582857  1
  V  V59  1  0.49908753  0.75223748  0.24702047  1
  V  V60  1  -0.00234528  0.13636999  0.61504190  1
  V  V61  1  0.50681570  0.00476952  0.50057721  1
  V  V62  1  0.50183048  0.50468399  0.50095503  1
  V  V63  1  0.24132225  0.12626897  0.87814235  1
  V  V64  1  0.37850526  0.12581016  0.24863407  1
  V  V65  1  0.11950518  0.87317604  0.74861216  1
  V  V66  1  -0.00244408  0.89474326  0.37779798  1
  V  V67  1  0.50713928  0.12684984  0.62138394  1
  V  V68  1  0.75229814  0.00309087  0.25088378  1
  V  V69  1  0.24816557  0.62558607  0.37586616  1
  V  V70  1  0.87570500  -0.00475095  0.88080729  1
  V  V71  1  0.37698725  -0.00300500  0.87623080  1
  V  V72  1  0.75284229  0.25094014  0.00214153  1
  V  V73  1  0.62669260  -0.00198558  0.62735093  1
  V  V74  1  0.75109942  0.12867293  0.38510250  1
  V  V75  1  0.24825543  0.00041461  0.74941092  1
  V  V76  1  0.86766386  0.49938532  0.36660363  1
  V  V77  1  0.12226071  0.62389815  0.50014828  1
  V  V78  1  0.24355689  0.24125889  0.50172339  1
  V  V79  1  0.50279127  0.24977251  0.24937007  1
  V  V80  1  0.87090973  0.36197441  0.49960392  1
  V  V81  1  0.62878288  0.38820397  0.24731798  1
  V  V82  1  0.12508548  0.25217004  0.37407154  1
  V  V83  1  0.24058432  0.24609665  -0.00228609  1
  V  V84  1  0.12356851  0.87974431  0.24790901  1
  Zn  Zn85  1  0.00150775  0.37732311  0.36837770  1
  Zn  Zn86  1  0.37438699  0.37547248  0.49990688  1
  Zn  Zn87  1  0.88158169  0.49762685  0.86654661  1
  Zn  Zn88  1  0.37559127  0.24695740  0.12328042  1
  Zn  Zn89  1  0.51856772  0.49406374  0.02992303  1
  Zn  Zn90  1  0.62819580  0.37770434  0.75184281  1
  Zn  Zn91  1  -0.00932458  0.74137781  0.75510237  1
  Zn  Zn92  1  0.24238863  0.12291238  0.38006007  1
  Zn  Zn93  1  0.49835770  0.62617309  0.62794043  1
  Zn  Zn94  1  0.63020672  0.63619137  0.50339263  1
  Zn  Zn95  1  0.51081304  0.88075331  0.87125970  1
  Zn  Zn96  1  0.10267436  0.24213001  0.87399296  1
  Zn  Zn97  1  0.38496205  0.87094030  -0.00285088  1
  Zn  Zn98  1  0.87695156  0.87610225  0.00214992  1
  Zn  Zn99  1  0.93751755  0.33220961  -0.07388751  1
  Zn  Zn100  1  0.50248361  0.87737634  0.37572893  1
  Zn  Zn101  1  0.24583651  0.49201530  0.25644829  1
  Zn  Zn102  1  0.37755058  0.62598724  0.74893055  1
  Zn  Zn103  1  0.86645621  0.62349593  0.24733408  1
  Zn  Zn104  1  0.51593922  0.12492586  0.12354152  1
  Zn  Zn105  1  0.37446353  0.74821362  0.62698663  1
  Zn  Zn106  1  -0.00453131  0.75271841  0.25190602  1
  Zn  Zn107  1  0.18850797  0.18659292  0.18916078  1
  Zn  Zn108  1  0.18150781  0.18628903  0.68943830  1
  Zn  Zn109  1  0.18935700  0.69155815  0.18779772  1
  Zn  Zn110  1  0.18579968  0.68547301  0.68671778  1
  Zn  Zn111  1  0.68875206  0.19574384  0.19578025  1
  Zn  Zn112  1  0.68711556  0.18309972  0.69425559  1
  Zn  Zn113  1  0.68809205  0.69014532  0.19123849  1
  Zn  Zn114  1  0.68702335  0.68912391  0.69029469  1
  Zn  Zn115  1  0.31392660  0.31094744  0.31742160  1
  Zn  Zn116  1  0.31050508  0.31081038  0.81198900  1
  Zn  Zn117  1  0.30808793  0.81661081  0.31334985  1
  Zn  Zn118  1  0.31349607  0.81158316  0.80883697  1
  Zn  Zn119  1  0.81432592  0.31256573  0.31076662  1
  Zn  Zn120  1  0.80934950  0.31825910  0.80740581  1
  Zn  Zn121  1  0.81266680  0.81187148  0.31056417  1
  Zn  Zn122  1  0.81256486  0.81103504  0.80618451  1
  Zn  Zn123  1  0.18544580  0.43371293  0.43830220  1
  Zn  Zn124  1  0.18692283  0.43637028  0.94080272  1
  Zn  Zn125  1  0.18653687  0.93817956  0.43554379  1
  Zn  Zn126  1  0.19329353  0.93206872  0.93395382  1
  Zn  Zn127  1  0.68802224  0.43762730  0.43774467  1
  Zn  Zn128  1  0.69514048  0.43817902  0.93781877  1
  Zn  Zn129  1  0.69100540  0.94080490  0.43558063  1
  Zn  Zn130  1  0.68812195  0.93716609  0.93512071  1
  Zn  Zn131  1  0.31672181  0.06455645  0.06005966  1
  Zn  Zn132  1  0.31210785  0.06094630  0.56620424  1
  Zn  Zn133  1  0.34473715  0.54411347  0.08281189  1
  Zn  Zn134  1  0.31345530  0.56454958  0.56409505  1
  Zn  Zn135  1  0.69021117  0.06386226  0.06656433  1
  Zn  Zn136  1  0.81823627  0.06373220  0.56369082  1
  Zn  Zn137  1  0.80999426  0.56953331  0.05893221  1
  Zn  Zn138  1  0.81029349  0.56329121  0.55448782  1
  Zn  Zn139  1  0.43706044  0.43489321  0.19199485  1
  Zn  Zn140  1  0.43881198  0.43608284  0.68929451  1
  Zn  Zn141  1  0.43256344  0.93495260  0.18425906  1
  Zn  Zn142  1  0.43724409  0.93554158  0.68801484  1
  Zn  Zn143  1  0.93588689  0.43667838  0.18155449  1
  Zn  Zn144  1  0.93318067  0.43211251  0.68382173  1
  Zn  Zn145  1  0.93359462  0.93618301  0.19087855  1
  Zn  Zn146  1  0.93301713  0.93629288  0.68942704  1
  Zn  Zn147  1  0.06591801  0.07068060  0.30813525  1
  Zn  Zn148  1  0.05895267  0.05944456  0.80780248  1
  Zn  Zn149  1  0.05979463  0.56112110  0.31202306  1
  Zn  Zn150  1  0.06603455  0.55801208  0.81309656  1
  Zn  Zn151  1  0.56744235  0.06614256  0.31429487  1
  Zn  Zn152  1  0.56266678  0.06268153  0.81045446  1
  Zn  Zn153  1  0.56097171  0.56838044  0.31183696  1
  Zn  Zn154  1  0.56614718  0.56827301  0.81290495  1
  Zn  Zn155  1  0.43595145  0.19066042  0.43807370  1
  Zn  Zn156  1  0.43529934  0.18482630  0.93617277  1
  Zn  Zn157  1  0.44042875  0.69074857  0.43618740  1
  Zn  Zn158  1  0.44410972  0.68306967  0.93638190  1
  Zn  Zn159  1  0.94183515  0.18246784  0.43141187  1
  Zn  Zn160  1  0.93538105  0.16428839  0.94544285  1
  Zn  Zn161  1  0.92884635  0.68820453  0.44254396  1
  Zn  Zn162  1  0.93933104  0.68880872  0.94214200  1
  Zn  Zn163  1  0.06483841  0.31041658  0.06458572  1
  Zn  Zn164  1  0.06250531  0.31325463  0.56063623  1
  Zn  Zn165  1  0.06220724  0.81007673  0.06154333  1
  Zn  Zn166  1  0.05667838  0.81143780  0.56127888  1
  Zn  Zn167  1  0.56703749  0.31094343  0.06419428  1
  Zn  Zn168  1  0.56353855  0.31816448  0.56422638  1
  Zn  Zn169  1  0.56254616  0.81282277  0.05818805  1
  Zn  Zn170  1  0.56068944  0.81856095  0.56373809  1
  O  O171  1  0.11225753  0.12509708  0.13257917  1
  O  O172  1  0.11053109  0.11128120  0.63381797  1
  O  O173  1  0.12102502  0.62036452  0.12093783  1
  O  O174  1  0.11588776  0.61785651  0.61891472  1
  O  O175  1  0.62767691  0.12843783  0.13138436  1
  O  O176  1  0.61472811  0.11688731  0.62867024  1
  O  O177  1  0.63632474  0.63713222  0.10487800  1
  O  O178  1  0.62330583  0.61687147  0.62164390  1
  O  O179  1  0.38294746  0.38361965  0.37638519  1
  O  O180  1  0.38156445  0.37742807  0.88038235  1
  O  O181  1  0.37562084  0.88818367  0.38009038  1
  O  O182  1  0.37489719  0.88968133  0.87123545  1
  O  O183  1  0.87454607  0.38357883  0.38134915  1
  O  O184  1  0.85432513  0.38765334  0.88169911  1
  O  O185  1  0.88168188  0.86984445  0.38680993  1
  O  O186  1  0.88207687  0.87665549  0.87346932  1
  O  O187  1  0.25990299  0.00142651  0.36846344  1
  O  O188  1  0.25604294  0.00672689  0.87015407  1
  O  O189  1  0.25356621  0.50600696  0.37657471  1
  O  O190  1  0.25702821  0.50216876  0.86959634  1
  O  O191  1  0.74287853  0.01662555  0.36313379  1
  O  O192  1  0.75238740  0.00400281  0.86546783  1
  O  O193  1  0.75944706  0.50632865  0.37759763  1
  O  O194  1  0.74809274  0.51341294  0.86345440  1
  O  O195  1  0.24618202  0.49071553  0.12633063  1
  O  O196  1  0.24399947  0.49139323  0.62832147  1
  O  O197  1  0.27428213  0.99737904  0.14656030  1
  O  O198  1  0.23822332  0.99623038  0.63052435  1
  O  O199  1  0.75993081  0.48337623  0.11904276  1
  O  O200  1  0.74243780  0.50245227  0.62856759  1
  O  O201  1  0.74534827  0.98542261  0.13651614  1
  O  O202  1  0.74400096  0.99663327  0.62836281  1
  O  O203  1  -0.00545950  0.36152085  0.24763750  1
  O  O204  1  0.01250920  0.37993116  0.74670886  1
  O  O205  1  0.00679741  0.87378356  0.26107142  1
  O  O206  1  0.00891567  0.87130026  0.75681856  1
  O  O207  1  0.50531629  0.36776611  0.25558777  1
  O  O208  1  0.50396116  0.36736371  0.75717436  1
  O  O209  1  0.50677983  0.87135357  0.25072760  1
  O  O210  1  0.49986357  0.86314164  0.75265302  1
  O  O211  1  0.49530815  0.13345732  0.25242374  1
  O  O212  1  0.49547119  0.13055707  0.74061818  1
  O  O213  1  0.48547910  0.63893805  0.25510909  1
  O  O214  1  0.49854063  0.63850034  0.74973678  1
  O  O215  1  0.99303474  0.13522840  0.24497432  1
  O  O216  1  0.98561674  0.12339898  0.74611249  1
  O  O217  1  0.99961896  0.62642115  0.23640893  1
  O  O218  1  1.00503986  0.62103841  0.73659000  1
  O  O219  1  0.36854597  0.25914350  -0.00135659  1
  O  O220  1  0.36602153  0.25452834  0.50678331  1
  O  O221  1  0.37366024  0.74403255  0.00941767  1
  O  O222  1  0.36908601  0.75845800  0.49952255  1
  O  O223  1  0.86542911  0.24565276  0.00779058  1
  O  O224  1  0.88149794  0.26425071  0.49064839  1
  O  O225  1  0.87885492  0.75482770  0.01600656  1
  O  O226  1  0.87678440  0.76203774  0.51355478  1
  O  O227  1  0.13570576  0.25337895  0.49416924  1
  O  O228  1  0.13792945  0.25681598  0.99209350  1
  O  O229  1  0.12808461  0.74562445  0.49253877  1
  O  O230  1  0.13505574  0.74476815  0.99400896  1
  O  O231  1  0.61935695  0.25629960  0.48574515  1
  O  O232  1  0.63296626  0.24954522  0.98840633  1
  O  O233  1  0.61241280  0.75391826  0.48413145  1
  O  O234  1  0.61926314  0.74066074  0.98413425  1
  O  O235  1  0.49883019  0.25051408  0.13878682  1
  O  O236  1  0.49760397  0.24447888  0.62858623  1
  O  O237  1  0.48686096  0.76221812  0.13612135  1
  O  O238  1  0.50305610  0.75169443  0.63828148  1
  O  O239  1  0.99501701  0.24665482  0.12989680  1
  O  O240  1  1.00766493  0.23499808  0.62431453  1
  O  O241  1  0.99431046  0.74135983  0.12666440  1
  O  O242  1  0.99401117  0.73853201  0.62593290  1
  O  O243  1  0.00688960  0.25173343  0.36505140  1
  O  O244  1  -0.00738478  0.24416077  0.89093424  1
  O  O245  1  0.00982407  0.75104019  0.37675582  1
  O  O246  1  0.00665680  0.75595451  0.87295829  1
  O  O247  1  0.50653604  0.25524747  0.36856619  1
  O  O248  1  0.50744730  0.25299036  0.87224105  1
  O  O249  1  0.50585856  0.75618490  0.36288325  1
  O  O250  1  0.51043435  0.75253986  0.86654643  1
  O  O251  1  0.25612593  0.13666426  0.50068218  1
  O  O252  1  0.25783158  0.13412961  0.99036207  1
  O  O253  1  0.24203775  0.63016714  0.49550922  1
  O  O254  1  0.24840990  0.63293430  0.99471044  1
  O  O255  1  0.75992345  0.12076300  0.48350086  1
  O  O256  1  0.74886846  0.13112707  0.98579994  1
  O  O257  1  0.74570352  0.62409867  0.48203120  1
  O  O258  1  0.74054268  0.62140146  0.98274806  1
  O  O259  1  0.25765180  0.36541525  0.00496713  1
  O  O260  1  0.24995497  0.36784330  0.51425224  1
  O  O261  1  0.26352384  0.85097711  -0.00867023  1
  O  O262  1  0.25379320  0.87105504  0.50402028  1
  O  O263  1  0.74310063  0.36176557  0.01510272  1
  O  O264  1  0.75552049  0.37869753  0.51244296  1
  O  O265  1  0.74816327  0.88033846  0.01654500  1
  O  O266  1  0.76181437  0.88128863  0.50706166  1
  O  O267  1  0.12730136  0.50508189  0.23579987  1
  O  O268  1  0.13083406  0.48878713  0.74461337  1
  O  O269  1  0.13874474  0.99101296  0.25909990  1
  O  O270  1  0.12877463  0.98831268  0.74342392  1
  O  O271  1  0.61489302  0.48721228  0.25181372  1
  O  O272  1  0.63335557  0.49999727  0.73952292  1
  O  O273  1  0.62988910  0.98891925  0.25313200  1
  O  O274  1  0.63518956  1.00439436  0.73860710  1
  O  O275  1  0.37514979  0.00599442  0.26180794  1
  O  O276  1  0.36994857  0.00511607  0.75522559  1
  O  O277  1  0.37121239  0.51250035  0.26026989  1
  O  O278  1  0.36875030  0.49698797  0.76057240  1
  O  O279  1  0.86337302  0.01040993  0.24770994  1
  O  O280  1  0.86490542  0.00548189  0.75559888  1
  O  O281  1  0.88444420  0.50153623  0.26310090  1
  O  O282  1  0.86335681  0.49992888  0.74677613  1
  O  O283  1  0.12050708  0.36147672  0.37875802  1
  O  O284  1  0.12705814  0.37620355  0.86146059  1
  O  O285  1  0.11681626  0.86948348  0.37016668  1
  O  O286  1  0.11961992  0.87140168  0.86759630  1
  O  O287  1  0.62244212  0.36995077  0.36753007  1
  O  O288  1  0.62299382  0.36534155  0.87499246  1
  O  O289  1  0.62608157  0.87043728  0.36533410  1
  O  O290  1  0.63189153  0.85761611  0.87625743  1
  O  O291  1  0.38179819  0.12670643  0.13967195  1
  O  O292  1  0.38487894  0.12903411  0.63086571  1
  O  O293  1  0.35801055  0.64550634  0.13972443  1
  O  O294  1  0.37876968  0.62986783  0.62962028  1
  O  O295  1  0.88709884  0.13793375  0.13752490  1
  O  O296  1  0.88538581  0.11948565  0.63820776  1
  O  O297  1  0.88086548  0.63240218  0.12603094  1
  O  O298  1  0.88294262  0.63202291  0.61465486  1
  O  O299  1  0.25098962  0.25437737  0.11573267  1
  O  O300  1  0.25242361  0.25386927  0.62116238  1
  O  O301  1  0.25093298  0.76237893  0.11434075  1
  O  O302  1  0.24709504  0.75737345  0.61774353  1
  O  O303  1  0.75945053  0.24989252  0.11727398  1
  O  O304  1  0.74065319  0.26273667  0.62871132  1
  O  O305  1  0.75859551  0.76596674  0.13458499  1
  O  O306  1  0.75337642  0.76221790  0.62922250  1
  O  O307  1  0.24459653  0.25023394  0.38516267  1
  O  O308  1  0.25223869  0.23944443  0.88160733  1
  O  O309  1  0.23858876  0.74791370  0.38135606  1
  O  O310  1  0.24754457  0.74187318  0.87907482  1
  O  O311  1  0.74318248  0.23873820  0.36797482  1
  O  O312  1  0.74494575  0.24300312  0.88179599  1
  O  O313  1  0.73746692  0.74507781  0.36896121  1
  O  O314  1  0.74015114  0.73864493  0.86324775  1
  O  O315  1  -0.00082374  0.11311228  0.02022251  1
  O  O316  1  -0.01190372  0.12282538  0.51637274  1
  O  O317  1  0.00768282  0.61898932  0.01177725  1
  O  O318  1  0.00277799  0.61498716  0.50701838  1
  O  O319  1  0.49363581  0.11088193  0.00214568  1
  O  O320  1  0.49241615  0.11658236  0.51130707  1
  O  O321  1  0.51725523  0.61847414  -0.00502909  1
  O  O322  1  0.50274591  0.61421814  0.50074507  1
  O  O323  1  0.49852189  0.38756738  0.49500902  1
  O  O324  1  0.49292910  0.37598462  0.99674373  1
  O  O325  1  0.49239301  0.88945708  0.49983576  1
  O  O326  1  0.50126610  0.88796545  0.99264744  1
  O  O327  1  0.99073566  0.38614095  0.50383915  1
  O  O328  1  1.00249695  0.39051258  1.00550065  1
  O  O329  1  0.98910117  0.87335098  0.49143206  1
  O  O330  1  1.00253369  0.87267173  0.98599970  1
  O  O331  1  0.49576842  0.49763933  0.38309777  1
  O  O332  1  0.49106491  0.49316226  0.87094661  1
  O  O333  1  0.49485665  1.00298159  0.38466132  1
  O  O334  1  0.49427171  1.00138972  0.88082738  1
  O  O335  1  0.99322441  0.49929222  0.38460020  1
  O  O336  1  0.99982020  0.50879820  0.89267616  1
  O  O337  1  1.00398387  0.99312039  0.37080153  1
  O  O338  1  0.98984942  0.98777467  0.86614307  1
  O  O339  1  0.00214837  0.00944500  0.13999101  1
  O  O340  1  0.01022983  0.00070495  0.62848671  1
  O  O341  1  0.00800372  0.50678863  0.11785547  1
  O  O342  1  0.00071040  0.50525670  0.61643514  1
  O  O343  1  0.49448063  -0.00209894  0.10878882  1
  O  O344  1  0.50692521  0.00644486  0.62107108  1
  O  O345  1  0.45323984  0.51343544  0.11645089  1
  O  O346  1  0.50922795  0.49775744  0.61872666  1
  O  O347  1  0.25956718  0.37268478  0.23578394  1
  O  O348  1  0.24347070  0.37770184  0.74047224  1
  O  O349  1  0.24200380  0.88292531  0.24159196  1
  O  O350  1  0.23921963  0.87920802  0.74493706  1
  O  O351  1  0.74211504  0.36899072  0.23683283  1
  O  O352  1  0.74839269  0.38601801  0.73269112  1
  O  O353  1  0.74392261  0.88482947  0.24716425  1
  O  O354  1  0.75677657  0.88736369  0.73521571  1
  O  O355  1  0.26163263  0.11863965  0.25406273  1
  O  O356  1  0.25512148  0.12062723  0.75614786  1
  O  O357  1  0.25881079  0.62884905  0.25932159  1
  O  O358  1  0.24927980  0.61650041  0.75607441  1
  O  O359  1  0.75911860  0.11964858  0.25215091  1
  O  O360  1  0.75968415  0.11482808  0.75558501  1
  O  O361  1  0.74833406  0.62634109  0.26455174  1
  O  O362  1  0.74600022  0.61846575  0.76074307  1
  O  O363  1  0.37563771  0.11582889  0.36795494  1
  O  O364  1  0.36730180  0.11511253  0.86793582  1
  O  O365  1  0.36841216  0.62325587  0.36997237  1
  O  O366  1  0.37086501  0.61288511  0.87536480  1
  O  O367  1  0.86291072  0.13385178  0.36150914  1
  O  O368  1  0.86596669  0.11419191  0.86431069  1
  O  O369  1  0.86769356  0.61825332  0.37361789  1
  O  O370  1  0.86161353  0.62576592  0.88103422  1
  O  O371  1  0.13739067  0.38483467  0.11815331  1
  O  O372  1  0.13165284  0.37799812  0.63398270  1
  O  O373  1  0.12619118  0.86119240  0.14326626  1
  O  O374  1  0.12494780  0.88307161  0.63051453  1
  O  O375  1  0.63879594  0.37003567  0.13326157  1
  O  O376  1  0.63729173  0.38621173  0.62385805  1
  O  O377  1  0.63705447  0.86423603  0.13477689  1
  O  O378  1  0.63563831  0.88776423  0.61875557  1
  O  O379  1  0.11675638  0.24929691  0.25653668  1
  O  O380  1  0.12678124  0.26336771  0.75485080  1
  O  O381  1  0.12582364  0.75907059  0.26284643  1
  O  O382  1  0.12504381  0.75954233  0.75510626  1
  O  O383  1  0.61587418  0.26100055  0.26097746  1
  O  O384  1  0.62077504  0.25251738  0.76185292  1
  O  O385  1  0.61530185  0.75961438  0.25621585  1
  O  O386  1  0.61355935  0.74583373  0.76150592  1
  O  O387  1  0.38564139  0.24121898  0.25476849  1
  O  O388  1  0.38152478  0.24449348  0.74458155  1
  O  O389  1  0.37894353  0.74966006  0.24715264  1
  O  O390  1  0.38883495  0.74848948  0.75044531  1
  O  O391  1  0.88327328  0.24362958  0.24316598  1
  O  O392  1  0.86594802  0.23344287  0.75352525  1
  O  O393  1  0.87820520  0.74821956  0.23828969  1
  O  O394  1  0.87750124  0.75645033  0.72946163  1
  O  O395  1  0.38370251  0.49944483  0.49567764  1
  O  O396  1  0.36612351  0.48404166  0.98366696  1
  O  O397  1  0.38171347  0.99743112  0.49445921  1
  O  O398  1  0.38247834  0.99729655  0.98907997  1
  O  O399  1  0.88163138  0.49318197  0.49051589  1
  O  O400  1  0.89242548  0.50685280  1.00416103  1
  O  O401  1  0.87765294  0.98509330  0.50322603  1
  O  O402  1  0.86738236  0.99507785  0.97976263  1
  O  O403  1  0.18629877  -0.04527117  0.04539253  1
  O  O404  1  0.12690059  -0.00317294  0.51491878  1
  O  O405  1  0.11929461  0.50570113  0.01002991  1
  O  O406  1  0.11459277  0.50267254  0.50482273  1
  O  O407  1  0.61464831  0.00249049  -0.00354996  1
  O  O408  1  0.61435332  -0.00120866  0.50798504  1
  O  O409  1  0.62765638  0.51200229  -0.00237700  1
  O  O410  1  0.61661392  0.50120493  0.50778271  1
  O  O411  1  0.36553606  0.36971534  0.11419936  1
  O  O412  1  0.36459560  0.36847961  0.62713708  1
  O  O413  1  0.35875842  0.86717352  0.12048004  1
  O  O414  1  0.36562532  0.87499551  0.61899625  1
  O  O415  1  0.86186822  0.36113809  0.13133909  1
  O  O416  1  0.85962386  0.37609148  0.61599557  1
  O  O417  1  0.86412027  0.87108707  0.12500061  1
  O  O418  1  0.86971504  0.87100572  0.61345768  1
  O  O419  1  0.12677391  0.14256242  0.37289774  1
  O  O420  1  0.13747009  0.12303723  0.86654072  1
  O  O421  1  0.12702596  0.63203010  0.37971503  1
  O  O422  1  0.13190181  0.62899005  0.88075868  1
  O  O423  1  0.64003559  0.13545629  0.37011174  1
  O  O424  1  0.63644325  0.13410144  0.86496639  1
  O  O425  1  0.62909326  0.63605152  0.37453129  1
  O  O426  1  0.63459347  0.63442979  0.88199470  1
