# generated using pymatgen
data_V85Zn86O256
_symmetry_space_group_name_H-M   'P 1'
_cell_length_a   16.93913187
_cell_length_b   16.94140914
_cell_length_c   16.92874298
_cell_angle_alpha   90.09028324
_cell_angle_beta   89.94419761
_cell_angle_gamma   90.09458231
_symmetry_Int_Tables_number   1
_chemical_formula_structural   V85Zn86O256
_chemical_formula_sum   'V85 Zn86 O256'
_cell_volume   4858.07321150
_cell_formula_units_Z   1
loop_
 _symmetry_equiv_pos_site_id
 _symmetry_equiv_pos_as_xyz
  1  'x, y, z'
loop_
 _atom_site_type_symbol
 _atom_site_label
 _atom_site_symmetry_multiplicity
 _atom_site_fract_x
 _atom_site_fract_y
 _atom_site_fract_z
 _atom_site_occupancy
  V  V0  1  0.86819921  0.49670328  0.37652633  1
  V  V1  1  0.12281917  0.12559203  0.49906799  1
  V  V2  1  -0.00557447  0.12792856  0.62396336  1
  V  V3  1  0.87473140  0.87552957  -0.00039486  1
  V  V4  1  0.36164900  0.48933306  0.37077250  1
  V  V5  1  0.49816461  0.12543063  0.62386294  1
  V  V6  1  0.50527500  0.37738743  0.88085311  1
  V  V7  1  0.62034746  0.00886132  0.11878426  1
  V  V8  1  0.37231745  0.37772962  0.00082726  1
  V  V9  1  0.87454194  0.75087893  0.12529102  1
  V  V10  1  0.13225155  -0.00197643  0.63092273  1
  V  V11  1  0.12933492  0.50260956  0.62269251  1
  V  V12  1  0.00341752  0.87124047  0.37616231  1
  V  V13  1  0.37144128  -0.00176290  0.87183801  1
  V  V14  1  0.12390497  0.12640982  0.00012900  1
  V  V15  1  0.25161490  0.75018029  -0.00258602  1
  V  V16  1  -0.00148757  -0.00021526  0.00057593  1
  V  V17  1  0.25050657  0.87442152  0.12444744  1
  V  V18  1  0.25820539  0.26026480  0.51129793  1
  V  V19  1  0.00032754  0.86969099  0.86582156  1
  V  V20  1  0.62533519  0.62349420  0.00470149  1
  V  V21  1  0.87321670  0.12917702  0.74609663  1
  V  V22  1  0.74344409  0.85421309  0.62445447  1
  V  V23  1  0.36265426  0.62358678  0.25783488  1
  V  V24  1  -0.00653337  0.37188406  0.37365657  1
  V  V25  1  0.50323679  0.87769697  0.37048594  1
  V  V26  1  0.38021187  0.88021226  0.00113802  1
  V  V27  1  0.62167245  0.38239044  0.25668802  1
  V  V28  1  0.89691899  0.74575948  0.62681588  1
  V  V29  1  -0.00209456  0.50603725  0.50604641  1
  V  V30  1  0.48741104  0.26382129  0.73463464  1
  V  V31  1  0.86859500  0.61894350  0.25081182  1
  V  V32  1  0.13137207  0.50030184  0.12982934  1
  V  V33  1  0.12575996  0.37721225  0.25063402  1
  V  V34  1  0.61937420  0.75391094  0.87763822  1
  V  V35  1  0.74593600  0.12574783  0.38175292  1
  V  V36  1  0.24687255  0.11959224  0.87062294  1
  V  V37  1  0.61580694  0.62619634  0.49813325  1
  V  V38  1  0.50532396  0.74993431  0.24996510  1
  V  V39  1  0.50069135  0.00406936  0.49711582  1
  V  V40  1  0.37179125  0.12487259  0.74814308  1
  V  V41  1  -0.00030230  0.62438814  0.12487317  1
  V  V42  1  0.38445995  0.74453854  0.63075527  1
  V  V43  1  0.63406125  0.37662901  0.74693980  1
  V  V44  1  0.87927988  0.24993154  0.13089037  1
  V  V45  1  -0.00184892  0.25432858  0.74507124  1
  V  V46  1  0.62407459  0.00180815  0.62177802  1
  V  V47  1  0.75098049  0.62767872  0.87192282  1
  V  V48  1  0.62991405  0.75486559  0.37679918  1
  V  V49  1  0.61815887  0.87425520  0.75205334  1
  V  V50  1  0.00679678  0.37477468  0.87367815  1
  V  V51  1  0.75352154  0.25744399  0.50967530  1
  V  V52  1  0.87102928  -0.00199454  0.37589721  1
  V  V53  1  0.75029712  0.38042246  0.13325634  1
  V  V54  1  0.12619532  0.62442577  -0.00031744  1
  V  V55  1  0.50140334  0.12492418  0.10734664  1
  V  V56  1  0.37892357  0.50415824  0.87325420  1
  V  V57  1  0.87418392  -0.00054878  0.87402254  1
  V  V58  1  0.00446871  0.75000332  0.25483923  1
  V  V59  1  0.74880749  -0.00021686  0.74824583  1
  V  V60  1  0.61462036  0.49923463  0.62178172  1
  V  V61  1  0.50089083  0.88365164  0.87853021  1
  V  V62  1  0.25112060  0.74843775  0.48722217  1
  V  V63  1  0.74363337  0.87908083  0.13289476  1
  V  V64  1  0.75140847  0.75218104  0.00089523  1
  V  V65  1  0.11612419  0.24837945  0.36919162  1
  V  V66  1  -0.00493511  -0.00242556  0.50127648  1
  V  V67  1  0.25717837  0.62564269  0.86644605  1
  V  V68  1  0.74554345  0.12760706  0.87825835  1
  V  V69  1  0.37467121  0.25105268  0.12363301  1
  V  V70  1  0.74996841  0.62712829  0.38167400  1
  V  V71  1  0.87788788  0.12901776  0.25212380  1
  V  V72  1  0.75069041  0.50464820  0.73829628  1
  V  V73  1  0.87290645  0.37232752  -0.00148883  1
  V  V74  1  0.37731244  0.12397021  0.24844143  1
  V  V75  1  0.49375045  0.48501324  0.48702094  1
  V  V76  1  0.62429697  0.24744132  0.87867690  1
  V  V77  1  0.25717586  0.49525755  0.74115756  1
  V  V78  1  0.61823290  0.24639791  0.37758253  1
  V  V79  1  0.12730955  0.62881931  0.48396451  1
  V  V80  1  0.89595641  0.62962147  0.74846599  1
  V  V81  1  0.12367082  -0.00263737  0.12748609  1
  V  V82  1  0.24969512  0.12495695  0.37391374  1
  V  V83  1  0.12353985  0.74795270  0.86244675  1
  V  V84  1  0.87593333  0.50118006  0.87267837  1
  Zn  Zn85  1  0.37804131  0.74706619  0.12573112  1
  Zn  Zn86  1  0.24690791  0.25126800  0.00035806  1
  Zn  Zn87  1  0.62886981  0.50366179  0.13330912  1
  Zn  Zn88  1  0.25017757  -0.00260821  0.25204780  1
  Zn  Zn89  1  0.12972089  0.86953307  0.25710107  1
  Zn  Zn90  1  0.43019458  0.61211723  0.71525566  1
  Zn  Zn91  1  0.00190605  0.12921925  0.13127902  1
  Zn  Zn92  1  0.49798332  0.25385127  0.25380001  1
  Zn  Zn93  1  0.13814284  0.36799978  0.73300296  1
  Zn  Zn94  1  0.37414080  -0.00091066  0.37527125  1
  Zn  Zn95  1  0.12707491  0.25068171  0.87318152  1
  Zn  Zn96  1  0.25454815  0.37993002  0.13396033  1
  Zn  Zn97  1  0.37180006  0.87539231  0.50048113  1
  Zn  Zn98  1  0.87197875  0.37392967  0.53240522  1
  Zn  Zn99  1  0.74294909  0.24615114  0.00535072  1
  Zn  Zn100  1  0.50163553  0.50391546  0.00700122  1
  Zn  Zn101  1  0.73974103  -0.00309388  0.25581671  1
  Zn  Zn102  1  0.86513449  0.86024497  0.49693783  1
  Zn  Zn103  1  0.13436091  0.88028365  0.75288039  1
  Zn  Zn104  1  0.25474215  0.87025158  0.63156697  1
  Zn  Zn105  1  0.49869090  0.62306443  0.12852020  1
  Zn  Zn106  1  0.00071764  0.49962970  0.00028902  1
  Zn  Zn107  1  0.18842312  0.18970554  0.18815118  1
  Zn  Zn108  1  0.18487101  0.18403173  0.68789327  1
  Zn  Zn109  1  0.18710026  0.68832310  0.18764402  1
  Zn  Zn110  1  0.19375839  0.68356769  0.67641661  1
  Zn  Zn111  1  0.68935715  0.18875536  0.19254077  1
  Zn  Zn112  1  0.68003887  0.18805608  0.69142242  1
  Zn  Zn113  1  0.68930086  0.69039343  0.19130884  1
  Zn  Zn114  1  0.63809579  0.67198550  0.70131513  1
  Zn  Zn115  1  0.30817058  0.30901352  0.31588865  1
  Zn  Zn116  1  0.31140548  0.31073510  0.81655056  1
  Zn  Zn117  1  0.31887199  0.81305005  0.31091271  1
  Zn  Zn118  1  0.31344607  0.81059167  0.80364523  1
  Zn  Zn119  1  0.80665213  0.31077497  0.31452130  1
  Zn  Zn120  1  0.81447549  0.31414993  0.80619708  1
  Zn  Zn121  1  0.81459513  0.80903427  0.31181925  1
  Zn  Zn122  1  0.81045334  0.81037275  0.80726084  1
  Zn  Zn123  1  0.18459630  0.43593907  0.43781876  1
  Zn  Zn124  1  0.19077311  0.44328861  0.93786766  1
  Zn  Zn125  1  0.18667498  0.93742995  0.44404054  1
  Zn  Zn126  1  0.18699005  0.93595957  0.93761163  1
  Zn  Zn127  1  0.68778529  0.43507356  0.43894601  1
  Zn  Zn128  1  0.69401662  0.43875124  0.93727237  1
  Zn  Zn129  1  0.68765185  0.93436284  0.44331866  1
  Zn  Zn130  1  0.68832033  0.94274261  0.94251121  1
  Zn  Zn131  1  0.31187716  0.06168484  0.05990569  1
  Zn  Zn132  1  0.31485865  0.06838904  0.55883682  1
  Zn  Zn133  1  0.31444347  0.56524769  0.06407244  1
  Zn  Zn134  1  0.31269949  0.56517161  0.55428731  1
  Zn  Zn135  1  0.81021340  0.06273631  0.06400535  1
  Zn  Zn136  1  0.80679930  0.06191318  0.56137212  1
  Zn  Zn137  1  0.81168567  0.56094578  0.06098750  1
  Zn  Zn138  1  0.81168351  0.56935002  0.56453377  1
  Zn  Zn139  1  0.44223951  0.44236615  0.19035919  1
  Zn  Zn140  1  0.44254335  0.43619531  0.68737142  1
  Zn  Zn141  1  0.44198049  0.94009459  0.18765861  1
  Zn  Zn142  1  0.43374162  0.93440561  0.68623625  1
  Zn  Zn143  1  0.94103329  0.43709861  0.18890667  1
  Zn  Zn144  1  0.93988528  0.44114038  0.68678683  1
  Zn  Zn145  1  0.93454053  0.93788470  0.19067894  1
  Zn  Zn146  1  0.93423363  0.93483520  0.68503243  1
  Zn  Zn147  1  0.05979547  0.05864414  0.31285257  1
  Zn  Zn148  1  0.05863608  0.06168410  0.81225638  1
  Zn  Zn149  1  0.05730702  0.55898808  0.31212806  1
  Zn  Zn150  1  0.07208126  0.55591058  0.81130046  1
  Zn  Zn151  1  0.56338107  0.06279009  0.30342064  1
  Zn  Zn152  1  0.55779365  0.06408969  0.80936540  1
  Zn  Zn153  1  0.55811321  0.56452219  0.31457894  1
  Zn  Zn154  1  0.56716426  0.55949909  0.82129977  1
  Zn  Zn155  1  0.43534512  0.18898728  0.44148756  1
  Zn  Zn156  1  0.43449920  0.19254088  0.92917723  1
  Zn  Zn157  1  0.43662643  0.68549772  0.43663335  1
  Zn  Zn158  1  0.43952651  0.69126839  0.93784686  1
  Zn  Zn159  1  0.93155905  0.18851757  0.44101805  1
  Zn  Zn160  1  0.93670482  0.18911522  0.93678458  1
  Zn  Zn161  1  0.93732699  0.68563543  0.44102843  1
  Zn  Zn162  1  0.93938270  0.68798825  0.93647623  1
  Zn  Zn163  1  0.06016934  0.31432493  0.06405582  1
  Zn  Zn164  1  0.06447091  0.31589327  0.55638329  1
  Zn  Zn165  1  0.06210467  0.81019804  0.05835596  1
  Zn  Zn166  1  0.06584410  0.81381493  0.55692249  1
  Zn  Zn167  1  0.56316182  0.31203862  0.06799150  1
  Zn  Zn168  1  0.56550003  0.31342184  0.55899490  1
  Zn  Zn169  1  0.56385347  0.81596280  0.06544762  1
  Zn  Zn170  1  0.56079450  0.81500806  0.55731820  1
  O  O171  1  0.12451128  0.11666126  0.11874836  1
  O  O172  1  0.11303181  0.11482659  0.62020313  1
  O  O173  1  0.12084135  0.61902720  0.12113463  1
  O  O174  1  0.12976536  0.60988162  0.61267475  1
  O  O175  1  0.61694770  0.12048906  0.12708869  1
  O  O176  1  0.61462700  0.10624064  0.63915724  1
  O  O177  1  0.63063880  0.62605629  0.11532206  1
  O  O178  1  0.63107722  0.61018787  0.60680518  1
  O  O179  1  0.37466636  0.38990970  0.35959870  1
  O  O180  1  0.38616939  0.38105896  0.88144977  1
  O  O181  1  0.38769721  0.87953689  0.37780534  1
  O  O182  1  0.38210416  0.87972593  0.87911893  1
  O  O183  1  0.87966391  0.38387327  0.36957346  1
  O  O184  1  0.88244070  0.37844355  0.88020401  1
  O  O185  1  0.87857116  0.88253405  0.37722260  1
  O  O186  1  0.88019314  0.87826978  0.87774048  1
  O  O187  1  0.24785466  0.01268163  0.37541694  1
  O  O188  1  0.25797438  0.00774086  0.87832866  1
  O  O189  1  0.26278926  0.49903151  0.38131132  1
  O  O190  1  0.25895230  0.50784344  0.86646546  1
  O  O191  1  0.75419546  0.00560925  0.37819817  1
  O  O192  1  0.75335563  0.00764570  0.86836561  1
  O  O193  1  0.76125284  0.50728422  0.37977213  1
  O  O194  1  0.75777331  0.50708130  0.86601847  1
  O  O195  1  0.23603522  0.49884906  0.12095076  1
  O  O196  1  0.24971528  0.50530973  0.63322596  1
  O  O197  1  0.24124057  0.99080665  0.12364209  1
  O  O198  1  0.23309093  1.00443419  0.61490552  1
  O  O199  1  0.74816204  0.48606029  0.12145638  1
  O  O200  1  0.74078864  0.50347491  0.63289647  1
  O  O201  1  0.74209679  0.99589273  0.12792138  1
  O  O202  1  0.73983497  0.99658232  0.63064964  1
  O  O203  1  0.00834935  0.37818810  0.26401662  1
  O  O204  1  0.00369994  0.36803333  0.75881543  1
  O  O205  1  -0.00250623  0.86631980  0.25824566  1
  O  O206  1  0.00384853  0.88172745  0.76338787  1
  O  O207  1  0.51722806  0.37041999  0.24462545  1
  O  O208  1  0.51771956  0.38225014  0.76944061  1
  O  O209  1  0.49431781  0.86561560  0.26017698  1
  O  O210  1  0.51022093  0.88047928  0.76128769  1
  O  O211  1  0.48728118  0.12952508  0.24138204  1
  O  O212  1  0.49139464  0.13705865  0.74280460  1
  O  O213  1  0.49512365  0.63651024  0.25056524  1
  O  O214  1  0.53373833  0.63224227  0.74525742  1
  O  O215  1  0.98359683  0.11935591  0.25071623  1
  O  O216  1  0.99224453  0.13254109  0.74413539  1
  O  O217  1  0.99067166  0.63218970  0.24669394  1
  O  O218  1  0.99439505  0.62104335  0.75502929  1
  O  O219  1  0.37515028  0.26069076  0.00635805  1
  O  O220  1  0.35792073  0.24607825  0.49851748  1
  O  O221  1  0.36981926  0.76210339  0.00134393  1
  O  O222  1  0.36220343  0.74726108  0.50175909  1
  O  O223  1  0.87214303  0.25912204  0.00654322  1
  O  O224  1  0.85898927  0.25325857  0.49957940  1
  O  O225  1  0.87076299  0.75481014  0.00581324  1
  O  O226  1  0.87793744  0.74413681  0.52114021  1
  O  O227  1  0.12905741  0.24344015  0.48776889  1
  O  O228  1  0.12339760  0.23737646  1.00116479  1
  O  O229  1  0.13270429  0.73682564  0.50299972  1
  O  O230  1  0.13260132  0.74374721  0.99060526  1
  O  O231  1  0.63427524  0.25794975  0.48278483  1
  O  O232  1  0.62339652  0.25515873  0.98339821  1
  O  O233  1  0.61666047  0.73962226  0.48696000  1
  O  O234  1  0.63160841  0.74639644  0.99523515  1
  O  O235  1  0.48918443  0.24273955  0.12646756  1
  O  O236  1  0.52362131  0.22818091  0.62435534  1
  O  O237  1  0.50083150  0.75180960  0.13748093  1
  O  O238  1  0.48441688  0.75221557  0.61275007  1
  O  O239  1  0.98431821  0.24867467  0.12260013  1
  O  O240  1  1.00792822  0.23795218  0.63105191  1
  O  O241  1  0.99390246  0.74544940  0.13173135  1
  O  O242  1  0.99504869  0.75487031  0.62973868  1
  O  O243  1  0.00559316  0.25868160  0.38404190  1
  O  O244  1  0.00136575  0.25713519  0.86493044  1
  O  O245  1  -0.01159916  0.75960302  0.36718612  1
  O  O246  1  0.01058190  0.75885326  0.87977342  1
  O  O247  1  0.51448869  0.24282126  0.37696200  1
  O  O248  1  0.50532593  0.26064810  0.86320548  1
  O  O249  1  0.50721254  0.75837266  0.36961119  1
  O  O250  1  0.51263790  0.76421688  0.88115480  1
  O  O251  1  0.24295317  0.13153408  0.48993770  1
  O  O252  1  0.23940060  0.12380257  0.99176600  1
  O  O253  1  0.23804388  0.63474126  0.49578725  1
  O  O254  1  0.24697022  0.62967414  0.98959395  1
  O  O255  1  0.75256661  0.13395208  0.48834519  1
  O  O256  1  0.75743854  0.12838639  0.98203876  1
  O  O257  1  0.73933280  0.62042351  0.48725726  1
  O  O258  1  0.74647095  0.63218560  0.99341116  1
  O  O259  1  0.26297900  0.37411294  -0.00069315  1
  O  O260  1  0.24450193  0.35861203  0.49476004  1
  O  O261  1  0.25846924  0.87070757  0.00554089  1
  O  O262  1  0.24671654  0.86174090  0.50574934  1
  O  O263  1  0.76046147  0.37149656  0.00661074  1
  O  O264  1  0.75263786  0.36272905  0.49946139  1
  O  O265  1  0.75649991  0.87142192  0.00789107  1
  O  O266  1  0.75178553  0.87663756  0.51696265  1
  O  O267  1  0.11854434  0.49204544  0.24114806  1
  O  O268  1  0.13821667  0.49545499  0.74013793  1
  O  O269  1  0.12556126  0.99613742  0.23817305  1
  O  O270  1  0.12089495  1.00478363  0.73411272  1
  O  O271  1  0.62444805  0.48643900  0.25628982  1
  O  O272  1  0.63231650  0.49381609  0.74228292  1
  O  O273  1  0.62741589  1.00277437  0.23209596  1
  O  O274  1  0.62759907  0.99022829  0.74523752  1
  O  O275  1  0.37238432  0.01185325  0.25060778  1
  O  O276  1  0.38274099  0.01087098  0.76170815  1
  O  O277  1  0.37830244  0.51255732  0.25877280  1
  O  O278  1  0.37641357  0.50773687  0.75105824  1
  O  O279  1  0.87006725  0.00623538  0.26310172  1
  O  O280  1  0.87007447  0.00835914  0.75436277  1
  O  O281  1  0.88344743  0.51133430  0.26115543  1
  O  O282  1  0.86837300  0.51374611  0.75252602  1
  O  O283  1  0.11429173  0.36838930  0.37008290  1
  O  O284  1  0.11423780  0.37492361  0.87974133  1
  O  O285  1  0.10790390  0.88340281  0.37488479  1
  O  O286  1  0.11800517  0.86615999  0.87528785  1
  O  O287  1  0.63331988  0.36316969  0.36295986  1
  O  O288  1  0.62335971  0.36920159  0.87148311  1
  O  O289  1  0.61738686  0.86607796  0.38043826  1
  O  O290  1  0.61966968  0.87471725  0.87359659  1
  O  O291  1  0.37926085  0.13085356  0.12802343  1
  O  O292  1  0.38495998  0.11878071  0.63648230  1
  O  O293  1  0.37766002  0.62681735  0.13804390  1
  O  O294  1  0.37475572  0.63698045  0.61882676  1
  O  O295  1  0.87264164  0.13237954  0.13339489  1
  O  O296  1  0.88260702  0.11733154  0.63475309  1
  O  O297  1  0.87731159  0.62828915  0.13221436  1
  O  O298  1  0.87452450  0.63735525  0.63471307  1
  O  O299  1  0.26266499  0.25290169  0.12199668  1
  O  O300  1  0.24003614  0.24474247  0.61028785  1
  O  O301  1  0.24997980  0.76110722  0.11798231  1
  O  O302  1  0.26117941  0.74983487  0.61240449  1
  O  O303  1  0.75935333  0.25852335  0.12298605  1
  O  O304  1  0.73487674  0.24032475  0.60692248  1
  O  O305  1  0.75463748  0.75883773  0.12124279  1
  O  O306  1  0.73152156  0.75691118  0.63410708  1
  O  O307  1  0.23853294  0.23909986  0.38023714  1
  O  O308  1  0.24630825  0.23639777  0.88009137  1
  O  O309  1  0.25134681  0.75767547  0.38763750  1
  O  O310  1  0.24544164  0.74260250  0.87746998  1
  O  O311  1  0.74254163  0.24230354  0.38368065  1
  O  O312  1  0.74069560  0.24360077  0.86872035  1
  O  O313  1  0.74198451  0.74195762  0.37209342  1
  O  O314  1  0.74168113  0.74932068  0.88190977  1
  O  O315  1  0.00789383  0.11861596  -0.00012438  1
  O  O316  1  0.00088699  0.12029536  0.50695739  1
  O  O317  1  0.00641280  0.62453116  0.00662086  1
  O  O318  1  0.01273719  0.61641624  0.49466719  1
  O  O319  1  0.49213450  0.13010656  0.00800254  1
  O  O320  1  0.49494372  0.11401576  0.50897250  1
  O  O321  1  0.51301981  0.62898362  0.00295771  1
  O  O322  1  0.51169498  0.61258578  0.48968041  1
  O  O323  1  0.49857040  0.38606084  0.50086535  1
  O  O324  1  0.49371233  0.37445492  0.99276420  1
  O  O325  1  0.49856952  0.88657845  0.48838819  1
  O  O326  1  0.49027780  0.87264965  0.99303668  1
  O  O327  1  0.99465259  0.38494221  0.48960713  1
  O  O328  1  0.98941648  0.37469820  0.99145791  1
  O  O329  1  0.99193297  0.87854435  0.49236704  1
  O  O330  1  0.99384619  0.87982528  0.99111072  1
  O  O331  1  0.49649253  0.49467049  0.38364664  1
  O  O332  1  0.49784172  0.49284808  0.88296691  1
  O  O333  1  0.50484292  0.99578530  0.38051519  1
  O  O334  1  0.49151419  0.99180753  0.87505063  1
  O  O335  1  0.98927319  0.49319695  0.38458002  1
  O  O336  1  0.99504469  0.49029327  0.87387723  1
  O  O337  1  0.98918922  0.99222481  0.38021607  1
  O  O338  1  0.99421137  0.99188560  0.88068472  1
  O  O339  1  0.00784947  -0.00083761  0.11988865  1
  O  O340  1  0.00223520  0.00836439  0.62047075  1
  O  O341  1  0.00906931  0.50667692  0.12293163  1
  O  O342  1  0.00829053  0.50010261  0.61226819  1
  O  O343  1  0.51110439  0.00875113  0.12535579  1
  O  O344  1  0.50467805  0.00405120  0.61856817  1
  O  O345  1  0.51106720  0.50482403  0.12266894  1
  O  O346  1  0.50626660  0.49921147  0.61318240  1
  O  O347  1  0.23099626  0.36991310  0.25161794  1
  O  O348  1  0.25401087  0.38908939  0.75731554  1
  O  O349  1  0.24899208  0.87498203  0.23944446  1
  O  O350  1  0.24748402  0.87874583  0.74557979  1
  O  O351  1  0.73947839  0.37083793  0.24167434  1
  O  O352  1  0.74103334  0.38837685  0.75800809  1
  O  O353  1  0.75689810  0.87524773  0.23669101  1
  O  O354  1  0.74022329  0.88179682  0.74359697  1
  O  O355  1  0.25780576  0.12469103  0.25686395  1
  O  O356  1  0.25663982  0.12761739  0.76026900  1
  O  O357  1  0.26357770  0.63375340  0.25084250  1
  O  O358  1  0.24772234  0.61499492  0.76056121  1
  O  O359  1  0.76038336  0.12333832  0.26315803  1
  O  O360  1  0.75714065  0.12164816  0.75480218  1
  O  O361  1  0.76161647  0.62881890  0.26071465  1
  O  O362  1  0.74004725  0.61508492  0.75687618  1
  O  O363  1  0.36660388  0.12679733  0.36513854  1
  O  O364  1  0.36685193  0.11447223  0.87283904  1
  O  O365  1  0.37883502  0.61665188  0.36247712  1
  O  O366  1  0.36793002  0.62186140  0.87803228  1
  O  O367  1  0.86810725  0.11760897  0.37096249  1
  O  O368  1  0.86835495  0.12053441  0.86465403  1
  O  O369  1  0.86841876  0.61898053  0.37124522  1
  O  O370  1  0.87079190  0.62376483  0.86628952  1
  O  O371  1  0.12334635  0.38177619  0.13279809  1
  O  O372  1  0.12296187  0.39307321  0.61858088  1
  O  O373  1  0.13359450  0.88197449  0.12107138  1
  O  O374  1  0.12007584  0.89125531  0.62507693  1
  O  O375  1  0.63437583  0.37237898  0.13619956  1
  O  O376  1  0.61886737  0.38491622  0.63705361  1
  O  O377  1  0.63492192  0.88816051  0.11996048  1
  O  O378  1  0.62504027  0.88135657  0.63339009  1
  O  O379  1  0.12330197  0.25453011  0.26170617  1
  O  O380  1  0.11405596  0.25227186  0.75187744  1
  O  O381  1  0.10893295  0.75069556  0.24607387  1
  O  O382  1  0.13135303  0.74508719  0.76125475  1
  O  O383  1  0.62421559  0.25719286  0.26199756  1
  O  O384  1  0.61375478  0.26232887  0.75443372  1
  O  O385  1  0.61679439  0.74446062  0.26370425  1
  O  O386  1  0.63247466  0.76620232  0.76675944  1
  O  O387  1  0.37426747  0.24307292  0.24096223  1
  O  O388  1  0.38050361  0.23030387  0.77129417  1
  O  O389  1  0.38546127  0.73888167  0.25116002  1
  O  O390  1  0.37750587  0.74365839  0.73400340  1
  O  O391  1  0.86851440  0.24160662  0.24300216  1
  O  O392  1  0.88487184  0.23857017  0.75394598  1
  O  O393  1  0.88293668  0.73960594  0.24456341  1
  O  O394  1  0.87148917  0.74034320  0.73945304  1
  O  O395  1  0.38564948  0.50515662  0.48533714  1
  O  O396  1  0.37697346  0.49185860  0.99480861  1
  O  O397  1  0.38594935  0.99900960  0.49673143  1
  O  O398  1  0.37062703  0.98841290  0.98901894  1
  O  O399  1  0.88129787  0.50198622  0.49458148  1
  O  O400  1  0.87627838  0.48978148  0.99235643  1
  O  O401  1  0.87760223  1.00103653  0.48911228  1
  O  O402  1  0.87842214  0.99575539  0.99372736  1
  O  O403  1  0.12012519  0.00663235  0.00815174  1
  O  O404  1  0.11384876  0.00602484  0.50829462  1
  O  O405  1  0.12269754  0.50649889  0.00840341  1
  O  O406  1  0.11962944  0.50996688  0.50079581  1
  O  O407  1  0.63085003  0.00502980  0.01706059  1
  O  O408  1  0.61460712  -0.00449474  0.51208141  1
  O  O409  1  0.62839107  0.51458679  -0.00333051  1
  O  O410  1  0.61374892  0.50081720  0.50225473  1
  O  O411  1  0.37670553  0.36976726  0.11904762  1
  O  O412  1  0.42996117  0.32419823  0.67355971  1
  O  O413  1  0.36746151  0.87759872  0.11765463  1
  O  O414  1  0.37421718  0.86338090  0.61965167  1
  O  O415  1  0.87108381  0.37044263  0.12068378  1
  O  O416  1  0.87105484  0.36925601  0.64281604  1
  O  O417  1  0.86818604  0.87153695  0.11895297  1
  O  O418  1  0.86476630  0.85621968  0.63130073  1
  O  O419  1  0.12777668  0.12958829  0.37688529  1
  O  O420  1  0.13028918  0.12076631  0.88307995  1
  O  O421  1  0.12288654  0.62128613  0.38448165  1
  O  O422  1  0.13481841  0.62926168  0.87945212  1
  O  O423  1  0.63353422  0.13683961  0.36635057  1
  O  O424  1  0.63347774  0.13519229  0.86098845  1
  O  O425  1  0.63303222  0.63056996  0.37927918  1
  O  O426  1  0.63138676  0.63679787  0.88621381  1
