# generated using pymatgen
data_V85Zn86O256
_symmetry_space_group_name_H-M   'P 1'
_cell_length_a   16.96299120
_cell_length_b   16.97104606
_cell_length_c   16.97292718
_cell_angle_alpha   90.06347247
_cell_angle_beta   90.11385411
_cell_angle_gamma   89.92567840
_symmetry_Int_Tables_number   1
_chemical_formula_structural   V85Zn86O256
_chemical_formula_sum   'V85 Zn86 O256'
_cell_volume   4886.14452585
_cell_formula_units_Z   1
loop_
 _symmetry_equiv_pos_site_id
 _symmetry_equiv_pos_as_xyz
  1  'x, y, z'
loop_
 _atom_site_type_symbol
 _atom_site_label
 _atom_site_symmetry_multiplicity
 _atom_site_fract_x
 _atom_site_fract_y
 _atom_site_fract_z
 _atom_site_occupancy
  V  V0  1  0.36693755  0.86929737  0.00137318  1
  V  V1  1  0.50196638  0.50097214  0.49978752  1
  V  V2  1  0.24405436  0.12993801  0.37198959  1
  V  V3  1  0.00270570  0.62120153  0.12562007  1
  V  V4  1  0.75024452  0.50075140  0.75236709  1
  V  V5  1  0.87995199  0.49433489  0.37629556  1
  V  V6  1  0.13221204  0.49220248  0.62711735  1
  V  V7  1  0.37605829  0.49812178  0.37242921  1
  V  V8  1  0.62984965  0.87716946  0.24213252  1
  V  V9  1  0.74727156  0.49194152  0.25213359  1
  V  V10  1  -0.00185769  0.75292134  0.25668667  1
  V  V11  1  0.62458456  0.37557727  0.75128907  1
  V  V12  1  0.50001405  0.87874218  0.37467954  1
  V  V13  1  -0.00681642  0.88951449  0.38540893  1
  V  V14  1  0.11774645  0.25996778  0.37808341  1
  V  V15  1  0.35996720  0.75263075  0.12276531  1
  V  V16  1  0.87968845  0.12740093  0.75296191  1
  V  V17  1  0.49996071  0.75510841  0.76280151  1
  V  V18  1  0.50069405  0.62542749  0.62638134  1
  V  V19  1  0.00674353  0.11643593  0.12283564  1
  V  V20  1  0.00277754  0.36277528  0.87479614  1
  V  V21  1  0.24363703  0.12851808  0.87280277  1
  V  V22  1  0.87657593  0.87861822  0.00384987  1
  V  V23  1  0.62663239  0.25576868  0.36899751  1
  V  V24  1  -0.00289473  0.62327773  0.63208709  1
  V  V25  1  0.25200417  0.25352303  0.50076320  1
  V  V26  1  0.87932272  0.37471127  0.50154898  1
  V  V27  1  0.12986488  0.74769999  0.37868037  1
  V  V28  1  0.00202008  0.87716995  0.87744270  1
  V  V29  1  0.36820208  0.87218210  0.49722522  1
  V  V30  1  0.62425378  0.25158083  0.87536697  1
  V  V31  1  0.36946731  0.74943165  0.62089094  1
  V  V32  1  0.24935298  0.62827304  0.88223458  1
  V  V33  1  0.50054944  0.12001797  0.12031579  1
  V  V34  1  0.62367778  0.12626354  0.49980281  1
  V  V35  1  0.50386274  0.25647803  0.24826784  1
  V  V36  1  0.74733180  0.75265168  0.00251528  1
  V  V37  1  0.37930572  0.49753112  0.88932251  1
  V  V38  1  0.62437748  0.62272116  0.00105896  1
  V  V39  1  0.87835557  0.12310646  0.24703516  1
  V  V40  1  0.50090458  0.75249817  0.24821734  1
  V  V41  1  0.12416042  0.36516443  0.75658933  1
  V  V42  1  0.24441944  -0.00369296  0.23728207  1
  V  V43  1  0.87203520  0.62487638  0.25427564  1
  V  V44  1  0.00776081  0.12006608  0.61425873  1
  V  V45  1  0.37415737  0.37618969  0.50658927  1
  V  V46  1  0.25291938  0.49463232  0.75029943  1
  V  V47  1  0.37547096  0.62564066  0.24914474  1
  V  V48  1  0.62719629  0.75190607  0.38116427  1
  V  V49  1  0.37551722  0.62562012  0.75172703  1
  V  V50  1  0.24264560  0.87254749  0.62337492  1
  V  V51  1  0.75161641  0.37459765  0.62783167  1
  V  V52  1  0.87815588  0.00100864  0.87949034  1
  V  V53  1  0.24394353  -0.00223682  0.74520323  1
  V  V54  1  0.00396727  0.49314148  0.49722339  1
  V  V55  1  0.62475118  0.12425462  -0.00152490  1
  V  V56  1  0.50019161  0.62155658  0.12149348  1
  V  V57  1  0.74595606  0.62940023  0.87713738  1
  V  V58  1  0.62569856  0.49505610  0.12947876  1
  V  V59  1  -0.00247884  0.25840566  0.24286397  1
  V  V60  1  0.49971115  0.25192714  0.74942216  1
  V  V61  1  0.75774798  0.12049376  0.37427079  1
  V  V62  1  0.87333628  0.37262049  0.00671484  1
  V  V63  1  0.12575617  0.74825751  0.87896535  1
  V  V64  1  0.13405077  0.62449680  0.50190212  1
  V  V65  1  0.62254501  0.87140904  0.77322373  1
  V  V66  1  0.49681828  0.12904486  0.62451713  1
  V  V67  1  0.24307847  0.25116752  -0.00559904  1
  V  V68  1  0.37597516  0.12360195  0.74889944  1
  V  V69  1  0.49676694  0.37971794  0.88821942  1
  V  V70  1  0.24417905  0.37709307  0.12048667  1
  V  V71  1  0.37420029  0.25620038  0.11501728  1
  V  V72  1  0.88282633  0.25107753  0.63255260  1
  V  V73  1  0.24395382  0.49893429  0.24567896  1
  V  V74  1  0.87644328  0.50193956  0.87555663  1
  V  V75  1  0.62553155  0.50103015  0.62501636  1
  V  V76  1  0.62482638  -0.01161106  0.62335996  1
  V  V77  1  0.38090643  -0.00722474  0.87433221  1
  V  V78  1  0.75257821  0.25095561  0.00596022  1
  V  V79  1  0.00751616  0.50084755  0.00383710  1
  V  V80  1  0.37445504  0.12705939  0.24590974  1
  V  V81  1  0.75367606  -0.00209351  0.24568378  1
  V  V82  1  0.37566958  0.00159426  0.37156996  1
  V  V83  1  0.75182885  0.25075057  0.49989085  1
  V  V84  1  0.86924381  0.75601084  0.12874987  1
  Zn  Zn85  1  0.12836036  0.87056052  0.24529925  1
  Zn  Zn86  1  0.11755963  0.38391754  0.24727376  1
  Zn  Zn87  1  0.63044210  -0.00611062  0.12005495  1
  Zn  Zn88  1  0.13055984  0.62634609  0.00718633  1
  Zn  Zn89  1  -0.00334456  0.75345602  0.74987290  1
  Zn  Zn90  1  0.49037938  0.00429439  0.50180899  1
  Zn  Zn91  1  0.12129076  0.87375131  0.74486086  1
  Zn  Zn92  1  0.86031992  0.76972028  0.62502634  1
  Zn  Zn93  1  0.75027514  0.12441590  0.87251777  1
  Zn  Zn94  1  0.75258285  -0.00833519  0.74857832  1
  Zn  Zn95  1  0.07056178  -0.02423862  0.54192588  1
  Zn  Zn96  1  0.36881530  0.25495019  0.62673128  1
  Zn  Zn97  1  0.25442483  0.62910588  0.37830847  1
  Zn  Zn98  1  0.50838382  -0.01606407  -0.01088139  1
  Zn  Zn99  1  0.12353470  -0.02140038  0.10070399  1
  Zn  Zn100  1  0.76407400  0.74695801  0.50387729  1
  Zn  Zn101  1  0.50659532  0.37817728  0.37067342  1
  Zn  Zn102  1  0.74768994  0.36965575  0.13084658  1
  Zn  Zn103  1  0.11750632  0.12207477  -0.00964790  1
  Zn  Zn104  1  0.74928034  0.62575260  0.37929222  1
  Zn  Zn105  1  0.62858171  0.62853511  0.50352930  1
  Zn  Zn106  1  0.86996276  0.63387013  0.74929583  1
  Zn  Zn107  1  0.18387467  0.19299710  0.18655695  1
  Zn  Zn108  1  0.18903694  0.18556846  0.68614273  1
  Zn  Zn109  1  0.18473599  0.68408152  0.19322490  1
  Zn  Zn110  1  0.18488173  0.68550106  0.69436189  1
  Zn  Zn111  1  0.68794456  0.18403466  0.18689273  1
  Zn  Zn112  1  0.68883616  0.18579567  0.68913983  1
  Zn  Zn113  1  0.68637409  0.68659378  0.19024716  1
  Zn  Zn114  1  0.68589497  0.69376668  0.68879478  1
  Zn  Zn115  1  0.31272302  0.31574311  0.31003302  1
  Zn  Zn116  1  0.31587097  0.31346374  0.81446920  1
  Zn  Zn117  1  0.31292870  0.81339162  0.30816637  1
  Zn  Zn118  1  0.31190823  0.81230747  0.81202688  1
  Zn  Zn119  1  0.81703961  0.31049568  0.31470406  1
  Zn  Zn120  1  0.81303455  0.31207851  0.81768570  1
  Zn  Zn121  1  0.81270878  0.81858109  0.32294005  1
  Zn  Zn122  1  0.81217488  0.81230068  0.81072301  1
  Zn  Zn123  1  0.19054735  0.43631158  0.43397336  1
  Zn  Zn124  1  0.19094120  0.43709113  0.93641119  1
  Zn  Zn125  1  0.18943819  0.93141283  0.42081668  1
  Zn  Zn126  1  0.18983894  0.93924700  0.93453240  1
  Zn  Zn127  1  0.69178346  0.43875902  0.43891636  1
  Zn  Zn128  1  0.68553590  0.43889368  0.94039769  1
  Zn  Zn129  1  0.68885369  0.94115393  0.43752598  1
  Zn  Zn130  1  0.69528050  0.93908199  0.93893513  1
  Zn  Zn131  1  0.31259276  0.06162324  0.05375457  1
  Zn  Zn132  1  0.26453459  0.04248900  0.53752669  1
  Zn  Zn133  1  0.31257042  0.56239890  0.06518714  1
  Zn  Zn134  1  0.31521183  0.55959338  0.56490528  1
  Zn  Zn135  1  0.81587623  0.06599906  0.06611490  1
  Zn  Zn136  1  0.80110484  0.07455521  0.57781639  1
  Zn  Zn137  1  0.81314240  0.56181605  0.06515392  1
  Zn  Zn138  1  0.81124470  0.56483788  0.56120410  1
  Zn  Zn139  1  0.43446501  0.43767804  0.18211553  1
  Zn  Zn140  1  0.43924071  0.43859187  0.69136276  1
  Zn  Zn141  1  0.43667953  0.93545840  0.18293982  1
  Zn  Zn142  1  0.43807282  0.93656522  0.68715184  1
  Zn  Zn143  1  0.93424230  0.43934719  0.18652876  1
  Zn  Zn144  1  0.94211156  0.43840449  0.69018844  1
  Zn  Zn145  1  0.93899254  0.93825210  0.19243433  1
  Zn  Zn146  1  0.93987588  0.94543532  0.69106271  1
  Zn  Zn147  1  0.06535834  0.06777317  0.31208279  1
  Zn  Zn148  1  0.06011374  0.06257383  0.80782357  1
  Zn  Zn149  1  0.06214599  0.56596964  0.31515562  1
  Zn  Zn150  1  0.06582333  0.55685047  0.81592507  1
  Zn  Zn151  1  0.56532194  0.06460432  0.31104595  1
  Zn  Zn152  1  0.56368273  0.06151783  0.80919830  1
  Zn  Zn153  1  0.56287711  0.56607891  0.31156255  1
  Zn  Zn154  1  0.56108668  0.56343996  0.81367031  1
  Zn  Zn155  1  0.43652454  0.18944042  0.43547207  1
  Zn  Zn156  1  0.43516691  0.18647202  0.93338816  1
  Zn  Zn157  1  0.44129257  0.68786483  0.43701893  1
  Zn  Zn158  1  0.43411970  0.68665229  0.94160233  1
  Zn  Zn159  1  0.93915655  0.18666051  0.43834531  1
  Zn  Zn160  1  0.93554198  0.18723831  0.94203175  1
  Zn  Zn161  1  0.93999332  0.68664232  0.44500169  1
  Zn  Zn162  1  0.93763916  0.69025785  0.93929737  1
  Zn  Zn163  1  0.06388327  0.31061959  0.06074967  1
  Zn  Zn164  1  0.06680461  0.30917360  0.56636529  1
  Zn  Zn165  1  0.06107202  0.80774284  0.06327889  1
  Zn  Zn166  1  0.05640628  0.80299906  0.55719850  1
  Zn  Zn167  1  0.56441425  0.30978787  0.06462078  1
  Zn  Zn168  1  0.56225205  0.31433716  0.55961174  1
  Zn  Zn169  1  0.55507458  0.80814222  0.05677042  1
  Zn  Zn170  1  0.55255106  0.81126508  0.56313744  1
  O  O171  1  0.11119445  0.12482490  0.12892111  1
  O  O172  1  0.10602951  0.13419141  0.62892889  1
  O  O173  1  0.10732728  0.63307998  0.12440996  1
  O  O174  1  0.12046276  0.61314905  0.62127480  1
  O  O175  1  0.61623351  0.12536816  0.11461080  1
  O  O176  1  0.61442882  0.12180376  0.62115181  1
  O  O177  1  0.61855402  0.61855198  0.12194914  1
  O  O178  1  0.61721554  0.61768755  0.62748413  1
  O  O179  1  0.37928333  0.38588453  0.37996586  1
  O  O180  1  0.38532220  0.38593579  0.86922406  1
  O  O181  1  0.37881543  0.87860542  0.37905869  1
  O  O182  1  0.37036494  0.88209979  0.88423432  1
  O  O183  1  0.87313763  0.38682139  0.38373561  1
  O  O184  1  0.88231046  0.38367717  0.88272744  1
  O  O185  1  0.89403337  0.87478996  0.37874882  1
  O  O186  1  0.88142151  0.88161181  0.88209570  1
  O  O187  1  0.25860423  0.01203144  0.35780739  1
  O  O188  1  0.26120092  0.00765196  0.86381793  1
  O  O189  1  0.26221488  0.50078725  0.36580353  1
  O  O190  1  0.25861659  0.50620788  0.86841880  1
  O  O191  1  0.74388712  0.01415332  0.36511360  1
  O  O192  1  0.76422465  0.00367723  0.87253760  1
  O  O193  1  0.76034103  0.50172029  0.36829087  1
  O  O194  1  0.75812832  0.50727036  0.87374647  1
  O  O195  1  0.25785358  0.49019675  0.13401992  1
  O  O196  1  0.24303564  0.50314254  0.63688727  1
  O  O197  1  0.24963859  1.01077843  0.13590510  1
  O  O198  1  0.25766648  0.98532822  0.63539302  1
  O  O199  1  0.74370064  0.50078130  0.13578158  1
  O  O200  1  0.74691093  0.49411892  0.63230718  1
  O  O201  1  0.74812778  1.00752438  0.14016283  1
  O  O202  1  0.72799792  1.00867525  0.63206809  1
  O  O203  1  -0.00241592  0.36311823  0.24439009  1
  O  O204  1  0.01389883  0.38098566  0.76038627  1
  O  O205  1  -0.00364691  0.86223690  0.26221665  1
  O  O206  1  0.00152118  0.87620353  0.76054787  1
  O  O207  1  0.49392766  0.35996953  0.24854535  1
  O  O208  1  0.50721111  0.36962574  0.75570461  1
  O  O209  1  0.50777998  0.87277495  0.25502677  1
  O  O210  1  0.51037342  0.86740709  0.74567502  1
  O  O211  1  0.49314213  0.13261766  0.24024751  1
  O  O212  1  0.49725130  0.13260176  0.74350187  1
  O  O213  1  0.49462524  0.63234426  0.24175614  1
  O  O214  1  0.49522509  0.63233234  0.74525811  1
  O  O215  1  0.99507527  0.13349174  0.24465422  1
  O  O216  1  0.98566797  0.12062126  0.73980912  1
  O  O217  1  0.98989583  0.63035604  0.24657155  1
  O  O218  1  1.00151806  0.61721645  0.73853369  1
  O  O219  1  0.36624067  0.24292120  0.00982498  1
  O  O220  1  0.37052765  0.26127685  0.49767863  1
  O  O221  1  0.37502017  0.75975857  0.00760158  1
  O  O222  1  0.38148570  0.75719905  0.51026123  1
  O  O223  1  0.86326093  0.26073668  -0.00623330  1
  O  O224  1  0.87094036  0.25554578  0.50803768  1
  O  O225  1  0.86799560  0.75572398  0.01056141  1
  O  O226  1  0.88072835  0.74984927  0.51263857  1
  O  O227  1  0.13379547  0.25892345  0.48553150  1
  O  O228  1  0.13825595  0.24143935  1.00303764  1
  O  O229  1  0.11998833  0.73500070  0.49010116  1
  O  O230  1  0.11651675  0.74420377  0.98445534  1
  O  O231  1  0.63198379  0.24541847  0.49214739  1
  O  O232  1  0.63128680  0.24238938  0.99459250  1
  O  O233  1  0.61854572  0.75399385  0.48784697  1
  O  O234  1  0.63816587  0.73832905  1.01137384  1
  O  O235  1  0.49405922  0.24239861  0.12910494  1
  O  O236  1  0.50071649  0.24407150  0.63048371  1
  O  O237  1  0.49366501  0.73862495  0.13144926  1
  O  O238  1  0.48848223  0.74456271  0.63384409  1
  O  O239  1  1.00514893  0.24259107  0.13997441  1
  O  O240  1  0.98785910  0.24190104  0.62044101  1
  O  O241  1  0.98653226  0.74119261  0.13644849  1
  O  O242  1  1.00605411  0.72860783  0.62748646  1
  O  O243  1  0.01325209  0.24475854  0.36866831  1
  O  O244  1  -0.00245817  0.26375159  0.88178588  1
  O  O245  1  0.00767476  0.75190882  0.37089710  1
  O  O246  1  0.00376923  0.75811078  0.87209225  1
  O  O247  1  0.50927638  0.24886927  0.36471876  1
  O  O248  1  0.50359136  0.25794704  0.86876539  1
  O  O249  1  0.50591799  0.75793312  0.36744447  1
  O  O250  1  0.49168045  0.74409701  0.86142971  1
  O  O251  1  0.26523657  0.14096723  0.47864698  1
  O  O252  1  0.25115493  0.13302593  0.98739842  1
  O  O253  1  0.23838858  0.61637945  0.49964069  1
  O  O254  1  0.24745546  0.61757425  0.98738524  1
  O  O255  1  0.74736542  0.12950268  0.49262096  1
  O  O256  1  0.74191282  0.13238758  1.00041010  1
  O  O257  1  0.74431790  0.62517123  0.49482314  1
  O  O258  1  0.74621691  0.63196224  0.99619386  1
  O  O259  1  0.24558247  0.36528388  0.00699078  1
  O  O260  1  0.26241857  0.36659175  0.49206005  1
  O  O261  1  0.26674693  0.87920347  -0.00175779  1
  O  O262  1  0.26195111  0.87284513  0.50520214  1
  O  O263  1  0.75657414  0.36860556  0.00000295  1
  O  O264  1  0.75887095  0.37074035  0.50845886  1
  O  O265  1  0.76146926  0.86243264  -0.00492892  1
  O  O266  1  0.77215480  0.88797162  0.50876818  1
  O  O267  1  0.13842975  0.50133612  0.25762316  1
  O  O268  1  0.13506385  0.49407369  0.74460732  1
  O  O269  1  0.14146787  1.00376966  0.24977287  1
  O  O270  1  0.13998923  0.99623799  0.75379808  1
  O  O271  1  0.63704290  0.50744235  0.24403378  1
  O  O272  1  0.63077211  0.49497826  0.74529221  1
  O  O273  1  0.63283111  0.99386839  0.24754606  1
  O  O274  1  0.61963384  0.98571381  0.74099253  1
  O  O275  1  0.36941904  0.01072402  0.24894534  1
  O  O276  1  0.36861931  0.00296916  0.75523959  1
  O  O277  1  0.37029484  0.50462452  0.25620296  1
  O  O278  1  0.36756483  0.50589573  0.75415264  1
  O  O279  1  0.86725352  0.01072298  0.25005564  1
  O  O280  1  0.87127938  0.00773594  0.76065862  1
  O  O281  1  0.87052676  0.50671289  0.25777066  1
  O  O282  1  0.86989330  0.49908999  0.76259978  1
  O  O283  1  0.12725316  0.36375891  0.36804920  1
  O  O284  1  0.11737526  0.38115908  0.86465489  1
  O  O285  1  0.11619421  0.86314895  0.36579520  1
  O  O286  1  0.11620958  0.86715404  0.87580348  1
  O  O287  1  0.62785223  0.36020759  0.37873372  1
  O  O288  1  0.61778813  0.37302387  0.87050468  1
  O  O289  1  0.62035831  0.87130724  0.36844131  1
  O  O290  1  0.61772805  0.88209277  0.87152709  1
  O  O291  1  0.38192884  0.13296543  0.12881608  1
  O  O292  1  0.39028067  0.12615002  0.63089046  1
  O  O293  1  0.38292076  0.63145877  0.12757476  1
  O  O294  1  0.37900007  0.63125110  0.63053334  1
  O  O295  1  0.88720816  0.12543707  0.13786643  1
  O  O296  1  0.88198269  0.13182657  0.63184742  1
  O  O297  1  0.88099840  0.63165915  0.13629029  1
  O  O298  1  0.89323592  0.61124814  0.62875764  1
  O  O299  1  0.25686699  0.25538732  0.11735968  1
  O  O300  1  0.25107043  0.24071369  0.60534818  1
  O  O301  1  0.26110739  0.74213540  0.13083959  1
  O  O302  1  0.26178236  0.75543184  0.63410141  1
  O  O303  1  0.74177245  0.25268451  0.11178125  1
  O  O304  1  0.75927170  0.25413336  0.61978858  1
  O  O305  1  0.76186853  0.74265821  0.11957248  1
  O  O306  1  0.74708430  0.74987698  0.61725755  1
  O  O307  1  0.24192027  0.24799476  0.37554398  1
  O  O308  1  0.25937108  0.24128955  0.88336498  1
  O  O309  1  0.23531576  0.74838009  0.36432598  1
  O  O310  1  0.24175166  0.73757057  0.86723455  1
  O  O311  1  0.74539571  0.24238184  0.37862575  1
  O  O312  1  0.74230111  0.24851263  0.88594929  1
  O  O313  1  0.74049102  0.75281734  0.38344880  1
  O  O314  1  0.75881280  0.73733834  0.88752720  1
  O  O315  1  -0.00177912  0.13313631  0.01940274  1
  O  O316  1  -0.00505158  0.12254033  0.51345956  1
  O  O317  1  -0.00489122  0.61676715  0.00965256  1
  O  O318  1  0.01195247  0.61045391  0.51156302  1
  O  O319  1  0.50960570  0.12798128  0.00570163  1
  O  O320  1  0.50409901  0.12595924  0.50679681  1
  O  O321  1  0.51179633  0.63347019  0.01057130  1
  O  O322  1  0.50276080  0.61838140  0.50795059  1
  O  O323  1  0.49221138  0.38191276  0.49454965  1
  O  O324  1  0.50422169  0.36997047  0.98700128  1
  O  O325  1  0.48528416  0.88086771  0.49387716  1
  O  O326  1  0.48386733  0.87428926  1.00168950  1
  O  O327  1  0.99717721  0.38675174  0.50963419  1
  O  O328  1  0.99420296  0.38103632  0.99612987  1
  O  O329  1  1.01420354  0.88527586  0.49055860  1
  O  O330  1  0.98606096  0.86727463  0.98954643  1
  O  O331  1  0.49249092  0.50001801  0.37752219  1
  O  O332  1  0.49140971  0.49217269  0.86956734  1
  O  O333  1  0.49320116  0.99785719  0.37468633  1
  O  O334  1  0.48509658  1.00823778  0.87355624  1
  O  O335  1  0.99261990  0.50452441  0.38567648  1
  O  O336  1  0.99140300  0.49498970  0.88422774  1
  O  O337  1  1.00756571  0.98748124  0.36806317  1
  O  O338  1  0.98905305  0.99146412  0.87198080  1
  O  O339  1  0.00343679  0.01374086  0.13395666  1
  O  O340  1  0.00225328  0.01243587  0.62369644  1
  O  O341  1  -0.00813348  0.50986629  0.11684259  1
  O  O342  1  0.01224942  0.50501150  0.61933134  1
  O  O343  1  0.50103476  0.01375922  0.12297419  1
  O  O344  1  0.50883913  0.01001848  0.62421393  1
  O  O345  1  0.50777043  0.51347042  0.13398441  1
  O  O346  1  0.50513938  0.50552695  0.62119320  1
  O  O347  1  0.25002634  0.38354041  0.24050095  1
  O  O348  1  0.23917108  0.38597420  0.76059407  1
  O  O349  1  0.25223218  0.89336231  0.25069784  1
  O  O350  1  0.24852940  0.88073440  0.74064155  1
  O  O351  1  0.76064456  0.38717762  0.24818181  1
  O  O352  1  0.74484019  0.38020585  0.74784635  1
  O  O353  1  0.74275168  0.88637041  0.25865480  1
  O  O354  1  0.72838287  0.87410542  0.75947290  1
  O  O355  1  0.25917392  0.12430820  0.25208168  1
  O  O356  1  0.25654230  0.11772220  0.75153847  1
  O  O357  1  0.25807933  0.61433651  0.25054501  1
  O  O358  1  0.25518382  0.61414042  0.75968631  1
  O  O359  1  0.75865313  0.12163242  0.25575097  1
  O  O360  1  0.76369294  0.12271727  0.75173792  1
  O  O361  1  0.76063388  0.61752100  0.25339500  1
  O  O362  1  0.74837451  0.61990665  0.76186450  1
  O  O363  1  0.37100953  0.12458257  0.36028340  1
  O  O364  1  0.36654320  0.11724136  0.86689160  1
  O  O365  1  0.37581725  0.61664697  0.36957707  1
  O  O366  1  0.36884946  0.61792026  0.87116033  1
  O  O367  1  0.86515533  0.13049865  0.36727604  1
  O  O368  1  0.87833109  0.11808254  0.87036185  1
  O  O369  1  0.87751347  0.61530645  0.36733620  1
  O  O370  1  0.86741876  0.61628544  0.87579157  1
  O  O371  1  0.13883834  0.36964919  0.12893519  1
  O  O372  1  0.11961803  0.38436307  0.64005072  1
  O  O373  1  0.11276085  0.87354990  0.13479036  1
  O  O374  1  0.13685130  0.86703254  0.62014013  1
  O  O375  1  0.62513386  0.39091787  0.11953534  1
  O  O376  1  0.63186347  0.37962869  0.63078559  1
  O  O377  1  0.61849035  0.87332571  0.13890803  1
  O  O378  1  0.61881256  0.88864984  0.61935799  1
  O  O379  1  0.11324439  0.25414348  0.25911027  1
  O  O380  1  0.13453744  0.26762203  0.74714025  1
  O  O381  1  0.11097649  0.74323900  0.25998745  1
  O  O382  1  0.11888898  0.75179130  0.76261348  1
  O  O383  1  0.61639987  0.24200966  0.25705655  1
  O  O384  1  0.62141304  0.25547129  0.75606276  1
  O  O385  1  0.62294887  0.75894240  0.25815642  1
  O  O386  1  0.61514613  0.76395419  0.75123805  1
  O  O387  1  0.38120844  0.24195860  0.24091422  1
  O  O388  1  0.37990261  0.24368920  0.74588021  1
  O  O389  1  0.38071171  0.74625453  0.24224661  1
  O  O390  1  0.38075352  0.74587588  0.74172436  1
  O  O391  1  0.89096695  0.24179867  0.25839900  1
  O  O392  1  0.87002274  0.24400177  0.74153649  1
  O  O393  1  0.87796538  0.74368629  0.24925183  1
  O  O394  1  0.87868832  0.75047334  0.73961690  1
  O  O395  1  0.37990374  0.49514841  0.49187146  1
  O  O396  1  0.37511140  0.50331827  0.98835584  1
  O  O397  1  0.36783593  0.99103610  0.48848276  1
  O  O398  1  0.37859503  0.98993122  0.99194754  1
  O  O399  1  0.88441747  0.49576892  0.49440712  1
  O  O400  1  0.88005164  0.49349271  0.99193652  1
  O  O401  1  0.83548434  0.92857455  0.54128256  1
  O  O402  1  0.86771537  0.98961559  0.99421296  1
  O  O403  1  0.12866101  0.00977811  -0.00510167  1
  O  O404  1  0.16110982  0.01099741  0.49331570  1
  O  O405  1  0.11049518  0.50249450  -0.00543467  1
  O  O406  1  0.12273184  0.50056753  0.50672356  1
  O  O407  1  0.62554890  0.00934103  0.00120116  1
  O  O408  1  0.62199654  0.00658594  0.51040691  1
  O  O409  1  0.63450047  0.51478386  0.01343148  1
  O  O410  1  0.61909351  0.49849269  0.50715379  1
  O  O411  1  0.36522122  0.36314477  0.12743166  1
  O  O412  1  0.37960424  0.37650417  0.61153569  1
  O  O413  1  0.37594885  0.86574571  0.11488317  1
  O  O414  1  0.36826989  0.86746827  0.61717308  1
  O  O415  1  0.87103726  0.38094286  0.10985172  1
  O  O416  1  0.87260922  0.36898940  0.62397851  1
  O  O417  1  0.88285107  0.86526606  0.11882761  1
  O  O418  1  0.86032919  0.89346339  0.61459933  1
  O  O419  1  0.13748736  0.14147683  0.36586957  1
  O  O420  1  0.13993097  0.12401248  0.86665819  1
  O  O421  1  0.12715851  0.62974093  0.38522032  1
  O  O422  1  0.13303883  0.62958222  0.87530074  1
  O  O423  1  0.63410603  0.13463304  0.37930277  1
  O  O424  1  0.62475302  0.13012318  0.88355310  1
  O  O425  1  0.62504869  0.64026600  0.37489398  1
  O  O426  1  0.63627026  0.61687500  0.88664641  1
