# generated using pymatgen
data_V85Zn86O256
_symmetry_space_group_name_H-M   'P 1'
_cell_length_a   16.99020808
_cell_length_b   16.97520533
_cell_length_c   16.97066434
_cell_angle_alpha   89.95823007
_cell_angle_beta   89.94956301
_cell_angle_gamma   90.08339115
_symmetry_Int_Tables_number   1
_chemical_formula_structural   V85Zn86O256
_chemical_formula_sum   'V85 Zn86 O256'
_cell_volume   4894.53945290
_cell_formula_units_Z   1
loop_
 _symmetry_equiv_pos_site_id
 _symmetry_equiv_pos_as_xyz
  1  'x, y, z'
loop_
 _atom_site_type_symbol
 _atom_site_label
 _atom_site_symmetry_multiplicity
 _atom_site_fract_x
 _atom_site_fract_y
 _atom_site_fract_z
 _atom_site_occupancy
  V  V0  1  0.24996422  0.86570743  0.62086045  1
  V  V1  1  0.24873255  0.24685285  0.49480201  1
  V  V2  1  0.00833889  0.37659428  0.86884347  1
  V  V3  1  0.75063567  0.74854163  0.49444249  1
  V  V4  1  0.87505134  0.12156313  0.25469255  1
  V  V5  1  0.87464889  0.25155990  0.12638914  1
  V  V6  1  0.50026962  0.00096085  0.00165229  1
  V  V7  1  0.50102022  0.37827477  0.87910782  1
  V  V8  1  0.62363218  0.75218034  0.36946335  1
  V  V9  1  0.12404332  -0.00105479  0.12663180  1
  V  V10  1  0.37221688  0.62374917  0.74934707  1
  V  V11  1  0.00529295  0.25553281  0.25943486  1
  V  V12  1  0.00652154  0.25322491  0.75100709  1
  V  V13  1  0.50089048  0.62538149  0.62175575  1
  V  V14  1  0.62699345  0.25455798  0.87820882  1
  V  V15  1  0.24864531  0.86648245  0.11922624  1
  V  V16  1  0.87425916  0.88533525  0.49421888  1
  V  V17  1  0.62667174  0.62554626  0.49035394  1
  V  V18  1  0.38070655  0.37364362  0.49819310  1
  V  V19  1  0.74493226  0.88305980  0.63212140  1
  V  V20  1  0.87561142  0.25484965  0.62009487  1
  V  V21  1  0.87632838  0.37704578  -0.00085755  1
  V  V22  1  0.12068491  -0.00086551  0.61216824  1
  V  V23  1  0.12061470  0.85662969  0.24812293  1
  V  V24  1  0.61876733  0.37670866  0.25340825  1
  V  V25  1  -0.00157837  0.87281629  0.87628720  1
  V  V26  1  0.75427816  0.50554672  0.25890735  1
  V  V27  1  0.88398559  0.49769949  0.38679836  1
  V  V28  1  0.50143862  0.88737730  0.37653589  1
  V  V29  1  0.87748463  0.50150224  0.87619735  1
  V  V30  1  0.24862919  0.49348592  0.24975067  1
  V  V31  1  0.01417734  0.62980847  0.12755294  1
  V  V32  1  0.37527823  0.12497839  0.75146681  1
  V  V33  1  0.74871868  0.74927752  0.00033372  1
  V  V34  1  0.50152591  0.25206454  0.75102372  1
  V  V35  1  0.62326294  0.75056095  0.87062328  1
  V  V36  1  0.36775346  0.25003266  0.12831018  1
  V  V37  1  0.75266346  0.12855341  0.87517357  1
  V  V38  1  0.74283956  0.87622186  0.12831217  1
  V  V39  1  0.75365469  0.37591940  0.61897120  1
  V  V40  1  0.50097101  0.49725125  0.49380932  1
  V  V41  1  0.49800134  0.87465379  0.87057629  1
  V  V42  1  -0.00756216  0.86854568  0.36070738  1
  V  V43  1  0.25211216  0.37557161  0.63488719  1
  V  V44  1  0.61654996  0.61933557  0.00941765  1
  V  V45  1  0.74405899  0.00052250  0.24960617  1
  V  V46  1  0.37718421  0.88236290  0.49312250  1
  V  V47  1  0.87687560  0.62335409  0.74941588  1
  V  V48  1  0.12910919  0.74480274  0.88771940  1
  V  V49  1  0.38085833  0.62321807  0.24705287  1
  V  V50  1  0.50667326  0.11076995  0.62599512  1
  V  V51  1  0.00786903  0.62464009  0.61105608  1
  V  V52  1  0.37924113  0.24777868  0.62619913  1
  V  V53  1  0.62293355  0.11377563  0.50450989  1
  V  V54  1  0.50148705  0.75235204  0.74538903  1
  V  V55  1  0.37457814  0.11707755  0.25733447  1
  V  V56  1  0.00060424  0.74739464  0.75256397  1
  V  V57  1  0.12111279  0.49402408  0.62107100  1
  V  V58  1  0.87177018  0.87556104  0.00197827  1
  V  V59  1  0.24660904  0.00012569  0.74938120  1
  V  V60  1  0.37056320  0.37510141  0.00780391  1
  V  V61  1  0.37117637  -0.00066307  0.87728073  1
  V  V62  1  0.37922533  0.50142717  0.87868761  1
  V  V63  1  0.75222918  0.12212483  0.37688088  1
  V  V64  1  0.24899933  0.62936566  0.88911458  1
  V  V65  1  0.12402401  0.87613511  0.75158947  1
  V  V66  1  0.12900403  0.48375490  0.12284863  1
  V  V67  1  0.87542460  0.74543196  0.13424751  1
  V  V68  1  0.74679075  0.38289295  0.12788603  1
  V  V69  1  0.87269683  0.00035902  0.87061813  1
  V  V70  1  0.75078667  0.62638228  0.87322779  1
  V  V71  1  0.74993391  0.25303531  0.00185542  1
  V  V72  1  0.37181044  0.87124984  -0.00061455  1
  V  V73  1  0.37390545  0.50052243  0.37700588  1
  V  V74  1  0.24820065  0.12522167  0.87704183  1
  V  V75  1  0.61787867  0.25113909  0.37727454  1
  V  V76  1  0.62401821  0.12669586  0.00188496  1
  V  V77  1  0.23988262  0.63782289  0.38518353  1
  V  V78  1  0.12557974  0.12777009  -0.00093169  1
  V  V79  1  0.50163146  0.75317872  0.24745879  1
  V  V80  1  -0.00048515  0.12551150  0.12732498  1
  V  V81  1  0.87160158  0.12379618  0.74940480  1
  V  V82  1  0.25123493  -0.00514054  0.25990951  1
  V  V83  1  0.62745982  0.37917971  0.74890439  1
  V  V84  1  0.37699390  0.74653764  0.12130269  1
  Zn  Zn85  1  0.00778574  0.37671601  0.39566028  1
  Zn  Zn86  1  0.36438027  0.74222936  0.61057407  1
  Zn  Zn87  1  0.24296204  0.49589146  0.75497716  1
  Zn  Zn88  1  -0.00151709  0.00144613  0.00051448  1
  Zn  Zn89  1  0.01308804  0.50487739  -0.00424775  1
  Zn  Zn90  1  0.24650291  0.25489816  0.00499069  1
  Zn  Zn91  1  0.50534610  0.49919606  0.03085926  1
  Zn  Zn92  1  0.11176103  0.13802169  0.48544410  1
  Zn  Zn93  1  0.87976909  0.62926668  0.25834427  1
  Zn  Zn94  1  0.13434480  0.36571365  0.26261320  1
  Zn  Zn95  1  0.87423364  0.74927816  0.62024187  1
  Zn  Zn96  1  -0.00782690  0.00651547  0.48493390  1
  Zn  Zn97  1  0.24872017  0.11198895  0.38108282  1
  Zn  Zn98  1  0.13095961  0.25857144  0.86761506  1
  Zn  Zn99  1  0.75029914  0.50269758  0.74719322  1
  Zn  Zn100  1  -0.00225771  0.12329980  0.62361114  1
  Zn  Zn101  1  0.59603441  0.93803642  0.70152399  1
  Zn  Zn102  1  0.50013361  0.12709073  0.12818640  1
  Zn  Zn103  1  0.62382583  -0.00156264  0.12430682  1
  Zn  Zn104  1  0.49600137  0.24902731  0.25353340  1
  Zn  Zn105  1  0.75104226  0.25244564  0.49750346  1
  Zn  Zn106  1  0.62819855  0.50030554  0.62113987  1
  Zn  Zn107  1  0.18895687  0.18289946  0.19280106  1
  Zn  Zn108  1  0.18924374  0.18395546  0.68117451  1
  Zn  Zn109  1  0.19654268  0.67958983  0.19165990  1
  Zn  Zn110  1  0.18331752  0.68432693  0.69340996  1
  Zn  Zn111  1  0.68652266  0.18988248  0.18795529  1
  Zn  Zn112  1  0.68830388  0.18902433  0.68774113  1
  Zn  Zn113  1  0.68787946  0.68767914  0.18733700  1
  Zn  Zn114  1  0.68771240  0.69260310  0.68142863  1
  Zn  Zn115  1  0.31724281  0.31092928  0.31476570  1
  Zn  Zn116  1  0.31553565  0.30970545  0.81817013  1
  Zn  Zn117  1  0.31544141  0.81394825  0.31155829  1
  Zn  Zn118  1  0.31092289  0.80981289  0.80948654  1
  Zn  Zn119  1  0.81389739  0.31528056  0.31675797  1
  Zn  Zn120  1  0.81666104  0.31454183  0.80811832  1
  Zn  Zn121  1  0.80840740  0.81567768  0.31251971  1
  Zn  Zn122  1  0.81239463  0.81116007  0.81267561  1
  Zn  Zn123  1  0.18563656  0.44078622  0.43992835  1
  Zn  Zn124  1  0.19235998  0.44216697  0.93722422  1
  Zn  Zn125  1  0.17277502  0.88785459  0.44729083  1
  Zn  Zn126  1  0.18487609  0.93645141  0.93824792  1
  Zn  Zn127  1  0.68958508  0.43814055  0.43373858  1
  Zn  Zn128  1  0.69048523  0.44190417  0.93764131  1
  Zn  Zn129  1  0.68733989  0.93587171  0.43558981  1
  Zn  Zn130  1  0.66756573  0.95723637  0.89456655  1
  Zn  Zn131  1  0.31112699  0.06145301  0.06905316  1
  Zn  Zn132  1  0.31593984  0.05778523  0.56353356  1
  Zn  Zn133  1  0.31356140  0.55852612  0.06590554  1
  Zn  Zn134  1  0.30707050  0.56136327  0.56160461  1
  Zn  Zn135  1  0.81190221  0.06260001  0.06210396  1
  Zn  Zn136  1  0.80643178  0.06473535  0.56612871  1
  Zn  Zn137  1  0.81095694  0.56515055  0.06252952  1
  Zn  Zn138  1  0.80972988  0.56742053  0.56430111  1
  Zn  Zn139  1  0.43748324  0.43610278  0.18739325  1
  Zn  Zn140  1  0.43870272  0.43930692  0.68707392  1
  Zn  Zn141  1  0.43700605  0.93447841  0.18863635  1
  Zn  Zn142  1  0.42603225  0.93599232  0.68542098  1
  Zn  Zn143  1  0.93849617  0.44128053  0.18818709  1
  Zn  Zn144  1  0.93559185  0.43658513  0.56436213  1
  Zn  Zn145  1  0.93327118  0.93960197  0.18749111  1
  Zn  Zn146  1  0.93358878  0.93454580  0.68457706  1
  Zn  Zn147  1  0.06538155  0.05615721  0.31742600  1
  Zn  Zn148  1  0.05899626  0.06300914  0.81090634  1
  Zn  Zn149  1  0.06299485  0.56218591  0.31043441  1
  Zn  Zn150  1  0.06630551  0.56135178  0.80760481  1
  Zn  Zn151  1  0.56592407  0.06784129  0.31153917  1
  Zn  Zn152  1  0.55917602  0.07018557  0.81615337  1
  Zn  Zn153  1  0.56185904  0.56107627  0.30410931  1
  Zn  Zn154  1  0.56205938  0.56461944  0.81431606  1
  Zn  Zn155  1  0.43798059  0.17857215  0.44023276  1
  Zn  Zn156  1  0.43649517  0.18981804  0.94006989  1
  Zn  Zn157  1  0.43263734  0.69275208  0.43375268  1
  Zn  Zn158  1  0.43830624  0.68686617  0.93714900  1
  Zn  Zn159  1  0.93681746  0.18804198  0.43891779  1
  Zn  Zn160  1  0.94049504  0.19033919  0.93797663  1
  Zn  Zn161  1  0.93402269  0.68801009  0.42942022  1
  Zn  Zn162  1  0.94082566  0.68544422  0.94548694  1
  Zn  Zn163  1  0.05806138  0.31235177  0.06186641  1
  Zn  Zn164  1  0.06712714  0.31063824  0.57017221  1
  Zn  Zn165  1  0.05719594  0.81040459  0.06433904  1
  Zn  Zn166  1  0.05806565  0.80821815  0.56158667  1
  Zn  Zn167  1  0.55739682  0.31334125  0.06855950  1
  Zn  Zn168  1  0.56564886  0.30709898  0.56298395  1
  Zn  Zn169  1  0.56093642  0.81006163  0.05741735  1
  Zn  Zn170  1  0.56076055  0.81358096  0.55605789  1
  O  O171  1  0.12171472  0.11583018  0.11897329  1
  O  O172  1  0.12720465  0.10682222  0.61663666  1
  O  O173  1  0.11631546  0.62473311  0.12824089  1
  O  O174  1  0.11186501  0.62272814  0.62698814  1
  O  O175  1  0.62246134  0.12366068  0.11598498  1
  O  O176  1  0.61792528  0.13063733  0.61914127  1
  O  O177  1  0.62879995  0.63114003  0.10739838  1
  O  O178  1  0.61572118  0.62408954  0.61344583  1
  O  O179  1  0.37194068  0.38589113  0.38866284  1
  O  O180  1  0.38137888  0.38310025  0.88278320  1
  O  O181  1  0.38522193  0.87440522  0.38371634  1
  O  O182  1  0.37786757  0.87879404  0.87855417  1
  O  O183  1  0.87754376  0.39118395  0.37451645  1
  O  O184  1  0.88205564  0.38451031  0.87809889  1
  O  O185  1  0.88012649  0.87533629  0.38244404  1
  O  O186  1  0.87688715  0.88069097  0.88168570  1
  O  O187  1  0.24452675  -0.01635576  0.35905720  1
  O  O188  1  0.25280083  0.00442878  0.87028576  1
  O  O189  1  0.26135376  0.50809055  0.37177090  1
  O  O190  1  0.26182964  0.50930425  0.87195557  1
  O  O191  1  0.74342603  0.01250517  0.36517429  1
  O  O192  1  0.76789518  0.01035163  0.88364142  1
  O  O193  1  0.76083605  0.49683186  0.36452232  1
  O  O194  1  0.76046618  0.50709636  0.86979531  1
  O  O195  1  0.23788907  0.50618564  0.13572508  1
  O  O196  1  0.24749049  0.49094344  0.62986645  1
  O  O197  1  0.24070846  0.98669529  0.13141686  1
  O  O198  1  0.23969636  0.99081418  0.62935396  1
  O  O199  1  0.75636496  0.48865854  0.13529565  1
  O  O200  1  0.74780622  0.49233872  0.62865059  1
  O  O201  1  0.74865384  0.99267620  0.12958698  1
  O  O202  1  0.75176934  0.98301994  0.62470331  1
  O  O203  1  -0.00382116  0.35780177  0.24631470  1
  O  O204  1  -0.00277518  0.36160388  0.76366695  1
  O  O205  1  0.00547161  0.87374748  0.25159940  1
  O  O206  1  0.00071231  0.86464660  0.75549760  1
  O  O207  1  0.51668965  0.37436961  0.25151224  1
  O  O208  1  0.50814796  0.37178072  0.75551247  1
  O  O209  1  0.49043203  0.86392576  0.26393612  1
  O  O210  1  0.49867308  0.86639823  0.75078565  1
  O  O211  1  0.48848907  0.12321889  0.24815461  1
  O  O212  1  0.49557061  0.13337330  0.74618801  1
  O  O213  1  0.48847790  0.63706083  0.25734407  1
  O  O214  1  0.49299885  0.62979103  0.74118563  1
  O  O215  1  0.99216436  0.13151873  0.24777589  1
  O  O216  1  0.98780766  0.13268352  0.74968159  1
  O  O217  1  0.99500594  0.61640954  0.23113789  1
  O  O218  1  0.99385083  0.63338394  0.74559891  1
  O  O219  1  0.37364924  0.25758400  0.00896127  1
  O  O220  1  0.37328012  0.25740974  0.50576455  1
  O  O221  1  0.38459305  0.75603669  0.01169897  1
  O  O222  1  0.38450800  0.76815464  0.50199505  1
  O  O223  1  0.86979719  0.25673831  0.00541150  1
  O  O224  1  0.87081529  0.24186755  0.51703361  1
  O  O225  1  0.86886152  0.75713194  0.00792649  1
  O  O226  1  0.86254759  0.75755209  0.49582055  1
  O  O227  1  0.14640383  0.24727556  0.51517504  1
  O  O228  1  0.12642039  0.23767131  1.00220027  1
  O  O229  1  0.13604041  0.78917153  0.48953660  1
  O  O230  1  0.11990533  0.75443621  0.98661632  1
  O  O231  1  0.62798004  0.24091177  0.49227724  1
  O  O232  1  0.62964119  0.24872442  0.99721377  1
  O  O233  1  0.62862688  0.74317792  0.48962062  1
  O  O234  1  0.62781574  0.73905114  0.99029927  1
  O  O235  1  0.48614432  0.24725084  0.13099988  1
  O  O236  1  0.49622038  0.24278471  0.63323535  1
  O  O237  1  0.48981877  0.76079094  0.13582376  1
  O  O238  1  0.50292907  0.73973639  0.63059938  1
  O  O239  1  0.99264469  0.24358650  0.13279680  1
  O  O240  1  0.99221837  0.24685936  0.63582239  1
  O  O241  1  0.99070850  0.73732103  0.12280835  1
  O  O242  1  0.99898655  0.74198948  0.63584705  1
  O  O243  1  -0.00677781  0.25181029  0.36127032  1
  O  O244  1  0.00421428  0.25805583  0.86940641  1
  O  O245  1  -0.00584848  0.76882116  0.37529440  1
  O  O246  1  0.00590784  0.75145239  0.86985534  1
  O  O247  1  0.51306251  0.24232575  0.37482732  1
  O  O248  1  0.50595946  0.25776462  0.87142697  1
  O  O249  1  0.50684182  0.75734426  0.36630267  1
  O  O250  1  0.50417729  0.75340781  0.86458708  1
  O  O251  1  0.26223313  0.13988152  0.50173530  1
  O  O252  1  0.23998295  0.12189727  0.99621907  1
  O  O253  1  0.26018346  0.62772596  0.48450073  1
  O  O254  1  0.25846579  0.62410198  0.98770943  1
  O  O255  1  0.74301252  0.12698607  0.49224380  1
  O  O256  1  0.74582740  0.13382749  0.99569044  1
  O  O257  1  0.73681557  0.63557759  0.50511897  1
  O  O258  1  0.74170879  0.63047055  0.99252164  1
  O  O259  1  0.26632652  0.37400878  -0.00537483  1
  O  O260  1  0.26230504  0.36581736  0.51266512  1
  O  O261  1  0.25515478  0.87960290  0.01122567  1
  O  O262  1  0.26795934  0.87951603  0.50949113  1
  O  O263  1  0.75399383  0.37282269  0.00806841  1
  O  O264  1  0.73958216  0.37298841  0.51509997  1
  O  O265  1  0.76279764  0.86924960  0.00863700  1
  O  O266  1  0.75764237  0.86944994  0.50306137  1
  O  O267  1  0.13412379  0.49796605  0.23885894  1
  O  O268  1  0.13099467  0.50902360  0.73122201  1
  O  O269  1  0.13125120  0.99301591  0.23667174  1
  O  O270  1  0.12832138  0.99500438  0.74417924  1
  O  O271  1  0.63769945  0.48468412  0.26294273  1
  O  O272  1  0.62461358  0.48992102  0.74926075  1
  O  O273  1  0.63959508  1.00872367  0.24338720  1
  O  O274  1  0.63293357  0.99292887  0.78863292  1
  O  O275  1  0.36397069  0.00616401  0.24053162  1
  O  O276  1  0.36687423  0.00544940  0.75727393  1
  O  O277  1  0.37004769  0.50438800  0.25963248  1
  O  O278  1  0.37744081  0.50941775  0.75966822  1
  O  O279  1  0.86450905  0.01481127  0.24349715  1
  O  O280  1  0.88194325  0.00939181  0.75966073  1
  O  O281  1  0.86325999  0.50051342  0.25519323  1
  O  O282  1  0.87591487  0.51565491  0.76361556  1
  O  O283  1  0.11912923  0.38371974  0.37274481  1
  O  O284  1  0.11442518  0.37712086  0.88233735  1
  O  O285  1  0.11272094  0.87352255  0.35118468  1
  O  O286  1  0.11896205  0.86802531  0.87066956  1
  O  O287  1  0.63463806  0.36285334  0.36408897  1
  O  O288  1  0.62207293  0.37360961  0.86891765  1
  O  O289  1  0.61170462  0.86461240  0.38044817  1
  O  O290  1  0.61576338  0.85581923  0.88238923  1
  O  O291  1  0.37621433  0.13127233  0.13494622  1
  O  O292  1  0.38599378  0.12608493  0.63290939  1
  O  O293  1  0.36552435  0.63575672  0.13596011  1
  O  O294  1  0.38311828  0.62463754  0.63092211  1
  O  O295  1  0.87851250  0.13125273  0.13223802  1
  O  O296  1  0.87263562  0.13126912  0.63577285  1
  O  O297  1  0.87448605  0.63527239  0.12817898  1
  O  O298  1  0.88677822  0.62638367  0.63318822  1
  O  O299  1  0.26212500  0.24431596  0.12560148  1
  O  O300  1  0.26124142  0.25559137  0.62148102  1
  O  O301  1  0.26082200  0.75877892  0.13146361  1
  O  O302  1  0.24774030  0.76201092  0.63575567  1
  O  O303  1  0.75572875  0.26026678  0.12141190  1
  O  O304  1  0.75913830  0.25944020  0.62764673  1
  O  O305  1  0.75606429  0.75765819  0.12123492  1
  O  O306  1  0.75076706  0.75852209  0.60958539  1
  O  O307  1  0.25442504  0.25502189  0.39426293  1
  O  O308  1  0.24674650  0.24147429  0.87983943  1
  O  O309  1  0.25286888  0.73611679  0.36367824  1
  O  O310  1  0.24071080  0.74181340  0.86861558  1
  O  O311  1  0.74279790  0.23909333  0.37504979  1
  O  O312  1  0.74726817  0.24985347  0.88246579  1
  O  O313  1  0.73643099  0.75915100  0.38285385  1
  O  O314  1  0.74196686  0.74669862  0.87911462  1
  O  O315  1  0.00860277  0.12436786  0.00745531  1
  O  O316  1  -0.00068009  0.11950492  0.50523710  1
  O  O317  1  -0.00711868  0.61707217  0.02007277  1
  O  O318  1  -0.00262682  0.63887630  0.51438886  1
  O  O319  1  0.50357339  0.11540487  -0.00027041  1
  O  O320  1  0.50710838  0.12609801  0.51624386  1
  O  O321  1  0.51377955  0.62349629  -0.00532397  1
  O  O322  1  0.50494318  0.61915288  0.50504623  1
  O  O323  1  0.49275352  0.38551399  0.50900397  1
  O  O324  1  0.49254256  0.38041241  0.99635728  1
  O  O325  1  0.49424055  0.87605730  0.48598475  1
  O  O326  1  0.49271905  0.88177421  0.99174619  1
  O  O327  1  0.99613602  0.36443683  0.50650990  1
  O  O328  1  0.99253626  0.37895001  0.99073436  1
  O  O329  1  0.98083514  0.87535095  0.49476338  1
  O  O330  1  0.98611528  0.87404734  0.99593106  1
  O  O331  1  0.48880174  0.50746552  0.38550911  1
  O  O332  1  0.48840259  0.49693105  0.87442547  1
  O  O333  1  0.50752719  0.98517769  0.36614262  1
  O  O334  1  0.48910739  0.99549537  0.88393554  1
  O  O335  1  0.98645849  0.49801427  0.36907265  1
  O  O336  1  0.99483663  0.49581106  0.87547134  1
  O  O337  1  1.00228552  0.97852892  0.37422382  1
  O  O338  1  0.98979363  0.99229137  0.87760114  1
  O  O339  1  0.00870800  0.00528956  0.12620597  1
  O  O340  1  0.01354385  -0.00338111  0.62465940  1
  O  O341  1  0.01656411  0.50462145  0.12546925  1
  O  O342  1  0.01038991  0.51247839  0.62027980  1
  O  O343  1  0.50267571  -0.00504526  0.11145719  1
  O  O344  1  0.50916482  0.00836527  0.64627324  1
  O  O345  1  0.49491184  0.51484461  0.13912206  1
  O  O346  1  0.50147876  0.51028952  0.61427327  1
  O  O347  1  0.25403603  0.38916120  0.25732178  1
  O  O348  1  0.26130944  0.37415093  0.73920335  1
  O  O349  1  0.23751057  0.87540082  0.24017149  1
  O  O350  1  0.24524830  0.88136222  0.74323362  1
  O  O351  1  0.74518576  0.38250969  0.24401727  1
  O  O352  1  0.74101829  0.37671065  0.74313920  1
  O  O353  1  0.75749763  0.88840341  0.23959139  1
  O  O354  1  0.75562357  0.86429478  0.73098278  1
  O  O355  1  0.25687799  0.11111715  0.25189983  1
  O  O356  1  0.25576648  0.11982753  0.75494964  1
  O  O357  1  0.26232824  0.61314583  0.25936807  1
  O  O358  1  0.26494605  0.62568744  0.75370056  1
  O  O359  1  0.75651989  0.12163497  0.25578119  1
  O  O360  1  0.76352909  0.13560846  0.75961476  1
  O  O361  1  0.74540991  0.60631573  0.24479439  1
  O  O362  1  0.76046032  0.62960054  0.75236505  1
  O  O363  1  0.36866661  0.12696163  0.36291480  1
  O  O364  1  0.36912552  0.11990212  0.87105221  1
  O  O365  1  0.37028459  0.61769560  0.36638180  1
  O  O366  1  0.37073622  0.62006252  0.86890037  1
  O  O367  1  0.86392102  0.13088840  0.36604786  1
  O  O368  1  0.87367476  0.11990665  0.87024758  1
  O  O369  1  0.87712211  0.60890621  0.37173651  1
  O  O370  1  0.87211553  0.62162250  0.87113518  1
  O  O371  1  0.12322411  0.38211339  0.13147850  1
  O  O372  1  0.13625048  0.38666945  0.62694749  1
  O  O373  1  0.12728613  0.87839523  0.12975601  1
  O  O374  1  0.13026180  0.88355491  0.63368613  1
  O  O375  1  0.63512907  0.36765351  0.14128510  1
  O  O376  1  0.63102221  0.37475941  0.63541537  1
  O  O377  1  0.63988194  0.87399899  0.11566860  1
  O  O378  1  0.63696558  0.87170558  0.62006626  1
  O  O379  1  0.10925283  0.24828660  0.24416860  1
  O  O380  1  0.11173363  0.23737985  0.74883830  1
  O  O381  1  0.12492102  0.75917518  0.23893201  1
  O  O382  1  0.11398302  0.75508881  0.75870091  1
  O  O383  1  0.62483752  0.25883146  0.25860154  1
  O  O384  1  0.62159480  0.26073660  0.75775761  1
  O  O385  1  0.61540198  0.74221785  0.25826395  1
  O  O386  1  0.61234113  0.74102344  0.75740817  1
  O  O387  1  0.37448014  0.24081077  0.24575343  1
  O  O388  1  0.38232526  0.24396249  0.74700820  1
  O  O389  1  0.38232578  0.74287271  0.24234208  1
  O  O390  1  0.38778351  0.74011317  0.74948656  1
  O  O391  1  0.88123785  0.24067298  0.24545166  1
  O  O392  1  0.88411085  0.24297634  0.74389812  1
  O  O393  1  0.86532123  0.74814934  0.23922379  1
  O  O394  1  0.88567017  0.74051273  0.75235223  1
  O  O395  1  0.38192709  0.49364553  0.49553792  1
  O  O396  1  0.37820054  0.49381722  0.99347543  1
  O  O397  1  0.38191751  0.98342827  0.50823576  1
  O  O398  1  0.38049594  0.99352797  0.99727364  1
  O  O399  1  0.87302587  0.50410209  0.49218237  1
  O  O400  1  0.87204489  0.49680296  0.98709078  1
  O  O401  1  0.87054209  0.98780738  0.50232552  1
  O  O402  1  0.87794029  0.99150003  0.99446454  1
  O  O403  1  0.12191432  0.00580052  0.01099895  1
  O  O404  1  0.12452845  -0.01517369  0.51149275  1
  O  O405  1  0.13125665  0.49624802  0.01855383  1
  O  O406  1  0.13868822  0.50512777  0.52241421  1
  O  O407  1  0.61328430  0.00737742  -0.00902537  1
  O  O408  1  0.62817136  0.01464354  0.49600632  1
  O  O409  1  0.62361851  0.51467502  -0.00594711  1
  O  O410  1  0.61689529  0.50778273  0.49512507  1
  O  O411  1  0.37825157  0.36546524  0.11784868  1
  O  O412  1  0.37247522  0.37035211  0.61803668  1
  O  O413  1  0.36574019  0.86658499  0.12122936  1
  O  O414  1  0.36668835  0.86906239  0.61780355  1
  O  O415  1  0.86804685  0.37175459  0.11931612  1
  O  O416  1  0.86441504  0.36754919  0.62837837  1
  O  O417  1  0.86989617  0.86729700  0.11921432  1
  O  O418  1  0.86642236  0.87024003  0.61154621  1
  O  O419  1  0.13553966  0.11731393  0.37886214  1
  O  O420  1  0.12855727  0.12157095  0.88616045  1
  O  O421  1  0.14206020  0.61805727  0.36949733  1
  O  O422  1  0.13678430  0.63236770  0.86868213  1
  O  O423  1  0.63267797  0.13251334  0.38232212  1
  O  O424  1  0.63159400  0.13725762  0.88311030  1
  O  O425  1  0.61612419  0.63460871  0.38380209  1
  O  O426  1  0.63042709  0.63447870  0.87863750  1
