# generated using pymatgen
data_V85Zn86O256
_symmetry_space_group_name_H-M   'P 1'
_cell_length_a   16.98789515
_cell_length_b   16.97781915
_cell_length_c   16.99256580
_cell_angle_alpha   89.84364330
_cell_angle_beta   89.99190949
_cell_angle_gamma   89.97295499
_symmetry_Int_Tables_number   1
_chemical_formula_structural   V85Zn86O256
_chemical_formula_sum   'V85 Zn86 O256'
_cell_volume   4900.93300263
_cell_formula_units_Z   1
loop_
 _symmetry_equiv_pos_site_id
 _symmetry_equiv_pos_as_xyz
  1  'x, y, z'
loop_
 _atom_site_type_symbol
 _atom_site_label
 _atom_site_symmetry_multiplicity
 _atom_site_fract_x
 _atom_site_fract_y
 _atom_site_fract_z
 _atom_site_occupancy
  V  V0  1  0.74402581  0.24904188  0.00285138  1
  V  V1  1  0.49929405  0.00083220  0.50178955  1
  V  V2  1  0.50730743  0.11795579  0.12582153  1
  V  V3  1  0.50724378  0.51889947  0.50321167  1
  V  V4  1  0.87890586  0.74789952  0.12336378  1
  V  V5  1  0.25026946  0.24942776  -0.00234894  1
  V  V6  1  0.64074068  0.49906389  0.64826478  1
  V  V7  1  0.51079813  0.25345825  0.75591546  1
  V  V8  1  0.88661221  0.50308331  0.37661455  1
  V  V9  1  0.00479727  0.62764638  0.60958359  1
  V  V10  1  0.00158159  0.38306562  0.37713890  1
  V  V11  1  0.24982642  0.49445514  0.74528252  1
  V  V12  1  0.25060469  0.74860658  0.00163089  1
  V  V13  1  0.25046004  0.87890143  0.63219058  1
  V  V14  1  0.74889340  0.87558241  0.62361461  1
  V  V15  1  0.12216777  -0.00141340  0.12800016  1
  V  V16  1  0.62664374  0.50199962  0.12580271  1
  V  V17  1  0.37732847  0.37295229  -0.00244035  1
  V  V18  1  0.87077318  0.87421578  0.49806610  1
  V  V19  1  0.87492633  0.00026785  0.37352185  1
  V  V20  1  0.75681794  0.50198161  0.24986772  1
  V  V21  1  0.62302235  0.12569787  -0.00718312  1
  V  V22  1  0.75177394  0.61975363  0.87036130  1
  V  V23  1  0.12747181  0.37495081  0.24018999  1
  V  V24  1  0.50111815  0.87267803  0.37462121  1
  V  V25  1  0.49238590  0.87725615  0.87646308  1
  V  V26  1  0.74682722  0.74179335  0.00167335  1
  V  V27  1  0.37439442  0.12389269  0.24951269  1
  V  V28  1  0.62331518  0.87201249  0.75079090  1
  V  V29  1  0.24091314  0.63172477  0.37897761  1
  V  V30  1  0.50385453  0.62555372  0.12117966  1
  V  V31  1  0.75139975  0.12714646  0.37454677  1
  V  V32  1  0.25006081  0.62202650  0.87427040  1
  V  V33  1  0.25146692  0.25739146  0.50408921  1
  V  V34  1  0.37676820  0.75176469  0.12243220  1
  V  V35  1  0.12380392  0.37481496  0.74664618  1
  V  V36  1  0.62343546  0.74235094  0.87878892  1
  V  V37  1  0.37043905  0.11531973  0.75443816  1
  V  V38  1  0.12324406  0.61901965  0.01384826  1
  V  V39  1  0.49820671  0.74406956  0.74448141  1
  V  V40  1  0.12440825  0.00197307  0.63060719  1
  V  V41  1  0.74893842  -0.00133798  0.24554939  1
  V  V42  1  0.00152753  0.37575191  0.87471106  1
  V  V43  1  0.36979845  0.25739461  0.62932649  1
  V  V44  1  0.37667465  0.62382783  0.74212972  1
  V  V45  1  0.24748269  0.49986328  0.24211442  1
  V  V46  1  0.00584169  0.50059408  0.01596820  1
  V  V47  1  0.00460223  0.00237682  0.49670143  1
  V  V48  1  0.24582691  -0.00151124  0.25023575  1
  V  V49  1  -0.01294089  0.24661737  0.24033683  1
  V  V50  1  0.37510638  0.62566896  0.24719615  1
  V  V51  1  0.12162565  0.24863453  0.86903122  1
  V  V52  1  0.25189437  0.37578943  0.12202249  1
  V  V53  1  0.74898446  0.00608598  0.75918770  1
  V  V54  1  0.62252292  0.24802397  0.37860077  1
  V  V55  1  0.37273956  0.00038332  0.37556194  1
  V  V56  1  0.49802786  0.24916521  0.25053298  1
  V  V57  1  0.88141133  0.61584822  0.75090352  1
  V  V58  1  0.49914231  0.12676926  0.62723944  1
  V  V59  1  0.12288868  0.74927267  0.87499660  1
  V  V60  1  0.12129549  0.12514803  0.00308426  1
  V  V61  1  0.62505774  0.00146293  0.62665932  1
  V  V62  1  0.88271257  0.62616299  0.24190628  1
  V  V63  1  0.12709110  0.25011758  0.37350980  1
  V  V64  1  0.37225602  0.49939296  0.37576969  1
  V  V65  1  0.01120849  0.75563669  0.24813611  1
  V  V66  1  0.12221823  0.50253529  0.61408296  1
  V  V67  1  0.01298523  0.87388433  0.36888683  1
  V  V68  1  0.49666431  0.37363263  0.37863281  1
  V  V69  1  0.74444040  0.87474095  0.12426501  1
  V  V70  1  0.87753233  0.36998008  0.00949927  1
  V  V71  1  0.24728856  0.87521070  0.12934682  1
  V  V72  1  0.50249311  0.50002372  -0.00048076  1
  V  V73  1  0.12341740  0.87807164  0.75358491  1
  V  V74  1  0.87243639  0.87603571  -0.00743148  1
  V  V75  1  0.37103607  0.87335747  0.50207265  1
  V  V76  1  0.49759997  -0.00084820  -0.00071754  1
  V  V77  1  0.25025826  0.12562135  0.37578545  1
  V  V78  1  0.51484876  0.37073043  0.87492907  1
  V  V79  1  0.63020026  0.12899453  0.50272274  1
  V  V80  1  0.37562889  0.24792456  0.12371240  1
  V  V81  1  0.62407336  0.87815817  0.24941965  1
  V  V82  1  0.75413801  0.36832594  0.13214803  1
  V  V83  1  -0.00401572  0.00305691  0.00392831  1
  V  V84  1  0.25204969  0.11047274  0.87232968  1
  Zn  Zn85  1  0.23625660  0.74769076  0.50444496  1
  Zn  Zn86  1  0.87840053  0.75788362  0.63254969  1
  Zn  Zn87  1  0.00058739  0.74886441  0.75231569  1
  Zn  Zn88  1  0.37790803  0.49516134  0.87092910  1
  Zn  Zn89  1  0.74532827  0.13763565  0.87052373  1
  Zn  Zn90  1  0.63278373  0.74531233  0.38341811  1
  Zn  Zn91  1  0.80826962  0.33373731  0.56735082  1
  Zn  Zn92  1  0.50149433  0.74970425  0.24943711  1
  Zn  Zn93  1  -0.00269471  0.87746276  0.87288821  1
  Zn  Zn94  1  0.87424761  0.13185680  0.22556316  1
  Zn  Zn95  1  0.37193476  0.38051743  0.50957452  1
  Zn  Zn96  1  0.87921617  0.01511985  0.87352136  1
  Zn  Zn97  1  0.00169431  0.14133300  0.63655083  1
  Zn  Zn98  1  0.06789650  0.69346475  0.43020188  1
  Zn  Zn99  1  0.72701486  0.60582135  0.40545710  1
  Zn  Zn100  1  0.12605109  0.12740966  0.50410680  1
  Zn  Zn101  1  0.73621210  0.72780323  0.51330570  1
  Zn  Zn102  1  0.88953040  0.15545124  0.75368285  1
  Zn  Zn103  1  0.37025787  0.88332025  -0.00464611  1
  Zn  Zn104  1  0.37455183  0.74604757  0.62183366  1
  Zn  Zn105  1  0.62653248  0.37481645  0.25461434  1
  Zn  Zn106  1  0.87424505  0.50068856  0.88055707  1
  Zn  Zn107  1  0.18652128  0.18665741  0.18627998  1
  Zn  Zn108  1  0.18862440  0.18457844  0.68920697  1
  Zn  Zn109  1  0.19063645  0.68903362  0.19010133  1
  Zn  Zn110  1  0.18821301  0.68907434  0.68576023  1
  Zn  Zn111  1  0.68575101  0.18636587  0.19036009  1
  Zn  Zn112  1  0.70157099  0.20882009  0.68525201  1
  Zn  Zn113  1  0.67051938  0.66920136  0.22806488  1
  Zn  Zn114  1  0.68656276  0.67968663  0.68651137  1
  Zn  Zn115  1  0.31267898  0.31215356  0.31207806  1
  Zn  Zn116  1  0.31506078  0.30890308  0.81362935  1
  Zn  Zn117  1  0.31359404  0.81236408  0.30941434  1
  Zn  Zn118  1  0.31058964  0.81050434  0.81116037  1
  Zn  Zn119  1  0.79107031  0.33839236  0.35838962  1
  Zn  Zn120  1  0.81159579  0.31873460  0.83187951  1
  Zn  Zn121  1  0.81171880  0.80364372  0.31834957  1
  Zn  Zn122  1  0.81090551  0.80705804  0.80819144  1
  Zn  Zn123  1  0.18695035  0.43804584  0.43216672  1
  Zn  Zn124  1  0.18660783  0.43857892  0.93649704  1
  Zn  Zn125  1  0.18780410  0.93605635  0.44107946  1
  Zn  Zn126  1  0.18511020  0.93512547  0.94288109  1
  Zn  Zn127  1  0.67110966  0.41885112  0.48116854  1
  Zn  Zn128  1  0.68903902  0.43870137  0.94464511  1
  Zn  Zn129  1  0.68654933  0.94038460  0.43788816  1
  Zn  Zn130  1  0.67706608  0.93602899  0.94031321  1
  Zn  Zn131  1  0.31275294  0.06313170  0.06016178  1
  Zn  Zn132  1  0.31080699  0.06615536  0.56547298  1
  Zn  Zn133  1  0.31637578  0.56306109  0.05941416  1
  Zn  Zn134  1  0.31007243  0.56025458  0.56071959  1
  Zn  Zn135  1  0.80958611  0.06375503  0.06217027  1
  Zn  Zn136  1  0.82150507  0.15779609  0.56963678  1
  Zn  Zn137  1  0.81661056  0.55990307  0.06266495  1
  Zn  Zn138  1  0.82469371  0.52523608  0.57470850  1
  Zn  Zn139  1  0.43654073  0.43642587  0.18870641  1
  Zn  Zn140  1  0.44563427  0.43956728  0.68787745  1
  Zn  Zn141  1  0.43409831  0.93844543  0.18587755  1
  Zn  Zn142  1  0.43956328  0.93504736  0.68881208  1
  Zn  Zn143  1  0.94046452  0.43076910  0.19075063  1
  Zn  Zn144  1  0.93795976  0.42999512  0.68646730  1
  Zn  Zn145  1  0.93338340  0.93657244  0.18481241  1
  Zn  Zn146  1  0.90311268  0.98987249  0.65411550  1
  Zn  Zn147  1  0.06095136  0.06552256  0.31059701  1
  Zn  Zn148  1  0.05828043  0.06431436  0.81214621  1
  Zn  Zn149  1  0.06431486  0.56608245  0.29367673  1
  Zn  Zn150  1  0.06277611  0.55808528  0.81616456  1
  Zn  Zn151  1  0.56210137  0.05971230  0.31323770  1
  Zn  Zn152  1  0.55938225  0.06299104  0.81327209  1
  Zn  Zn153  1  0.56037313  0.55740681  0.31401576  1
  Zn  Zn154  1  0.56407196  0.55993568  0.81048684  1
  Zn  Zn155  1  0.43539688  0.18737380  0.44203816  1
  Zn  Zn156  1  0.43692537  0.18535830  0.93501944  1
  Zn  Zn157  1  0.42995502  0.69113248  0.43379036  1
  Zn  Zn158  1  0.43542576  0.68650235  0.93584413  1
  Zn  Zn159  1  0.94368890  0.18814374  0.42790592  1
  Zn  Zn160  1  0.93306740  0.18780517  0.94224150  1
  Zn  Zn161  1  0.88200495  0.66527521  0.45818518  1
  Zn  Zn162  1  0.93968378  0.68389228  0.94071058  1
  Zn  Zn163  1  0.06198857  0.30920866  0.06138208  1
  Zn  Zn164  1  0.05997516  0.32093678  0.55715427  1
  Zn  Zn165  1  0.06244664  0.81389060  0.05990978  1
  Zn  Zn166  1  0.06040609  0.81786756  0.56499484  1
  Zn  Zn167  1  0.56465638  0.31280341  0.06594773  1
  Zn  Zn168  1  0.55999566  0.31791015  0.57043888  1
  Zn  Zn169  1  0.56376367  0.81281698  0.06110656  1
  Zn  Zn170  1  0.56370664  0.80849550  0.56141887  1
  O  O171  1  0.13305657  0.11534484  0.11110390  1
  O  O172  1  0.12038775  0.11778134  0.62327962  1
  O  O173  1  0.13277327  0.62734054  0.11241044  1
  O  O174  1  0.11478010  0.61797267  0.62729832  1
  O  O175  1  0.61173032  0.12765189  0.12038451  1
  O  O176  1  0.61905313  0.12159424  0.61609918  1
  O  O177  1  0.61546177  0.61402237  0.13639232  1
  O  O178  1  0.62431310  0.60149363  0.63411161  1
  O  O179  1  0.37945027  0.38484756  0.37302626  1
  O  O180  1  0.38560810  0.37472031  0.88179235  1
  O  O181  1  0.37924237  0.88071862  0.38199676  1
  O  O182  1  0.38780132  0.86501925  0.87731865  1
  O  O183  1  0.89526404  0.38897678  0.36002489  1
  O  O184  1  0.88443838  0.37965711  0.88863295  1
  O  O185  1  0.87702090  0.88341139  0.38049217  1
  O  O186  1  0.87252859  0.87061321  0.88687059  1
  O  O187  1  0.25327551  0.00477704  0.37060247  1
  O  O188  1  0.24451892  0.01155404  0.88219779  1
  O  O189  1  0.25572593  0.50678189  0.36497008  1
  O  O190  1  0.25099771  0.50756503  0.86540856  1
  O  O191  1  0.75637093  0.00567662  0.36588403  1
  O  O192  1  0.74074063  -0.00218973  0.86429111  1
  O  O193  1  0.77369656  0.50193328  0.35995504  1
  O  O194  1  0.75080008  0.51517809  0.88632247  1
  O  O195  1  0.26144856  0.49355155  0.13585501  1
  O  O196  1  0.23549361  0.50869282  0.63590580  1
  O  O197  1  0.24352608  0.99382391  0.12800218  1
  O  O198  1  0.23695672  0.99126123  0.61815298  1
  O  O199  1  0.74457935  0.49195387  0.12918116  1
  O  O200  1  0.74061633  0.50043927  0.64984137  1
  O  O201  1  0.75580851  0.98637233  0.13541365  1
  O  O202  1  0.74072658  0.98854013  0.64336702  1
  O  O203  1  0.01280181  0.36472310  0.25274814  1
  O  O204  1  0.01054702  0.38275488  0.76275503  1
  O  O205  1  -0.00992217  0.86416575  0.25666978  1
  O  O206  1  0.01869075  0.86842145  0.75538583  1
  O  O207  1  0.49992518  0.37014322  0.26183520  1
  O  O208  1  0.49496975  0.36087686  0.75916890  1
  O  O209  1  0.50664539  0.88063034  0.25729934  1
  O  O210  1  0.50294478  0.86580574  0.75884085  1
  O  O211  1  0.49477294  0.12635468  0.24395728  1
  O  O212  1  0.49254899  0.13627505  0.74869917  1
  O  O213  1  0.49262186  0.62370020  0.23793918  1
  O  O214  1  0.48693581  0.63289724  0.76103804  1
  O  O215  1  0.99464009  0.14285099  0.26105140  1
  O  O216  1  1.00338724  0.13982047  0.75197581  1
  O  O217  1  0.99469383  0.64315346  0.24460037  1
  O  O218  1  0.99199610  0.62735517  0.75516755  1
  O  O219  1  0.37032449  0.25331383  0.00455475  1
  O  O220  1  0.36845566  0.25144083  0.51048890  1
  O  O221  1  0.36732181  0.74897412  0.00631983  1
  O  O222  1  0.37073412  0.76364280  0.50184865  1
  O  O223  1  0.86676501  0.26415868  0.00136624  1
  O  O224  1  0.90936019  0.24433668  0.52718847  1
  O  O225  1  0.86942215  0.75672821  0.00492892  1
  O  O226  1  0.87703258  0.76888676  0.51081622  1
  O  O227  1  0.13201519  0.25292013  0.48879120  1
  O  O228  1  0.12960822  0.24202352  0.99265701  1
  O  O229  1  0.12593573  0.76094717  0.49522353  1
  O  O230  1  0.13060748  0.74155301  0.99424035  1
  O  O231  1  0.61021425  0.23844698  0.48819065  1
  O  O232  1  0.63221615  0.23946725  1.00972993  1
  O  O233  1  0.62603706  0.74711493  0.49653514  1
  O  O234  1  0.63499135  0.75303919  0.99049325  1
  O  O235  1  0.49432744  0.24186199  0.13115055  1
  O  O236  1  0.49265718  0.24728770  0.63598755  1
  O  O237  1  0.49735270  0.74072754  0.12389640  1
  O  O238  1  0.49632048  0.75695898  0.64162842  1
  O  O239  1  1.00537197  0.25299714  0.14150902  1
  O  O240  1  0.97558695  0.24648188  0.58444004  1
  O  O241  1  0.98734743  0.76516051  0.13473220  1
  O  O242  1  1.00267321  0.73634953  0.63033014  1
  O  O243  1  0.00937724  0.26434820  0.36618704  1
  O  O244  1  0.01237278  0.26281666  0.88569364  1
  O  O245  1  -0.00007004  0.75737517  0.35810109  1
  O  O246  1  0.01498753  0.75231000  0.88034519  1
  O  O247  1  0.50108467  0.25434957  0.37037427  1
  O  O248  1  0.49802407  0.25476950  0.86367038  1
  O  O249  1  0.49512829  0.76548215  0.37136297  1
  O  O250  1  0.50720421  0.75345801  0.87080901  1
  O  O251  1  0.24864027  0.13665566  0.49296198  1
  O  O252  1  0.24243035  0.12972625  0.99236129  1
  O  O253  1  0.25401849  0.62582746  0.48211775  1
  O  O254  1  0.24455504  0.62605294  0.99185831  1
  O  O255  1  0.73896343  0.11651540  0.48489484  1
  O  O256  1  0.73811491  0.13180488  1.00159609  1
  O  O257  1  0.78367353  0.61852319  0.50519176  1
  O  O258  1  0.75926835  0.63702857  0.99250137  1
  O  O259  1  0.25594201  0.37044457  0.00243521  1
  O  O260  1  0.25314986  0.36187594  0.49143071  1
  O  O261  1  0.25211096  0.86849210  0.00992751  1
  O  O262  1  0.25962720  0.87555085  0.50795978  1
  O  O263  1  0.75644862  0.37009465  0.01236242  1
  O  O264  1  0.76682276  0.36994769  0.46491189  1
  O  O265  1  0.75303044  0.86832095  0.00522168  1
  O  O266  1  0.75665113  0.88483624  0.51029948  1
  O  O267  1  0.13781187  0.48840657  0.25007339  1
  O  O268  1  0.13271952  0.49300429  0.74579814  1
  O  O269  1  0.12938685  1.00995984  0.23575477  1
  O  O270  1  0.11939282  0.99235099  0.74050002  1
  O  O271  1  0.63715249  0.49652641  0.24256985  1
  O  O272  1  0.60934629  0.48226541  0.74382554  1
  O  O273  1  0.63690200  0.99002818  0.25603612  1
  O  O274  1  0.62727663  0.99244431  0.74703169  1
  O  O275  1  0.36680663  0.00490637  0.25605124  1
  O  O276  1  0.38269781  0.01637092  0.74507103  1
  O  O277  1  0.36722351  0.50376176  0.25745594  1
  O  O278  1  0.36841749  0.50556588  0.74904813  1
  O  O279  1  0.86611717  -0.00131683  0.25954202  1
  O  O280  1  0.85314252  -0.00862371  0.75966142  1
  O  O281  1  0.87475895  0.50889816  0.24422558  1
  O  O282  1  0.88298455  0.51338919  0.75889028  1
  O  O283  1  0.12107671  0.37019512  0.36148584  1
  O  O284  1  0.12004972  0.36780828  0.86888247  1
  O  O285  1  0.11193610  0.88440525  0.37158458  1
  O  O286  1  0.13040008  0.86487437  0.87058655  1
  O  O287  1  0.61309146  0.36240941  0.37721199  1
  O  O288  1  0.61392645  0.37636170  0.88384176  1
  O  O289  1  0.61434343  0.87865383  0.36933637  1
  O  O290  1  0.61529604  0.86131675  0.87097714  1
  O  O291  1  0.38221989  0.12965937  0.13031814  1
  O  O292  1  0.37976882  0.13411302  0.63253300  1
  O  O293  1  0.38323058  0.63018875  0.12823310  1
  O  O294  1  0.36527232  0.62669064  0.63827375  1
  O  O295  1  0.88251456  0.12186918  0.11691941  1
  O  O296  1  0.88792378  0.10422127  0.64104009  1
  O  O297  1  0.87531759  0.63806742  0.12722306  1
  O  O298  1  0.89364352  0.61968685  0.63861878  1
  O  O299  1  0.25633523  0.25416244  0.11795663  1
  O  O300  1  0.25721851  0.24492105  0.61561386  1
  O  O301  1  0.25524162  0.75780238  0.12198475  1
  O  O302  1  0.25253221  0.76338787  0.62331045  1
  O  O303  1  0.74376372  0.26185985  0.12271700  1
  O  O304  1  0.74690047  0.23922289  0.58737484  1
  O  O305  1  0.76005451  0.75919727  0.11571610  1
  O  O306  1  0.75079927  0.76496335  0.62847973  1
  O  O307  1  0.24458886  0.24618999  0.38031547  1
  O  O308  1  0.23805857  0.24618113  0.88068816  1
  O  O309  1  0.25390841  0.73341166  0.36933754  1
  O  O310  1  0.24323386  0.74082253  0.88073551  1
  O  O311  1  0.73548642  0.23583024  0.36504737  1
  O  O312  1  0.74514862  0.25480770  0.89814162  1
  O  O313  1  0.75613467  0.73566813  0.38931802  1
  O  O314  1  0.74197706  0.74284760  0.88243011  1
  O  O315  1  0.01171401  0.11685852  -0.00705301  1
  O  O316  1  0.00525429  0.10803191  0.48832615  1
  O  O317  1  0.01104943  0.61281518  -0.00460571  1
  O  O318  1  -0.00705775  0.63531539  0.50825876  1
  O  O319  1  0.50447634  0.12075314  0.00620915  1
  O  O320  1  0.50601913  0.11929833  0.50597835  1
  O  O321  1  0.49436104  0.61409079  0.01083096  1
  O  O322  1  0.48787604  0.61654378  0.49560312  1
  O  O323  1  0.49406281  0.37997663  0.48586329  1
  O  O324  1  0.49708324  0.37963166  0.99562686  1
  O  O325  1  0.49085187  0.88078177  0.49420125  1
  O  O326  1  0.49959935  0.88183154  0.99428739  1
  O  O327  1  1.01082531  0.38441123  0.47488287  1
  O  O328  1  0.99551537  0.37934402  0.99732351  1
  O  O329  1  0.99253536  0.88348292  0.48885191  1
  O  O330  1  0.98942372  0.88323533  0.99827290  1
  O  O331  1  0.48827225  0.49410121  0.37862748  1
  O  O332  1  0.50061987  0.49243493  0.88578475  1
  O  O333  1  0.49297076  0.99182699  0.38053717  1
  O  O334  1  0.50567599  0.98589417  0.88249690  1
  O  O335  1  0.99915940  0.49092877  0.35456733  1
  O  O336  1  1.00258675  0.48602961  0.88755199  1
  O  O337  1  0.99280260  0.99346783  0.37419575  1
  O  O338  1  0.99870049  0.99659130  0.88882367  1
  O  O339  1  0.00893318  -0.00882884  0.11421990  1
  O  O340  1  0.01239513  -0.00519112  0.61044502  1
  O  O341  1  0.00302986  0.49176884  0.11535349  1
  O  O342  1  0.01422095  0.51649728  0.62733067  1
  O  O343  1  0.49529421  0.01053468  0.11859497  1
  O  O344  1  0.50603522  0.00554522  0.62135302  1
  O  O345  1  0.50600652  0.50397465  0.12074141  1
  O  O346  1  0.50058106  0.49560684  0.60363803  1
  O  O347  1  0.24629573  0.38093348  0.24401446  1
  O  O348  1  0.24080954  0.38586674  0.75724937  1
  O  O349  1  0.25404392  0.88165868  0.23804166  1
  O  O350  1  0.24162334  0.87208087  0.74144828  1
  O  O351  1  0.75283142  0.38556065  0.24794869  1
  O  O352  1  0.77881206  0.29410262  0.72910332  1
  O  O353  1  0.74483484  0.87900324  0.24498267  1
  O  O354  1  0.74073987  0.87845602  0.74540681  1
  O  O355  1  0.25547511  0.11962048  0.25532275  1
  O  O356  1  0.25768766  0.12830023  0.76052189  1
  O  O357  1  0.25381018  0.61666925  0.25606936  1
  O  O358  1  0.25530973  0.61748511  0.75726698  1
  O  O359  1  0.75060543  0.11465514  0.25592916  1
  O  O360  1  0.74026694  0.11077762  0.75057354  1
  O  O361  1  0.76821478  0.61178378  0.23957883  1
  O  O362  1  0.76831224  0.63320816  0.76031124  1
  O  O363  1  0.37070807  0.11979488  0.37013019  1
  O  O364  1  0.36310675  0.13183143  0.86703425  1
  O  O365  1  0.36540438  0.61588194  0.36689808  1
  O  O366  1  0.36279087  0.62209686  0.86778489  1
  O  O367  1  0.86452738  0.11737209  0.37648515  1
  O  O368  1  0.86447758  0.13171037  0.86820474  1
  O  O369  1  0.88963533  0.61188537  0.35572238  1
  O  O370  1  0.87042070  0.62536848  0.86802656  1
  O  O371  1  0.13570840  0.36647554  0.13368689  1
  O  O372  1  0.11136784  0.38955902  0.63508331  1
  O  O373  1  0.13627465  0.88597980  0.11697135  1
  O  O374  1  0.13207680  0.88191507  0.63460034  1
  O  O375  1  0.63380036  0.38390413  0.13120602  1
  O  O376  1  0.63134503  0.40130142  0.59318902  1
  O  O377  1  0.63582998  0.86972009  0.13335588  1
  O  O378  1  0.62938080  0.88110980  0.62987644  1
  O  O379  1  0.12701228  0.25723868  0.25901898  1
  O  O380  1  0.13242589  0.26259144  0.75822760  1
  O  O381  1  0.10967164  0.75206576  0.23891070  1
  O  O382  1  0.12816309  0.75513076  0.76213343  1
  O  O383  1  0.61556332  0.24941222  0.26205831  1
  O  O384  1  0.60863027  0.24559878  0.74433470  1
  O  O385  1  0.62111675  0.76889044  0.25625369  1
  O  O386  1  0.61664701  0.75182181  0.75772233  1
  O  O387  1  0.37856793  0.24330762  0.24471254  1
  O  O388  1  0.37913878  0.24133911  0.74288534  1
  O  O389  1  0.37873482  0.74428542  0.24049159  1
  O  O390  1  0.38130002  0.74065856  0.75000431  1
  O  O391  1  0.88809584  0.25432810  0.25321462  1
  O  O392  1  0.86406093  0.26869324  0.72901679  1
  O  O393  1  0.87766878  0.74291291  0.24032054  1
  O  O394  1  0.88174553  0.74042509  0.74803131  1
  O  O395  1  0.37898685  0.49811390  0.48977641  1
  O  O396  1  0.38755570  0.49228946  0.99965129  1
  O  O397  1  0.37840932  0.99357905  0.49614750  1
  O  O398  1  0.39052037  1.00177717  1.00099654  1
  O  O399  1  0.89084826  0.50855141  0.47290326  1
  O  O400  1  0.88539219  0.48950884  1.00140767  1
  O  O401  1  0.88597166  0.99107921  0.48579205  1
  O  O402  1  0.87867947  0.99169195  0.99511566  1
  O  O403  1  0.11647058  0.00640838  0.00749037  1
  O  O404  1  0.11900854  -0.00032178  0.50831791  1
  O  O405  1  0.11932841  0.50763011  -0.00355674  1
  O  O406  1  0.13356150  0.49568184  0.51571812  1
  O  O407  1  0.61057913  0.00972792  0.00112974  1
  O  O408  1  0.61880820  0.00963344  0.50504657  1
  O  O409  1  0.61403958  0.49576541  0.01473325  1
  O  O410  1  0.60675648  0.51367363  0.47834616  1
  O  O411  1  0.37198903  0.36746142  0.11892294  1
  O  O412  1  0.37953636  0.36183743  0.62746856  1
  O  O413  1  0.36531048  0.87046211  0.12107935  1
  O  O414  1  0.36710660  0.87842727  0.61803578  1
  O  O415  1  0.86451888  0.37957440  0.11991885  1
  O  O416  1  0.87062349  0.41975006  0.60196824  1
  O  O417  1  0.86449705  0.86899976  0.11387461  1
  O  O418  1  0.86467807  0.88570728  0.61562545  1
  O  O419  1  0.13121144  0.13686439  0.37483176  1
  O  O420  1  0.13237164  0.13202087  0.88220780  1
  O  O421  1  0.13591916  0.62049697  0.36932711  1
  O  O422  1  0.13575521  0.63118097  0.87883309  1
  O  O423  1  0.62854079  0.12846396  0.38185431  1
  O  O424  1  0.62396297  0.12483785  0.88837882  1
  O  O425  1  0.63710881  0.63365849  0.34108509  1
  O  O426  1  0.63444740  0.63528685  0.86587410  1
