# generated using pymatgen
data_V85Zn86O256
_symmetry_space_group_name_H-M   'P 1'
_cell_length_a   17.01439099
_cell_length_b   17.00223471
_cell_length_c   16.99946520
_cell_angle_alpha   90.17933773
_cell_angle_beta   90.16327093
_cell_angle_gamma   89.87388906
_symmetry_Int_Tables_number   1
_chemical_formula_structural   V85Zn86O256
_chemical_formula_sum   'V85 Zn86 O256'
_cell_volume   4917.59479433
_cell_formula_units_Z   1
loop_
 _symmetry_equiv_pos_site_id
 _symmetry_equiv_pos_as_xyz
  1  'x, y, z'
loop_
 _atom_site_type_symbol
 _atom_site_label
 _atom_site_symmetry_multiplicity
 _atom_site_fract_x
 _atom_site_fract_y
 _atom_site_fract_z
 _atom_site_occupancy
  V  V0  1  0.75315515  0.50917867  0.75584888  1
  V  V1  1  0.12190016  0.75686063  0.87444059  1
  V  V2  1  0.88080827  0.13088242  0.76054586  1
  V  V3  1  -0.00186414  0.50344150  0.00718531  1
  V  V4  1  0.13034572  0.74452099  0.38629191  1
  V  V5  1  0.37078547  0.86400867  0.49945111  1
  V  V6  1  0.00365292  0.74318911  0.24488323  1
  V  V7  1  0.63725193  0.13064959  0.51115019  1
  V  V8  1  0.37426576  0.47846066  0.87894416  1
  V  V9  1  0.37396659  0.12431982  0.74349053  1
  V  V10  1  0.76000344  0.00238873  0.75739261  1
  V  V11  1  0.37996734  -0.00014650  0.87641009  1
  V  V12  1  0.12063679  0.52249154  0.62629963  1
  V  V13  1  0.49981914  0.24818348  0.25027054  1
  V  V14  1  0.63135625  0.37174378  0.75501422  1
  V  V15  1  0.49957748  0.74476201  0.24142461  1
  V  V16  1  0.00224281  0.87396868  0.36982862  1
  V  V17  1  0.87965306  0.49530996  0.38272849  1
  V  V18  1  0.24580364  0.50334679  0.75112933  1
  V  V19  1  0.62543144  0.75027664  0.37393253  1
  V  V20  1  0.62423955  0.37130232  0.25595999  1
  V  V21  1  0.61866596  0.00424932  0.12084338  1
  V  V22  1  0.87901487  0.73992127  0.62264733  1
  V  V23  1  0.75009845  0.12068135  0.37310331  1
  V  V24  1  0.37537396  -0.00489565  0.37247307  1
  V  V25  1  0.50188611  -0.00268203  0.49952544  1
  V  V26  1  0.87199227  0.74671367  0.12540122  1
  V  V27  1  0.75114486  0.62444918  0.37878105  1
  V  V28  1  0.25044706  0.50172292  0.25090604  1
  V  V29  1  0.24181823  -0.00228945  0.74412795  1
  V  V30  1  0.74985407  0.87286136  0.12394456  1
  V  V31  1  0.61817633  0.87162180  0.75745160  1
  V  V32  1  0.00501841  0.37341320  0.39504564  1
  V  V33  1  0.62311543  0.12491870  -0.01608283  1
  V  V34  1  0.24630251  0.87112185  0.62074353  1
  V  V35  1  0.74602073  0.74406919  -0.00314988  1
  V  V36  1  0.00121652  0.25326684  0.25289174  1
  V  V37  1  0.11398365  0.37355222  0.74662731  1
  V  V38  1  0.00989345  0.12341935  0.12530545  1
  V  V39  1  0.13219001  0.24788943  0.37948662  1
  V  V40  1  0.24831961  0.13109170  0.87266707  1
  V  V41  1  0.25242398  0.12461067  0.37684264  1
  V  V42  1  0.24922445  0.62492109  0.38925508  1
  V  V43  1  0.37583141  0.25265792  0.11543424  1
  V  V44  1  0.75291000  0.87684949  0.62081378  1
  V  V45  1  0.49971997  0.87238519  0.37453107  1
  V  V46  1  0.38238908  0.49612207  0.37471555  1
  V  V47  1  0.11317801  0.25170620  0.87345302  1
  V  V48  1  0.12041785  0.87689829  0.74979994  1
  V  V49  1  0.88010143  0.62150216  0.24826147  1
  V  V50  1  0.49626848  0.13118111  0.62912822  1
  V  V51  1  0.87988147  0.11960313  0.25012837  1
  V  V52  1  0.75080199  0.49524178  0.25281671  1
  V  V53  1  0.37641258  0.12332783  0.24768398  1
  V  V54  1  0.50306747  0.49578043  0.49838264  1
  V  V55  1  0.25078945  0.75155954  0.00109046  1
  V  V56  1  0.62354812  0.62649151  0.49910512  1
  V  V57  1  0.11774279  0.62575413  0.00245740  1
  V  V58  1  0.25459373  0.37527197  0.11785873  1
  V  V59  1  0.87696856  0.87691099  0.49792206  1
  V  V60  1  0.87297930  0.37565765  -0.00102566  1
  V  V61  1  0.37890977  0.74151666  0.63407097  1
  V  V62  1  0.62225300  0.87598005  0.24881046  1
  V  V63  1  0.87172877  0.52549185  0.88327508  1
  V  V64  1  0.00271228  0.52165393  0.50707406  1
  V  V65  1  0.24851917  0.87646132  0.12396025  1
  V  V66  1  0.62212456  -0.00402695  0.62595054  1
  V  V67  1  0.63780067  0.49653777  0.62425072  1
  V  V68  1  0.61578800  0.61892920  0.01335368  1
  V  V69  1  0.12328754  0.50352268  0.12605408  1
  V  V70  1  0.62184371  0.73164567  0.86738864  1
  V  V71  1  0.37946058  0.62376822  0.24072968  1
  V  V72  1  0.00393445  -0.00286250  0.50541289  1
  V  V73  1  0.74882931  0.37206609  0.13102066  1
  V  V74  1  0.13023842  0.12730875  0.00464345  1
  V  V75  1  0.24555192  -0.00114694  0.24443659  1
  V  V76  1  0.25395563  0.62686597  0.87621547  1
  V  V77  1  0.38177247  0.87914813  -0.00104903  1
  V  V78  1  0.13141662  0.11606156  0.50379417  1
  V  V79  1  0.74700100  0.24520379  -0.01180836  1
  V  V80  1  0.12755033  0.87272996  0.24722289  1
  V  V81  1  0.00294378  0.12569568  0.62927059  1
  V  V82  1  0.87790040  -0.00254238  0.37139869  1
  V  V83  1  0.62478476  0.24604107  0.37868014  1
  V  V84  1  0.00077616  0.74627182  0.74429786  1
  Zn  Zn85  1  0.12435930  0.37643591  0.25106488  1
  Zn  Zn86  1  0.51094952  0.63100949  0.63905202  1
  Zn  Zn87  1  0.49688450  0.12145516  0.11272713  1
  Zn  Zn88  1  0.74938039  -0.00214211  0.24506768  1
  Zn  Zn89  1  -0.00484236  0.37682283  0.87679624  1
  Zn  Zn90  1  -0.08580878  0.92908454  0.93175065  1
  Zn  Zn91  1  0.03476174  -0.01478499  0.01014898  1
  Zn  Zn92  1  0.49722815  0.87176771  0.87322756  1
  Zn  Zn93  1  0.48138451  0.48754120  0.01567682  1
  Zn  Zn94  1  0.44880940  0.33300164  0.42699781  1
  Zn  Zn95  1  0.46143753  0.28452793  0.73496573  1
  Zn  Zn96  1  0.61365674  0.49891703  0.13118606  1
  Zn  Zn97  1  0.25923799  0.26040464  -0.01332087  1
  Zn  Zn98  1  0.75202034  0.75155704  0.49849368  1
  Zn  Zn99  1  0.51674931  0.35528369  0.88962271  1
  Zn  Zn100  1  0.31827727  0.31424539  0.55423512  1
  Zn  Zn101  1  0.87184155  0.63297999  0.75166996  1
  Zn  Zn102  1  -0.07134897  0.28703228  0.65996524  1
  Zn  Zn103  1  0.77526281  0.26957215  0.52544552  1
  Zn  Zn104  1  0.38462867  0.62825954  0.75864577  1
  Zn  Zn105  1  0.87607112  0.25074766  0.12702316  1
  Zn  Zn106  1  0.38022330  0.74656631  0.11897056  1
  Zn  Zn107  1  0.19206691  0.19181177  0.19110105  1
  Zn  Zn108  1  0.18864192  0.18295760  0.68537346  1
  Zn  Zn109  1  0.19260935  0.68751837  0.18877937  1
  Zn  Zn110  1  0.19454403  0.69299519  0.68619458  1
  Zn  Zn111  1  0.68912537  0.18658904  0.18487038  1
  Zn  Zn112  1  0.69173528  0.18553493  0.69253159  1
  Zn  Zn113  1  0.68833344  0.68532146  0.19077453  1
  Zn  Zn114  1  0.69339746  0.68701209  0.68348735  1
  Zn  Zn115  1  0.31061287  0.31250913  0.30555953  1
  Zn  Zn116  1  0.29342706  0.31998525  0.71028321  1
  Zn  Zn117  1  0.31219590  0.80628196  0.31219967  1
  Zn  Zn118  1  0.30913200  0.81390900  0.81206879  1
  Zn  Zn119  1  0.83336642  0.29175291  0.35706533  1
  Zn  Zn120  1  0.81004137  0.31833439  0.80893008  1
  Zn  Zn121  1  0.81232593  0.81195673  0.30878912  1
  Zn  Zn122  1  0.80380896  0.81388923  0.80883356  1
  Zn  Zn123  1  0.18731546  0.43404098  0.43998609  1
  Zn  Zn124  1  0.18691121  0.43655650  0.93420917  1
  Zn  Zn125  1  0.18889757  0.93478675  0.43246270  1
  Zn  Zn126  1  0.19518923  0.94123090  0.93433950  1
  Zn  Zn127  1  0.68648375  0.43437377  0.43662063  1
  Zn  Zn128  1  0.69173702  0.44012341  0.93757897  1
  Zn  Zn129  1  0.68934182  0.94186029  0.43458587  1
  Zn  Zn130  1  0.73413216  0.96160251  0.96257477  1
  Zn  Zn131  1  0.31060806  0.06509432  0.05972241  1
  Zn  Zn132  1  0.31378350  0.05377665  0.56068751  1
  Zn  Zn133  1  0.30898958  0.56158398  0.05966458  1
  Zn  Zn134  1  0.29707044  0.51132127  0.54748572  1
  Zn  Zn135  1  0.81870556  0.06681271  0.06714877  1
  Zn  Zn136  1  0.80276774  0.08893255  0.57900117  1
  Zn  Zn137  1  0.80314512  0.56302845  0.06516994  1
  Zn  Zn138  1  0.81823582  0.43964165  0.56735747  1
  Zn  Zn139  1  0.43974152  0.43374666  0.18845185  1
  Zn  Zn140  1  0.44266729  0.44930271  0.68563181  1
  Zn  Zn141  1  0.43801146  0.93582074  0.18413190  1
  Zn  Zn142  1  0.43243821  0.93704664  0.68583841  1
  Zn  Zn143  1  0.93778278  0.43500265  0.19066741  1
  Zn  Zn144  1  0.94202275  0.45711003  0.69575250  1
  Zn  Zn145  1  0.95475118  0.92058555  0.15409069  1
  Zn  Zn146  1  0.93935684  0.93676869  0.68757194  1
  Zn  Zn147  1  0.06494235  0.06139125  0.31280538  1
  Zn  Zn148  1  0.05334727  0.05425297  0.82581887  1
  Zn  Zn149  1  0.06561812  0.56298139  0.31764778  1
  Zn  Zn150  1  0.05822352  0.56708738  0.81961981  1
  Zn  Zn151  1  0.56223111  0.06179315  0.31072063  1
  Zn  Zn152  1  0.56178599  0.06069507  0.80978753  1
  Zn  Zn153  1  0.56230156  0.56136354  0.31109567  1
  Zn  Zn154  1  0.55561223  0.54881461  0.81291411  1
  Zn  Zn155  1  0.43876104  0.17201252  0.44284672  1
  Zn  Zn156  1  0.44265187  0.19359212  0.92359609  1
  Zn  Zn157  1  0.43620864  0.68319198  0.43314511  1
  Zn  Zn158  1  0.44245634  0.68975564  0.93829467  1
  Zn  Zn159  1  0.94504426  0.18310312  0.44372192  1
  Zn  Zn160  1  0.93763233  0.18435156  0.94362875  1
  Zn  Zn161  1  0.93683702  0.69296905  0.43363591  1
  Zn  Zn162  1  0.91907932  0.73466076  0.92137211  1
  Zn  Zn163  1  0.06594417  0.31279792  0.06260264  1
  Zn  Zn164  1  0.12079440  0.29523867  0.58195474  1
  Zn  Zn165  1  0.06164836  0.80856834  0.06278808  1
  Zn  Zn166  1  0.06245318  0.81249286  0.56432284  1
  Zn  Zn167  1  0.56389106  0.30844719  0.06540524  1
  Zn  Zn168  1  0.56879570  0.31409884  0.57014104  1
  Zn  Zn169  1  0.56666455  0.81296991  0.05853504  1
  Zn  Zn170  1  0.55988884  0.81036699  0.56286378  1
  O  O171  1  0.12236683  0.14031252  0.11580674  1
  O  O172  1  0.12203798  0.11992319  0.61220386  1
  O  O173  1  0.13606375  0.61284023  0.11579634  1
  O  O174  1  0.12323182  0.62111613  0.63022957  1
  O  O175  1  0.62348044  0.11674819  0.12113730  1
  O  O176  1  0.61279757  0.10889310  0.63104343  1
  O  O177  1  0.62426837  0.62383416  0.11695709  1
  O  O178  1  0.62912977  0.62116032  0.61262500  1
  O  O179  1  0.37491206  0.39164417  0.36122865  1
  O  O180  1  0.35973691  0.38336586  0.87422613  1
  O  O181  1  0.37849835  0.87555374  0.38094479  1
  O  O182  1  0.37232986  0.88183895  0.88114996  1
  O  O183  1  0.89079816  0.39146709  0.36743016  1
  O  O184  1  0.87419170  0.38268062  0.89093144  1
  O  O185  1  0.88219063  0.87713056  0.37632504  1
  O  O186  1  0.87489820  0.83497555  0.89006851  1
  O  O187  1  0.25710439  0.00203926  0.36327492  1
  O  O188  1  0.25744761  0.01035719  0.86384281  1
  O  O189  1  0.25556260  0.50573763  0.36443125  1
  O  O190  1  0.25274302  0.51037114  0.87169779  1
  O  O191  1  0.75863060  0.00077875  0.36200167  1
  O  O192  1  0.74334655  -0.00798066  0.85310392  1
  O  O193  1  0.76152369  0.50515672  0.37299444  1
  O  O194  1  0.76454694  0.50297166  0.87188089  1
  O  O195  1  0.24455901  0.49384840  0.13160038  1
  O  O196  1  0.23137423  0.51056981  0.64089350  1
  O  O197  1  0.25688991  0.99126042  0.13578863  1
  O  O198  1  0.25507122  0.98713271  0.63635184  1
  O  O199  1  0.74501683  0.48777483  0.13374451  1
  O  O200  1  0.74357062  0.50424152  0.63488012  1
  O  O201  1  0.74083556  0.98871073  0.12831059  1
  O  O202  1  0.74111864  0.99449590  0.63104307  1
  O  O203  1  0.00346561  0.36553525  0.25762095  1
  O  O204  1  0.00954508  0.38485785  0.75993947  1
  O  O205  1  0.00753785  0.86468190  0.24984128  1
  O  O206  1  0.01359064  0.86846731  0.74528889  1
  O  O207  1  0.51135343  0.35919680  0.24735068  1
  O  O208  1  0.52404795  0.38433118  0.74631053  1
  O  O209  1  0.50271444  0.86626036  0.25583004  1
  O  O210  1  0.51620161  0.87898661  0.74562922  1
  O  O211  1  0.49447932  0.13381558  0.24836881  1
  O  O212  1  0.48650725  0.11392992  0.74079277  1
  O  O213  1  0.49153776  0.63411801  0.25591564  1
  O  O214  1  0.49532956  0.61680606  0.74889046  1
  O  O215  1  0.99925592  0.13358447  0.24701229  1
  O  O216  1  0.99028756  0.11042464  0.74334956  1
  O  O217  1  0.99016712  0.63052145  0.25920137  1
  O  O218  1  0.99816514  0.64264550  0.75431008  1
  O  O219  1  0.37691022  0.24352111  0.01213468  1
  O  O220  1  0.38448216  0.25936245  0.48339162  1
  O  O221  1  0.36852639  0.75919796  -0.00102068  1
  O  O222  1  0.37865960  0.76039539  0.50349962  1
  O  O223  1  0.86598863  0.25828924  0.00330740  1
  O  O224  1  0.86819436  0.25765323  0.46408778  1
  O  O225  1  0.86283434  0.73388397  0.02104738  1
  O  O226  1  0.87517216  0.75954341  0.50459714  1
  O  O227  1  0.12514283  0.23300482  0.48678579  1
  O  O228  1  0.13186962  0.24610243  0.98975481  1
  O  O229  1  0.11961392  0.75415036  0.48462603  1
  O  O230  1  0.12851298  0.74509778  0.99418100  1
  O  O231  1  0.61711070  0.24459651  0.48743512  1
  O  O232  1  0.63923740  0.23905191  1.00391461  1
  O  O233  1  0.62718363  0.74293097  0.49320745  1
  O  O234  1  0.62650090  0.73695432  0.99156419  1
  O  O235  1  0.49230068  0.24566241  0.13409822  1
  O  O236  1  0.51035448  0.23390035  0.63269561  1
  O  O237  1  0.49994523  0.75644421  0.13802339  1
  O  O238  1  0.48481470  0.74737428  0.62040905  1
  O  O239  1  0.99958542  0.24647240  0.13714530  1
  O  O240  1  1.01870754  0.23177979  0.62471361  1
  O  O241  1  0.99009150  0.74775925  0.13885161  1
  O  O242  1  0.99115098  0.75805673  0.63347660  1
  O  O243  1  0.01275585  0.25551704  0.37049399  1
  O  O244  1  0.01034711  0.25152688  0.88023213  1
  O  O245  1  0.00796754  0.75420901  0.36313534  1
  O  O246  1  0.01785656  0.75028664  0.86612830  1
  O  O247  1  0.50871093  0.24486800  0.36543407  1
  O  O248  1  0.48729341  0.25748305  0.84549852  1
  O  O249  1  0.50585699  0.75409317  0.36606464  1
  O  O250  1  0.51898837  0.75484920  0.87800739  1
  O  O251  1  0.24148932  0.10931458  0.49115922  1
  O  O252  1  0.24730767  0.13391482  0.98911611  1
  O  O253  1  0.25825632  0.60878109  0.48627876  1
  O  O254  1  0.23952733  0.63151523  0.99366383  1
  O  O255  1  0.74821168  0.09998727  0.47553077  1
  O  O256  1  0.74712461  0.14126468  1.00522565  1
  O  O257  1  0.73996664  0.62728757  0.48474682  1
  O  O258  1  0.73568991  0.63687651  1.00571921  1
  O  O259  1  0.24572069  0.37524846  0.01318238  1
  O  O260  1  0.26330632  0.40594452  0.51408263  1
  O  O261  1  0.25633977  0.87095714  0.00680870  1
  O  O262  1  0.26002688  0.88432003  0.50833984  1
  O  O263  1  0.75414520  0.36705177  0.00973946  1
  O  O264  1  0.75157191  0.37588233  0.50384671  1
  O  O265  1  0.73689414  0.85610465  0.01645726  1
  O  O266  1  0.75567798  0.87746061  0.50703890  1
  O  O267  1  0.13296350  0.50272136  0.24236431  1
  O  O268  1  0.12220650  0.50201500  0.74439175  1
  O  O269  1  0.13881616  0.99114155  0.25622554  1
  O  O270  1  0.13398502  0.99016353  0.75975453  1
  O  O271  1  0.63163361  0.48750875  0.25548078  1
  O  O272  1  0.63591734  0.49908080  0.74215696  1
  O  O273  1  0.62461864  0.99351839  0.24055313  1
  O  O274  1  0.63289953  0.99005873  0.74184716  1
  O  O275  1  0.36856211  0.00245394  0.25350924  1
  O  O276  1  0.36231800  0.00298010  0.75594882  1
  O  O277  1  0.36940924  0.50680923  0.25481701  1
  O  O278  1  0.36028907  0.50287738  0.76248915  1
  O  O279  1  0.88226274  0.01233333  0.25172497  1
  O  O280  1  0.86474964  0.00175177  0.74829618  1
  O  O281  1  0.87375606  0.50614505  0.25910676  1
  O  O282  1  0.87252828  0.51345252  0.76700974  1
  O  O283  1  0.12150015  0.36636239  0.37458169  1
  O  O284  1  0.11913782  0.36913517  0.87077168  1
  O  O285  1  0.12272492  0.86432338  0.36567626  1
  O  O286  1  0.13893449  0.86489222  0.86498931  1
  O  O287  1  0.63199228  0.36110936  0.36388305  1
  O  O288  1  0.62915157  0.38607033  0.85923134  1
  O  O289  1  0.61974536  0.87081119  0.37037427  1
  O  O290  1  0.62333522  0.87369593  0.85840159  1
  O  O291  1  0.37606017  0.13236100  0.12971494  1
  O  O292  1  0.38615780  0.11093392  0.62953952  1
  O  O293  1  0.36755377  0.62591788  0.13685886  1
  O  O294  1  0.36954136  0.64148010  0.62638852  1
  O  O295  1  0.88709072  0.13081372  0.13469395  1
  O  O296  1  0.89258741  0.12628838  0.63559522  1
  O  O297  1  0.86368150  0.62936687  0.14280831  1
  O  O298  1  0.87066519  0.64241577  0.62409522  1
  O  O299  1  0.25994360  0.26030356  0.12805235  1
  O  O300  1  0.23122897  0.26717394  0.62336980  1
  O  O301  1  0.25516374  0.75905317  0.11990775  1
  O  O302  1  0.26236528  0.76279537  0.62563433  1
  O  O303  1  0.75485983  0.26061278  0.12257302  1
  O  O304  1  0.73074557  0.18835390  0.58666381  1
  O  O305  1  0.75308577  0.75337780  0.12292487  1
  O  O306  1  0.75838612  0.76312502  0.62205889  1
  O  O307  1  0.23989359  0.24173900  0.36297307  1
  O  O308  1  0.23782208  0.23531908  0.86880863  1
  O  O309  1  0.24218274  0.73803539  0.36964613  1
  O  O310  1  0.24108019  0.74405700  0.87964088  1
  O  O311  1  0.73501460  0.23318358  0.36972386  1
  O  O312  1  0.75366891  0.25593031  0.89029367  1
  O  O313  1  0.74531704  0.74112160  0.37358101  1
  O  O314  1  0.72987808  0.75424628  0.88538783  1
  O  O315  1  0.01389630  0.13111542  0.01180790  1
  O  O316  1  0.00967609  0.11439331  0.50677196  1
  O  O317  1  0.01430062  0.61753778  0.00091791  1
  O  O318  1  0.00237171  0.61884155  0.49301240  1
  O  O319  1  0.51904387  0.13565421  -0.00415746  1
  O  O320  1  0.51174451  0.11529443  0.51134521  1
  O  O321  1  0.51390816  0.62002606  -0.00373366  1
  O  O322  1  0.51560597  0.61951573  0.49410594  1
  O  O323  1  0.51505540  0.39049879  0.49999978  1
  O  O324  1  0.51885070  0.38158141  0.99726398  1
  O  O325  1  0.49263359  0.87820803  0.49377826  1
  O  O326  1  0.48493314  0.87031305  0.99840161  1
  O  O327  1  1.00874163  0.37820151  0.49293606  1
  O  O328  1  0.98979976  0.38491301  1.00346688  1
  O  O329  1  0.99794500  0.88057568  0.49167915  1
  O  O330  1  0.98648769  0.88780673  1.04193411  1
  O  O331  1  0.49313130  0.50375297  0.38147653  1
  O  O332  1  0.47938092  0.48791082  0.87510707  1
  O  O333  1  0.49558681  0.99268935  0.37895046  1
  O  O334  1  0.48302067  0.99588948  0.86683714  1
  O  O335  1  1.00145958  0.49493951  0.38890156  1
  O  O336  1  0.98964524  0.50227376  0.89161226  1
  O  O337  1  0.99673385  0.99246523  0.37838850  1
  O  O338  1  1.00488999  0.98838346  0.89998337  1
  O  O339  1  0.00703504  0.02124150  0.12899588  1
  O  O340  1  -0.00083646  0.00377934  0.61147834  1
  O  O341  1  0.01027950  0.49549375  0.11853678  1
  O  O342  1  0.00670794  0.51194993  0.61600965  1
  O  O343  1  0.51270159  0.00031051  0.12375604  1
  O  O344  1  0.50819238  -0.00147827  0.61934860  1
  O  O345  1  0.50126398  0.50093337  0.12683273  1
  O  O346  1  0.51245879  0.50941484  0.61248146  1
  O  O347  1  0.24687249  0.38835635  0.24114739  1
  O  O348  1  0.22571897  0.39581133  0.76114984  1
  O  O349  1  0.24932792  0.87974077  0.24296647  1
  O  O350  1  0.24194142  0.88028647  0.74212151  1
  O  O351  1  0.74395875  0.37735745  0.24512221  1
  O  O352  1  0.74441795  0.39576456  0.75435865  1
  O  O353  1  0.73900751  0.87106101  0.24083416  1
  O  O354  1  0.74269180  0.88404173  0.73784595  1
  O  O355  1  0.25557241  0.11551712  0.25448200  1
  O  O356  1  0.25063177  0.11357162  0.75288930  1
  O  O357  1  0.25902342  0.61450135  0.25363008  1
  O  O358  1  0.24726179  0.61990658  0.76253583  1
  O  O359  1  0.76187481  0.12310360  0.25544485  1
  O  O360  1  0.76591713  0.11094696  0.74438771  1
  O  O361  1  0.75632915  0.61767965  0.26182687  1
  O  O362  1  0.75237969  0.61571849  0.75023376  1
  O  O363  1  0.37134624  0.11420430  0.36810193  1
  O  O364  1  0.36610555  0.11744085  0.86615587  1
  O  O365  1  0.36794359  0.61630349  0.36367154  1
  O  O366  1  0.36046875  0.63088603  0.87759354  1
  O  O367  1  0.87075262  0.11621046  0.36671814  1
  O  O368  1  0.88502604  0.12562509  0.85954782  1
  O  O369  1  0.86973277  0.61680388  0.36898348  1
  O  O370  1  0.88060073  0.62678780  0.88293080  1
  O  O371  1  0.13374803  0.38654078  0.12740182  1
  O  O372  1  0.11320241  0.39037310  0.64416574  1
  O  O373  1  0.14148338  0.86825622  0.13067890  1
  O  O374  1  0.13591682  0.86758987  0.63520186  1
  O  O375  1  0.63492490  0.37047568  0.13992756  1
  O  O376  1  0.62836694  0.38989257  0.63361954  1
  O  O377  1  0.62974843  0.88179075  0.12876473  1
  O  O378  1  0.63303280  0.87867574  0.62890701  1
  O  O379  1  0.11669407  0.24950891  0.26077272  1
  O  O380  1  0.12615031  0.26763744  0.75651343  1
  O  O381  1  0.11818575  0.75142105  0.25288738  1
  O  O382  1  0.12109288  0.75717159  0.75534404  1
  O  O383  1  0.61829257  0.25045243  0.25692086  1
  O  O384  1  0.64504760  0.27257314  0.74311872  1
  O  O385  1  0.61706951  0.75364097  0.25474850  1
  O  O386  1  0.63438514  0.75883313  0.75889245  1
  O  O387  1  0.38307941  0.24352760  0.24386503  1
  O  O388  1  0.35701563  0.22466677  0.74373982  1
  O  O389  1  0.38362041  0.74058685  0.24860139  1
  O  O390  1  0.37221149  0.75170965  0.73838680  1
  O  O391  1  0.88866962  0.23833612  0.26019509  1
  O  O392  1  0.87101723  0.23648540  0.74971251  1
  O  O393  1  0.88282178  0.73937887  0.24752941  1
  O  O394  1  0.88274915  0.75327315  0.74023783  1
  O  O395  1  0.39389138  0.50796782  0.48780576  1
  O  O396  1  0.36855229  0.50389939  0.98340061  1
  O  O397  1  0.38305833  0.98808212  0.49213432  1
  O  O398  1  0.36421391  0.99110174  0.98799282  1
  O  O399  1  0.89326423  0.50130508  0.49312835  1
  O  O400  1  0.87845632  0.49854703  1.00060669  1
  O  O401  1  0.88882875  0.99390309  0.48974972  1
  O  O402  1  0.84046940  0.98828062  0.99376281  1
  O  O403  1  0.14354840  0.02143748  0.00053344  1
  O  O404  1  0.11404860  0.00513013  0.48755568  1
  O  O405  1  0.11819330  0.50576259  0.00576859  1
  O  O406  1  0.11331258  0.50159779  0.51672365  1
  O  O407  1  0.63991983  0.01797756  0.00775236  1
  O  O408  1  0.62272684  0.00391935  0.51040799  1
  O  O409  1  0.63386160  0.51684212  0.00171090  1
  O  O410  1  0.62372552  0.50887203  0.50356832  1
  O  O411  1  0.36550104  0.36432604  0.13256289  1
  O  O412  1  0.38549294  0.35625077  0.65299220  1
  O  O413  1  0.36579785  0.87404038  0.11583172  1
  O  O414  1  0.36842566  0.86747558  0.61714014  1
  O  O415  1  0.86699734  0.37617588  0.11689915  1
  O  O416  1  0.87936881  0.38161902  0.64101575  1
  O  O417  1  0.85884364  0.85740177  0.14068663  1
  O  O418  1  0.86644348  0.87411072  0.61788102  1
  O  O419  1  0.13135818  0.12952469  0.38144886  1
  O  O420  1  0.12907877  0.13204184  0.88108342  1
  O  O421  1  0.13714255  0.63277578  0.37029046  1
  O  O422  1  0.13365229  0.63317246  0.88424266  1
  O  O423  1  0.63103919  0.12723849  0.38149257  1
  O  O424  1  0.62751945  0.11777167  0.88477637  1
  O  O425  1  0.63336850  0.62905298  0.37801705  1
  O  O426  1  0.62173709  0.63130378  0.87730262  1
