# generated using pymatgen
data_V85Zn86O256
_symmetry_space_group_name_H-M   'P 1'
_cell_length_a   16.99011236
_cell_length_b   16.98843030
_cell_length_c   16.99828539
_cell_angle_alpha   90.06525563
_cell_angle_beta   89.95201179
_cell_angle_gamma   90.05582766
_symmetry_Int_Tables_number   1
_chemical_formula_structural   V85Zn86O256
_chemical_formula_sum   'V85 Zn86 O256'
_cell_volume   4906.29864761
_cell_formula_units_Z   1
loop_
 _symmetry_equiv_pos_site_id
 _symmetry_equiv_pos_as_xyz
  1  'x, y, z'
loop_
 _atom_site_type_symbol
 _atom_site_label
 _atom_site_symmetry_multiplicity
 _atom_site_fract_x
 _atom_site_fract_y
 _atom_site_fract_z
 _atom_site_occupancy
  V  V0  1  0.24709793  0.75131455  0.50603353  1
  V  V1  1  0.01154569  0.00266660  0.00559057  1
  V  V2  1  0.61235819  0.62508903  0.00320558  1
  V  V3  1  0.00996788  0.61935278  0.10614971  1
  V  V4  1  0.50025636  0.87309577  0.87530895  1
  V  V5  1  0.37934127  0.13467113  0.25337613  1
  V  V6  1  0.37020040  0.61839385  0.74997067  1
  V  V7  1  0.87556231  0.50535902  0.37266890  1
  V  V8  1  0.87869372  0.62799804  0.74435651  1
  V  V9  1  0.49509919  0.74080322  0.24954833  1
  V  V10  1  0.50172840  0.25148163  0.75170448  1
  V  V11  1  0.74999811  0.87557559  0.62430076  1
  V  V12  1  0.24681878  0.25145682  0.49939847  1
  V  V13  1  0.37250026  0.74355368  0.13122565  1
  V  V14  1  0.87425092  0.50091086  0.88011336  1
  V  V15  1  0.49942256  0.36672854  0.37284508  1
  V  V16  1  0.87936109  0.12671620  0.74769145  1
  V  V17  1  0.62596764  0.24838471  0.87479561  1
  V  V18  1  0.24824264  0.37848352  0.12308474  1
  V  V19  1  0.87260413  0.74419237  0.12682615  1
  V  V20  1  0.62485215  0.50142898  0.62359470  1
  V  V21  1  0.12109361  0.88077232  0.24646530  1
  V  V22  1  0.75013267  0.50598048  0.25162933  1
  V  V23  1  0.87174089  0.24066967  0.12672688  1
  V  V24  1  -0.00420074  0.87896109  0.37488959  1
  V  V25  1  0.24301118  0.87755477  0.12718001  1
  V  V26  1  0.12323714  0.49852525  0.63950748  1
  V  V27  1  0.00019091  0.74578185  0.74346561  1
  V  V28  1  0.24829175  0.50675868  0.25033854  1
  V  V29  1  0.00406189  0.10867940  0.62120239  1
  V  V30  1  0.11876592  0.11041647  0.49828012  1
  V  V31  1  0.24727971  0.12574058  0.37548508  1
  V  V32  1  0.87062811  0.01154927  0.37351717  1
  V  V33  1  0.49925270  0.62466790  0.62457399  1
  V  V34  1  0.37617561  0.25161221  0.62439781  1
  V  V35  1  0.37432307  0.37784185  0.50002439  1
  V  V36  1  0.75147204  0.01088354  0.25212994  1
  V  V37  1  0.74929071  0.87072960  0.12225272  1
  V  V38  1  0.74806265  0.24661593  0.49319966  1
  V  V39  1  0.62571426  0.62484286  0.49646737  1
  V  V40  1  0.11648945  0.25696153  0.37768696  1
  V  V41  1  0.62393602  0.87383278  0.24972754  1
  V  V42  1  0.74551724  0.37740132  0.12672725  1
  V  V43  1  0.38170333  0.37573267  0.00601376  1
  V  V44  1  0.74887800  0.24925315  -0.00442292  1
  V  V45  1  0.74823632  0.63619013  0.88268206  1
  V  V46  1  0.49982203  0.13249105  0.13090933  1
  V  V47  1  0.50610100  0.38251563  0.88196293  1
  V  V48  1  0.75261754  0.37560527  0.62553486  1
  V  V49  1  0.24745025  0.37998150  0.63462407  1
  V  V50  1  0.62566997  0.00057276  0.62606703  1
  V  V51  1  0.37308033  0.50694607  0.37204074  1
  V  V52  1  0.37248070  -0.00120964  0.37238050  1
  V  V53  1  -0.00649137  0.25116964  0.25159120  1
  V  V54  1  0.37065646  0.12337466  0.75054912  1
  V  V55  1  0.50227076  0.75065385  0.75055574  1
  V  V56  1  0.01883581  0.12163263  0.12805110  1
  V  V57  1  0.12837049  0.87584143  0.73757118  1
  V  V58  1  0.37939987  0.50274636  0.88223312  1
  V  V59  1  0.49740095  0.87391194  0.37412506  1
  V  V60  1  0.62534190  0.12475764  -0.00248957  1
  V  V61  1  -0.00617707  0.74037424  0.24972849  1
  V  V62  1  0.37127739  0.75143656  0.62587852  1
  V  V63  1  0.74856001  0.74984868  0.49862329  1
  V  V64  1  0.00182759  0.49831000  0.49815429  1
  V  V65  1  0.61993899  0.36954654  0.25302081  1
  V  V66  1  0.87182546  0.87158943  -0.00009808  1
  V  V67  1  0.87964201  0.37679375  0.49570402  1
  V  V68  1  0.11896530  0.62433178  0.50460666  1
  V  V69  1  0.12599313  0.74737745  0.87869259  1
  V  V70  1  0.50008461  0.00093448  0.00390616  1
  V  V71  1  0.37123780  0.87013942  0.00257436  1
  V  V72  1  0.25054337  0.62377182  0.87919604  1
  V  V73  1  0.00178091  0.87683958  0.87517532  1
  V  V74  1  0.12205659  0.74956358  0.37643841  1
  V  V75  1  0.74916940  0.50175224  0.74868541  1
  V  V76  1  0.88042892  0.38179423  0.00313135  1
  V  V77  1  0.87532694  0.00942229  0.87723596  1
  V  V78  1  0.36985759  0.87527591  0.50469539  1
  V  V79  1  0.50318196  0.12526723  0.62178504  1
  V  V80  1  0.87572039  0.87811249  0.49806549  1
  V  V81  1  0.24884148  -0.00848509  0.73299721  1
  V  V82  1  0.75147371  0.00428606  0.75505200  1
  V  V83  1  0.12103006  0.38045191  0.24897041  1
  V  V84  1  0.36682189  -0.00124383  0.87461077  1
  Zn  Zn85  1  0.24096260  0.00521744  0.24657062  1
  Zn  Zn86  1  0.88200363  0.25257821  0.62604682  1
  Zn  Zn87  1  0.23937974  0.74288288  0.00679188  1
  Zn  Zn88  1  0.02875462  0.26198878  0.74112542  1
  Zn  Zn89  1  0.62657556  0.37481100  0.75039954  1
  Zn  Zn90  1  0.62364763  0.23843731  0.36816519  1
  Zn  Zn91  1  0.49953836  0.50105103  0.49825473  1
  Zn  Zn92  1  0.87950876  0.74608352  0.62081784  1
  Zn  Zn93  1  0.37296901  0.25105150  0.12711599  1
  Zn  Zn94  1  0.63084477  0.75670387  0.88327773  1
  Zn  Zn95  1  0.50223142  -0.00189315  0.49922472  1
  Zn  Zn96  1  0.62300446  0.74850384  0.37322933  1
  Zn  Zn97  1  0.21443094  0.21885693  0.01154568  1
  Zn  Zn98  1  0.62737258  0.87535026  0.75194315  1
  Zn  Zn99  1  0.75376721  0.63018260  0.36631828  1
  Zn  Zn100  1  0.62547220  0.00011982  0.12577432  1
  Zn  Zn101  1  0.63583713  0.11881565  0.49286798  1
  Zn  Zn102  1  0.61336429  0.49467799  0.11553558  1
  Zn  Zn103  1  0.17189960  0.22345163  0.84884841  1
  Zn  Zn104  1  0.05309351  0.36683100  0.86310490  1
  Zn  Zn105  1  0.25135948  0.62820843  0.37175883  1
  Zn  Zn106  1  0.48653772  0.61545048  0.12383496  1
  Zn  Zn107  1  0.19143714  0.19504582  0.19455532  1
  Zn  Zn108  1  0.19261940  0.17681406  0.67334683  1
  Zn  Zn109  1  0.18034201  0.68944980  0.18672841  1
  Zn  Zn110  1  0.18457072  0.68391924  0.68967996  1
  Zn  Zn111  1  0.68448611  0.18863926  0.18364589  1
  Zn  Zn112  1  0.69254666  0.18906457  0.68651288  1
  Zn  Zn113  1  0.68347953  0.68882367  0.18332195  1
  Zn  Zn114  1  0.68892918  0.68734099  0.68641263  1
  Zn  Zn115  1  0.30736520  0.31678886  0.31430701  1
  Zn  Zn116  1  0.31139319  0.31908322  0.81724643  1
  Zn  Zn117  1  0.30834518  0.81125674  0.31343157  1
  Zn  Zn118  1  0.31053560  0.80960821  0.81169181  1
  Zn  Zn119  1  0.81260617  0.31772568  0.31243644  1
  Zn  Zn120  1  0.89814811  0.30763714  0.82343519  1
  Zn  Zn121  1  0.81087800  0.81452082  0.31022063  1
  Zn  Zn122  1  0.81637929  0.81727235  0.81059481  1
  Zn  Zn123  1  0.18809079  0.43844521  0.43818157  1
  Zn  Zn124  1  0.20408548  0.42114093  0.92512813  1
  Zn  Zn125  1  0.18889581  0.93332986  0.43354631  1
  Zn  Zn126  1  0.18722208  0.93430277  0.93307249  1
  Zn  Zn127  1  0.68859090  0.43617406  0.43508561  1
  Zn  Zn128  1  0.69041699  0.44127016  0.93690131  1
  Zn  Zn129  1  0.68753357  0.93810934  0.43518053  1
  Zn  Zn130  1  0.68842727  0.93940984  0.93665604  1
  Zn  Zn131  1  0.31398165  0.05769750  0.07181890  1
  Zn  Zn132  1  0.31182476  0.06421662  0.55912430  1
  Zn  Zn133  1  0.30734471  0.55689484  0.06062250  1
  Zn  Zn134  1  0.30592477  0.56365267  0.56261118  1
  Zn  Zn135  1  0.81176669  0.05979240  0.06121006  1
  Zn  Zn136  1  0.81592027  0.06152821  0.56420632  1
  Zn  Zn137  1  0.80685653  0.56360282  0.06510651  1
  Zn  Zn138  1  0.81343067  0.56310599  0.56078528  1
  Zn  Zn139  1  0.43572891  0.43913392  0.19197631  1
  Zn  Zn140  1  0.43936766  0.43775622  0.68966349  1
  Zn  Zn141  1  0.43458157  0.93647180  0.18836595  1
  Zn  Zn142  1  0.43801286  0.93699339  0.68656656  1
  Zn  Zn143  1  0.93660168  0.44052396  0.18756416  1
  Zn  Zn144  1  0.94104815  0.44297792  0.68799307  1
  Zn  Zn145  1  0.93498057  0.93890986  0.18861696  1
  Zn  Zn146  1  0.93871182  0.93451135  0.68830367  1
  Zn  Zn147  1  0.05618734  0.06654842  0.31341469  1
  Zn  Zn148  1  0.06751960  0.06429424  0.81060443  1
  Zn  Zn149  1  0.06153964  0.56221475  0.31682655  1
  Zn  Zn150  1  0.08072414  0.54101136  0.84746024  1
  Zn  Zn151  1  0.56206492  0.06080611  0.31401851  1
  Zn  Zn152  1  0.55826421  0.06363089  0.81327286  1
  Zn  Zn153  1  0.56228377  0.55405181  0.31138412  1
  Zn  Zn154  1  0.56443452  0.56567264  0.81246471  1
  Zn  Zn155  1  0.43735111  0.18646950  0.43862512  1
  Zn  Zn156  1  0.36003336  0.18282405  0.93778364  1
  Zn  Zn157  1  0.43790165  0.68930494  0.43800292  1
  Zn  Zn158  1  0.43609171  0.68913163  0.93856595  1
  Zn  Zn159  1  0.93710354  0.19032171  0.44265148  1
  Zn  Zn160  1  1.03851834  0.18977037  0.94001449  1
  Zn  Zn161  1  0.93802644  0.68646439  0.43789928  1
  Zn  Zn162  1  0.93701591  0.68889358  0.93311948  1
  Zn  Zn163  1  0.06143783  0.31946169  0.07110919  1
  Zn  Zn164  1  0.06190608  0.31087758  0.56864021  1
  Zn  Zn165  1  0.05599928  0.81150603  0.06332225  1
  Zn  Zn166  1  0.05963781  0.81611940  0.56083538  1
  Zn  Zn167  1  0.55992085  0.31176464  0.06241903  1
  Zn  Zn168  1  0.56432925  0.31448264  0.56086770  1
  Zn  Zn169  1  0.56243785  0.80569007  0.06425924  1
  Zn  Zn170  1  0.56051334  0.81346232  0.56291021  1
  O  O171  1  0.11774463  0.12735943  0.13100233  1
  O  O172  1  0.11318345  0.12062688  0.61242285  1
  O  O173  1  0.10960979  0.63313087  0.11816466  1
  O  O174  1  0.13206537  0.61042517  0.61523684  1
  O  O175  1  0.61590197  0.12133349  0.11794735  1
  O  O176  1  0.61897960  0.11737195  0.62337966  1
  O  O177  1  0.62368350  0.62611706  0.10923106  1
  O  O178  1  0.62036074  0.62185086  0.61590551  1
  O  O179  1  0.37892841  0.38073336  0.38329217  1
  O  O180  1  0.38589945  0.38559340  0.88404214  1
  O  O181  1  0.37627533  0.88126111  0.38219742  1
  O  O182  1  0.38155907  0.87807757  0.88295525  1
  O  O183  1  0.86833200  0.38768263  0.38886688  1
  O  O184  1  0.86139429  0.38527371  0.89611611  1
  O  O185  1  0.87914901  0.87932857  0.38075089  1
  O  O186  1  0.88068309  0.88315717  0.88249572  1
  O  O187  1  0.25823076  0.00594861  0.37314414  1
  O  O188  1  0.26454145  -0.00634838  0.86932927  1
  O  O189  1  0.25675729  0.50061943  0.36889226  1
  O  O190  1  0.26934255  0.51020759  0.87560791  1
  O  O191  1  0.75788284  -0.00390017  0.36249569  1
  O  O192  1  0.75975348  -0.00517976  0.86495213  1
  O  O193  1  0.75641914  0.50289922  0.36845062  1
  O  O194  1  0.75372309  0.51279921  0.86558370  1
  O  O195  1  0.25503770  0.49099272  0.13831625  1
  O  O196  1  0.23438772  0.49326027  0.61909013  1
  O  O197  1  0.25540335  0.98188809  0.13090305  1
  O  O198  1  0.25596777  0.99577342  0.63431421  1
  O  O199  1  0.74605601  0.49122132  0.13372105  1
  O  O200  1  0.74523473  0.49641726  0.62928778  1
  O  O201  1  0.75140320  0.98944274  0.13737152  1
  O  O202  1  0.74302747  0.99489144  0.63095519  1
  O  O203  1  0.00930171  0.36345577  0.23781020  1
  O  O204  1  -0.01798722  0.37043090  0.76185126  1
  O  O205  1  0.00306965  0.86719197  0.25541228  1
  O  O206  1  0.00731072  0.86951683  0.75601624  1
  O  O207  1  0.50839897  0.37750697  0.26145901  1
  O  O208  1  0.50292613  0.36903247  0.75821031  1
  O  O209  1  0.50699443  0.86900315  0.25279915  1
  O  O210  1  0.49827098  0.86791641  0.75896122  1
  O  O211  1  0.49088155  0.11602593  0.24174642  1
  O  O212  1  0.49364963  0.12842889  0.73822752  1
  O  O213  1  0.50859530  0.63960019  0.25234532  1
  O  O214  1  0.49268142  0.63419306  0.74599816  1
  O  O215  1  1.00123945  0.13647134  0.23811252  1
  O  O216  1  0.99344191  0.11852113  0.73539688  1
  O  O217  1  1.00431526  0.63897796  0.24925237  1
  O  O218  1  0.98606054  0.63824223  0.75987533  1
  O  O219  1  0.38804485  0.27244600  0.00571593  1
  O  O220  1  0.36876843  0.25874274  0.50385013  1
  O  O221  1  0.37544067  0.76091395  0.00837630  1
  O  O222  1  0.36620429  0.75595119  0.50434891  1
  O  O223  1  0.86092833  0.26762865  0.01140571  1
  O  O224  1  0.86632220  0.26072075  0.50205977  1
  O  O225  1  0.88006399  0.76613546  0.00612793  1
  O  O226  1  0.86624097  0.75812369  0.50012019  1
  O  O227  1  0.12671572  0.24539179  0.49190484  1
  O  O228  1  0.11491281  0.26020181  0.99472911  1
  O  O229  1  0.12828844  0.74528233  0.49864261  1
  O  O230  1  0.12213581  0.75989159  0.98269482  1
  O  O231  1  0.64108668  0.25156730  0.50108699  1
  O  O232  1  0.62844887  0.24284565  0.99575497  1
  O  O233  1  0.63191287  0.74387361  0.49925680  1
  O  O234  1  0.62244327  0.73498406  0.99696873  1
  O  O235  1  0.49817975  0.23567457  0.12376101  1
  O  O236  1  0.49741470  0.24444730  0.62969032  1
  O  O237  1  0.48886167  0.74659695  0.13363418  1
  O  O238  1  0.49302027  0.74546312  0.63276567  1
  O  O239  1  0.99249919  0.23757444  0.13143488  1
  O  O240  1  0.99756938  0.23893617  0.62972418  1
  O  O241  1  0.99100115  0.74117522  0.13091841  1
  O  O242  1  0.99847992  0.75494538  0.63860130  1
  O  O243  1  0.00544407  0.24360469  0.36475071  1
  O  O244  1  -0.00156775  0.26269054  0.86365679  1
  O  O245  1  -0.00022055  0.75894518  0.36793359  1
  O  O246  1  0.00667929  0.75670247  0.86574451  1
  O  O247  1  0.50006853  0.26371061  0.38283539  1
  O  O248  1  0.51428062  0.26509113  0.86916923  1
  O  O249  1  0.49858065  0.75713823  0.36636099  1
  O  O250  1  0.49769969  0.75961213  0.86727549  1
  O  O251  1  0.23986473  0.13117520  0.49616840  1
  O  O252  1  0.28025536  0.13173130  1.00132879  1
  O  O253  1  0.23930483  0.63519730  0.49634450  1
  O  O254  1  0.25474972  0.62740686  0.98507683  1
  O  O255  1  0.75477584  0.14353261  0.50957620  1
  O  O256  1  0.73494436  0.13334752  1.00977013  1
  O  O257  1  0.74162428  0.63497490  0.50152126  1
  O  O258  1  0.74886523  0.62856350  0.98443330  1
  O  O259  1  0.26508753  0.38530284  0.01433870  1
  O  O260  1  0.25834758  0.37075201  0.50593764  1
  O  O261  1  0.25796229  0.87313546  0.00764246  1
  O  O262  1  0.25822209  0.86410886  0.49481273  1
  O  O263  1  0.74498432  0.36805685  0.01290448  1
  O  O264  1  0.75703032  0.37045041  0.50830733  1
  O  O265  1  0.75860302  0.88522960  0.01132610  1
  O  O266  1  0.75533933  0.86708008  0.50220461  1
  O  O267  1  0.13118661  0.48691681  0.26395125  1
  O  O268  1  0.11557956  0.50689647  0.73651712  1
  O  O269  1  0.12159998  0.98519171  0.25885652  1
  O  O270  1  0.14312277  0.99242179  0.75405743  1
  O  O271  1  0.63571743  0.48545193  0.25299898  1
  O  O272  1  0.63476208  0.50368250  0.74283935  1
  O  O273  1  0.63442718  0.98957016  0.24965736  1
  O  O274  1  0.63237414  1.00177874  0.74335548  1
  O  O275  1  0.37209854  0.00534802  0.26203486  1
  O  O276  1  0.36687529  0.00054452  0.75430609  1
  O  O277  1  0.36113658  0.49392348  0.26337949  1
  O  O278  1  0.38271017  0.51359801  0.75844318  1
  O  O279  1  0.86052646  -0.00519361  0.26015539  1
  O  O280  1  0.86996735  0.00288456  0.75659104  1
  O  O281  1  0.86287184  0.48958644  0.26248468  1
  O  O282  1  0.86483054  0.50998391  0.75547656  1
  O  O283  1  0.12888583  0.36267139  0.36873111  1
  O  O284  1  0.16814058  0.34426722  0.84983447  1
  O  O285  1  0.11316134  0.86947887  0.37001514  1
  O  O286  1  0.12140246  0.86671072  0.86253153  1
  O  O287  1  0.61560653  0.37282948  0.37080992  1
  O  O288  1  0.62192654  0.37073417  0.87318467  1
  O  O289  1  0.61759849  0.87467605  0.36533787  1
  O  O290  1  0.61374420  0.87474048  0.87395494  1
  O  O291  1  0.38324234  0.12552041  0.13897651  1
  O  O292  1  0.38259949  0.12939930  0.63101197  1
  O  O293  1  0.36897154  0.64042026  0.11675082  1
  O  O294  1  0.37784420  0.62926962  0.63172886  1
  O  O295  1  0.87107052  0.13937218  0.12163074  1
  O  O296  1  0.88810548  0.12311134  0.62952430  1
  O  O297  1  0.87488948  0.64148211  0.11602399  1
  O  O298  1  0.86846678  0.62697440  0.63910427  1
  O  O299  1  0.25208431  0.26418716  0.12470695  1
  O  O300  1  0.25785588  0.25797936  0.61646529  1
  O  O301  1  0.25475160  0.75883628  0.12509896  1
  O  O302  1  0.25397112  0.74415597  0.61370725  1
  O  O303  1  0.75359456  0.25873411  0.12006775  1
  O  O304  1  0.75418987  0.26295081  0.61848641  1
  O  O305  1  0.75744612  0.76318644  0.13226491  1
  O  O306  1  0.75040306  0.75730586  0.61447754  1
  O  O307  1  0.23904676  0.24492279  0.37995584  1
  O  O308  1  0.27616395  0.24218261  0.88794090  1
  O  O309  1  0.24178879  0.74886271  0.38527524  1
  O  O310  1  0.24342185  0.74412808  0.87832118  1
  O  O311  1  0.75131687  0.25729978  0.39075917  1
  O  O312  1  0.73607952  0.25486772  0.89097985  1
  O  O313  1  0.74715323  0.74922139  0.38459217  1
  O  O314  1  0.74831574  0.73960372  0.86493612  1
  O  O315  1  -0.00092967  0.11663568  0.02044285  1
  O  O316  1  0.00473070  0.12739562  0.51173406  1
  O  O317  1  -0.00403626  0.62666545  0.00654858  1
  O  O318  1  0.00966747  0.61785836  0.50045910  1
  O  O319  1  0.50729919  0.11174501  0.01151673  1
  O  O320  1  0.49684890  0.12248775  0.51531140  1
  O  O321  1  0.50915025  0.62390862  -0.00189151  1
  O  O322  1  0.50927241  0.62636746  0.50627483  1
  O  O323  1  0.48944668  0.37765060  0.49475102  1
  O  O324  1  0.50056514  0.37951748  0.99020744  1
  O  O325  1  0.48799925  0.87374534  0.49299208  1
  O  O326  1  0.49331414  0.87981960  0.99530815  1
  O  O327  1  0.98926473  0.38313148  0.50573845  1
  O  O328  1  0.97808496  0.37790069  1.01403190  1
  O  O329  1  0.98848246  0.86961092  0.48698859  1
  O  O330  1  0.98937821  0.88377003  0.99831714  1
  O  O331  1  0.48940442  0.48955036  0.37758511  1
  O  O332  1  0.49454558  0.49168880  0.86710132  1
  O  O333  1  0.48807648  0.99208669  0.37766140  1
  O  O334  1  0.49268490  0.98912118  0.88192041  1
  O  O335  1  0.99047301  0.50238780  0.38739641  1
  O  O336  1  0.97061861  0.51563740  0.87093800  1
  O  O337  1  0.98167898  0.98940280  0.36352533  1
  O  O338  1  0.99345551  0.99468778  0.88418397  1
  O  O339  1  -0.00612858  0.01489274  0.12380433  1
  O  O340  1  -0.00260842  0.00914751  0.62268553  1
  O  O341  1  -0.01105771  0.52380822  0.13202749  1
  O  O342  1  0.01458928  0.49597877  0.61290580  1
  O  O343  1  0.49920084  0.00317074  0.11611292  1
  O  O344  1  0.50899299  0.00709974  0.62629341  1
  O  O345  1  0.50416819  0.50712021  0.13853949  1
  O  O346  1  0.50640887  0.50702581  0.62304597  1
  O  O347  1  0.24133991  0.38222226  0.24441494  1
  O  O348  1  0.26937303  0.37852940  0.73111135  1
  O  O349  1  0.23767549  0.87358895  0.24454303  1
  O  O350  1  0.24640642  0.88376778  0.74999308  1
  O  O351  1  0.74296654  0.38199006  0.24229106  1
  O  O352  1  0.75079434  0.39195917  0.73837173  1
  O  O353  1  0.73992235  0.87998367  0.24267677  1
  O  O354  1  0.74971041  0.88583336  0.74328959  1
  O  O355  1  0.25852852  0.12287815  0.25699058  1
  O  O356  1  0.26417318  0.10861226  0.74169996  1
  O  O357  1  0.23634695  0.61197680  0.25260183  1
  O  O358  1  0.26412575  0.63420310  0.76002120  1
  O  O359  1  0.74277979  0.10883581  0.24376878  1
  O  O360  1  0.76118016  0.10976877  0.73899326  1
  O  O361  1  0.73951711  0.61128636  0.24826570  1
  O  O362  1  0.75466183  0.61939466  0.75648817  1
  O  O363  1  0.37035158  0.11778060  0.37224234  1
  O  O364  1  0.39263150  0.10813917  0.85795729  1
  O  O365  1  0.37295331  0.61116896  0.38416977  1
  O  O366  1  0.37266349  0.62152654  0.86889448  1
  O  O367  1  0.87916073  0.10933930  0.38081303  1
  O  O368  1  0.88192347  0.10993880  0.86337652  1
  O  O369  1  0.87092577  0.61160993  0.38170022  1
  O  O370  1  0.86012612  0.62433167  0.86844708  1
  O  O371  1  0.13550496  0.37563821  0.13815996  1
  O  O372  1  0.13340003  0.38805423  0.62132806  1
  O  O373  1  0.13086831  0.86569985  0.13463875  1
  O  O374  1  0.12100818  0.87330598  0.63814203  1
  O  O375  1  0.63044466  0.37379495  0.13294064  1
  O  O376  1  0.63492392  0.38228079  0.62620420  1
  O  O377  1  0.63100427  0.87559807  0.13131643  1
  O  O378  1  0.62859331  0.88474819  0.62796146  1
  O  O379  1  0.11601566  0.25871417  0.25887126  1
  O  O380  1  0.13732306  0.23893134  0.74338024  1
  O  O381  1  0.11378204  0.76009596  0.25724893  1
  O  O382  1  0.11936458  0.75590772  0.75570870  1
  O  O383  1  0.63528161  0.26484859  0.25347833  1
  O  O384  1  0.62318418  0.24871510  0.75907113  1
  O  O385  1  0.61637164  0.76023279  0.24989827  1
  O  O386  1  0.61118250  0.75099553  0.75063288  1
  O  O387  1  0.37097713  0.23753452  0.25518947  1
  O  O388  1  0.38165555  0.24010692  0.74422744  1
  O  O389  1  0.38250053  0.75729940  0.24226196  1
  O  O390  1  0.38430283  0.74386614  0.74607361  1
  O  O391  1  0.88317776  0.26195807  0.24001778  1
  O  O392  1  0.86346008  0.23006063  0.74697842  1
  O  O393  1  0.88297904  0.75800461  0.23935650  1
  O  O394  1  0.88243393  0.74641312  0.74744869  1
  O  O395  1  0.37213456  0.49061140  0.49383760  1
  O  O396  1  0.37976614  0.49427716  0.99116458  1
  O  O397  1  0.37353890  0.99205741  0.49061642  1
  O  O398  1  0.38339165  0.98830957  0.99429040  1
  O  O399  1  0.88223849  0.49601898  0.49607945  1
  O  O400  1  0.85964490  0.48834343  0.99629917  1
  O  O401  1  0.86170358  0.98869038  0.48379894  1
  O  O402  1  0.88075500  0.99358327  0.99415449  1
  O  O403  1  0.10986321  -0.01151359  -0.00154500  1
  O  O404  1  0.12486353  0.01169693  0.48634269  1
  O  O405  1  0.09811567  0.45526566  -0.08039431  1
  O  O406  1  0.11684121  0.50715703  0.49829785  1
  O  O407  1  0.61698149  0.00653928  -0.00005833  1
  O  O408  1  0.62536369  -0.00050651  0.51270615  1
  O  O409  1  0.63442041  0.51939592  -0.00074298  1
  O  O410  1  0.62578241  0.50962625  0.50499426  1
  O  O411  1  0.36938857  0.37448858  0.12282207  1
  O  O412  1  0.37238849  0.37295910  0.61495797  1
  O  O413  1  0.36680176  0.86627830  0.11974993  1
  O  O414  1  0.38085053  0.86917336  0.61211698  1
  O  O415  1  0.86189511  0.37320710  0.11883701  1
  O  O416  1  0.86573795  0.38026573  0.61520264  1
  O  O417  1  0.86870603  0.86949328  0.11867473  1
  O  O418  1  0.86966309  0.87707485  0.61205414  1
  O  O419  1  0.12614549  0.13506163  0.37939739  1
  O  O420  1  0.11890535  0.12906898  0.88338800  1
  O  O421  1  0.12402402  0.63320796  0.38724162  1
  O  O422  1  0.13888511  0.63652148  0.86429261  1
  O  O423  1  0.61485375  0.12777050  0.38351663  1
  O  O424  1  0.61411629  0.13474931  0.88701289  1
  O  O425  1  0.62545618  0.62522408  0.38746723  1
  O  O426  1  0.63498010  0.62775083  0.88177869  1
