# generated using pymatgen
data_V85Zn86O256
_symmetry_space_group_name_H-M   'P 1'
_cell_length_a   16.97800845
_cell_length_b   16.97831808
_cell_length_c   16.99991587
_cell_angle_alpha   90.03309273
_cell_angle_beta   89.86950962
_cell_angle_gamma   90.02468245
_symmetry_Int_Tables_number   1
_chemical_formula_structural   V85Zn86O256
_chemical_formula_sum   'V85 Zn86 O256'
_cell_volume   4900.34824456
_cell_formula_units_Z   1
loop_
 _symmetry_equiv_pos_site_id
 _symmetry_equiv_pos_as_xyz
  1  'x, y, z'
loop_
 _atom_site_type_symbol
 _atom_site_label
 _atom_site_symmetry_multiplicity
 _atom_site_fract_x
 _atom_site_fract_y
 _atom_site_fract_z
 _atom_site_occupancy
  V  V0  1  0.36939850  0.37638015  0.50337721  1
  V  V1  1  0.00190866  0.37613677  0.38094786  1
  V  V2  1  0.75737753  0.37509671  0.12864062  1
  V  V3  1  0.87961025  0.88011142  0.49926644  1
  V  V4  1  0.36157726  0.86870328  0.50602438  1
  V  V5  1  0.24256675  0.74448376  0.00114785  1
  V  V6  1  0.13185525  0.37449486  0.74563010  1
  V  V7  1  0.36552387  0.25348948  0.62566651  1
  V  V8  1  0.88112682  0.75114980  0.12948103  1
  V  V9  1  -0.00405484  0.87532276  0.36055504  1
  V  V10  1  0.75268430  0.75129308  0.50215087  1
  V  V11  1  0.11826562  0.75351642  0.87328682  1
  V  V12  1  0.00491005  0.62508282  0.12129255  1
  V  V13  1  0.50247010  0.63665586  0.62964780  1
  V  V14  1  0.62285668  0.87312613  0.25039559  1
  V  V15  1  0.49954987  0.62620076  0.12671104  1
  V  V16  1  0.12783912  0.50335234  0.62016361  1
  V  V17  1  0.75188054  0.50047045  0.25260561  1
  V  V18  1  0.12435135  0.25249203  0.87418781  1
  V  V19  1  0.24834391  -0.00519354  0.72962772  1
  V  V20  1  0.75296424  -0.00112277  0.75411605  1
  V  V21  1  0.12296091  0.87278713  0.73401040  1
  V  V22  1  0.50241035  0.49836594  -0.00197498  1
  V  V23  1  0.62644830  0.74951731  0.37644345  1
  V  V24  1  0.38068727  0.49751435  0.87436945  1
  V  V25  1  0.24496621  0.62487282  0.87707969  1
  V  V26  1  0.11574645  -0.00881512  0.12462200  1
  V  V27  1  0.49257043  0.12894044  0.12012882  1
  V  V28  1  0.49786786  0.87292910  0.37795425  1
  V  V29  1  0.74962389  0.25183920  0.00226513  1
  V  V30  1  0.50482246  0.26174038  0.75490455  1
  V  V31  1  0.37377240  0.12412051  0.75116330  1
  V  V32  1  0.12687268  0.50349604  0.12188260  1
  V  V33  1  0.75856269  0.49201426  0.75593578  1
  V  V34  1  0.62204660  0.37347157  0.25472022  1
  V  V35  1  0.24651381  0.11726364  0.88283458  1
  V  V36  1  0.24168454  0.63271397  0.39154066  1
  V  V37  1  0.75052416  0.00956133  0.25539004  1
  V  V38  1  0.75143748  0.74956860  0.00042327  1
  V  V39  1  0.62665601  0.50261001  0.12709041  1
  V  V40  1  0.74592837  0.12875673  0.87481341  1
  V  V41  1  0.88339800  0.62961341  0.25295503  1
  V  V42  1  -0.00227015  0.49321570  -0.00841405  1
  V  V43  1  0.62367240  0.74617784  0.86750884  1
  V  V44  1  0.75226846  0.62579967  0.37665809  1
  V  V45  1  0.49481875  -0.00288991  -0.00452328  1
  V  V46  1  0.00989689  0.12323313  0.62073907  1
  V  V47  1  0.88223330  0.74875773  0.63509737  1
  V  V48  1  0.74965916  0.87582976  0.12422649  1
  V  V49  1  0.50322598  0.12584210  0.62498879  1
  V  V50  1  0.87881363  0.25612539  0.61290439  1
  V  V51  1  0.00297563  0.62581189  0.62536395  1
  V  V52  1  0.13096425  0.12653534  0.48559202  1
  V  V53  1  0.38331393  0.63155849  0.75154804  1
  V  V54  1  0.11773431  0.75748701  0.37458398  1
  V  V55  1  0.35755171  0.75051375  0.62601896  1
  V  V56  1  0.12900457  0.37717588  0.25264677  1
  V  V57  1  0.25150670  0.38153505  0.12832706  1
  V  V58  1  0.49976135  0.86715392  0.86883404  1
  V  V59  1  0.87679438  0.12692086  0.74712694  1
  V  V60  1  0.36519824  0.62336682  0.25123936  1
  V  V61  1  0.75334048  0.37598244  0.61477209  1
  V  V62  1  0.37348465  0.87162792  0.00083961  1
  V  V63  1  0.36716644  0.50363626  0.37280495  1
  V  V64  1  0.75638475  0.62188253  0.87460752  1
  V  V65  1  0.50306881  -0.00390523  0.50313792  1
  V  V66  1  0.25279278  0.49609104  0.74576613  1
  V  V67  1  0.00208058  0.25750404  0.74809634  1
  V  V68  1  0.25314449  0.24496628  0.47569788  1
  V  V69  1  0.00461258  0.13146442  0.11243338  1
  V  V70  1  0.87802438  0.49703564  0.38399547  1
  V  V71  1  0.62714394  0.62569983  0.00099536  1
  V  V72  1  0.50027399  0.37973358  0.37514762  1
  V  V73  1  0.00903326  -0.00244557  0.50092432  1
  V  V74  1  0.62278815  -0.00075176  0.11934799  1
  V  V75  1  0.24717682  0.25063123  -0.00067025  1
  V  V76  1  0.37991624  0.37525198  -0.00360003  1
  V  V77  1  0.24455012  0.87281645  0.13542303  1
  V  V78  1  0.00375563  0.25004922  0.25526650  1
  V  V79  1  0.37302079  0.74871600  0.12675211  1
  V  V80  1  0.62854838  0.00360916  0.62447507  1
  V  V81  1  0.75242062  0.87440164  0.62760101  1
  V  V82  1  0.62573761  0.62456898  0.50263617  1
  V  V83  1  0.88324134  0.88258316  -0.00397812  1
  V  V84  1  0.62438849  0.49525203  0.63205457  1
  Zn  Zn85  1  0.00760423  0.89063250  0.87444776  1
  Zn  Zn86  1  0.62406960  0.12729948  -0.00463645  1
  Zn  Zn87  1  0.06185558  0.07100454  -0.04402739  1
  Zn  Zn88  1  0.63809843  0.23090162  0.38228351  1
  Zn  Zn89  1  0.62063899  0.86970129  0.74800525  1
  Zn  Zn90  1  0.78243837  0.11555816  0.39712747  1
  Zn  Zn91  1  0.35987498  0.00646097  0.37694884  1
  Zn  Zn92  1  0.87142030  0.38830845  -0.02684171  1
  Zn  Zn93  1  0.37272680  -0.00664920  0.87274147  1
  Zn  Zn94  1  0.73503741  0.23013771  0.50799358  1
  Zn  Zn95  1  0.88647535  0.01455825  0.88390577  1
  Zn  Zn96  1  0.49892084  0.74915129  0.25101983  1
  Zn  Zn97  1  0.88240898  0.62398632  0.75757276  1
  Zn  Zn98  1  0.62090425  0.26544371  0.87505233  1
  Zn  Zn99  1  0.49716640  0.50307593  0.50477252  1
  Zn  Zn100  1  0.50466791  0.22775651  0.26683775  1
  Zn  Zn101  1  0.87542419  0.24826455  0.12968030  1
  Zn  Zn102  1  0.88234484  0.12450077  0.25431869  1
  Zn  Zn103  1  0.00687988  0.50191240  0.49929117  1
  Zn  Zn104  1  0.37571947  0.25337106  0.12928559  1
  Zn  Zn105  1  0.24187721  0.00924635  0.25727588  1
  Zn  Zn106  1  0.35883249  0.13013604  0.26715368  1
  Zn  Zn107  1  0.17992180  0.19125410  0.18614601  1
  Zn  Zn108  1  0.18730563  0.18158880  0.68795637  1
  Zn  Zn109  1  0.18317570  0.68966754  0.19520442  1
  Zn  Zn110  1  0.18539665  0.68389979  0.69329545  1
  Zn  Zn111  1  0.67913059  0.18896664  0.18521843  1
  Zn  Zn112  1  0.68883194  0.19028680  0.68635491  1
  Zn  Zn113  1  0.69110875  0.68836027  0.18959579  1
  Zn  Zn114  1  0.69255249  0.68185521  0.68979519  1
  Zn  Zn115  1  0.32376997  0.31340208  0.30621762  1
  Zn  Zn116  1  0.31327021  0.31092212  0.81339609  1
  Zn  Zn117  1  0.31177718  0.80965308  0.31775200  1
  Zn  Zn118  1  0.30893809  0.81251396  0.81131666  1
  Zn  Zn119  1  0.81598271  0.30606459  0.32109991  1
  Zn  Zn120  1  0.81053546  0.31378802  0.80671068  1
  Zn  Zn121  1  0.81178005  0.81723871  0.31250681  1
  Zn  Zn122  1  0.81366064  0.81353974  0.81677851  1
  Zn  Zn123  1  0.19158877  0.43655423  0.43529819  1
  Zn  Zn124  1  0.18584209  0.43709927  0.93749652  1
  Zn  Zn125  1  0.18147169  0.93600800  0.43634078  1
  Zn  Zn126  1  0.18723953  0.93279432  0.94327944  1
  Zn  Zn127  1  0.68700143  0.43929090  0.44062716  1
  Zn  Zn128  1  0.69023429  0.43719018  0.94142572  1
  Zn  Zn129  1  0.68843133  0.93837540  0.43904574  1
  Zn  Zn130  1  0.68873408  0.93405584  0.93578772  1
  Zn  Zn131  1  0.28844569  0.08020858  0.09409066  1
  Zn  Zn132  1  0.31904339  0.06656203  0.55249668  1
  Zn  Zn133  1  0.31363437  0.56284077  0.06130523  1
  Zn  Zn134  1  0.31333665  0.56538041  0.56445704  1
  Zn  Zn135  1  0.81507626  0.06821605  0.06654786  1
  Zn  Zn136  1  0.82034649  0.06282051  0.56600113  1
  Zn  Zn137  1  0.81689474  0.56181021  0.06325274  1
  Zn  Zn138  1  0.81397084  0.56457561  0.56664511  1
  Zn  Zn139  1  0.43704629  0.44116934  0.18757527  1
  Zn  Zn140  1  0.43443930  0.44076408  0.68215374  1
  Zn  Zn141  1  0.42975248  0.94100595  0.19083042  1
  Zn  Zn142  1  0.43464765  0.93500877  0.68622860  1
  Zn  Zn143  1  0.94253936  0.44214203  0.19220865  1
  Zn  Zn144  1  0.94043238  0.43759276  0.68553502  1
  Zn  Zn145  1  0.93336238  0.94474932  0.18118720  1
  Zn  Zn146  1  0.94049392  0.93868945  0.68645116  1
  Zn  Zn147  1  0.05860851  0.05855769  0.30966583  1
  Zn  Zn148  1  0.06648899  0.06157739  0.79495830  1
  Zn  Zn149  1  0.06748181  0.55998030  0.30929835  1
  Zn  Zn150  1  0.06298274  0.56331233  0.80830391  1
  Zn  Zn151  1  0.55693794  0.05288600  0.30653247  1
  Zn  Zn152  1  0.56340036  0.06109883  0.81071917  1
  Zn  Zn153  1  0.55873720  0.56245039  0.31331776  1
  Zn  Zn154  1  0.56597653  0.44279372  0.80928997  1
  Zn  Zn155  1  0.46800866  0.17106056  0.42321634  1
  Zn  Zn156  1  0.43449094  0.18594799  0.93738378  1
  Zn  Zn157  1  0.43605220  0.68796651  0.44198525  1
  Zn  Zn158  1  0.43714636  0.68555534  0.93842632  1
  Zn  Zn159  1  0.94315803  0.18518106  0.43183654  1
  Zn  Zn160  1  0.92035520  0.22368577  0.92120983  1
  Zn  Zn161  1  0.94245520  0.68937161  0.44419309  1
  Zn  Zn162  1  0.93942316  0.68628950  0.94419990  1
  Zn  Zn163  1  0.06350986  0.31655624  0.06235037  1
  Zn  Zn164  1  0.07397095  0.31170850  0.56113650  1
  Zn  Zn165  1  0.06200304  0.81086408  0.06181488  1
  Zn  Zn166  1  0.06624199  0.80235672  0.55502743  1
  Zn  Zn167  1  0.56809797  0.31565428  0.06262450  1
  Zn  Zn168  1  0.56089498  0.31489730  0.55936543  1
  Zn  Zn169  1  0.56139138  0.81071951  0.05965448  1
  Zn  Zn170  1  0.56400622  0.81356800  0.56448864  1
  O  O171  1  0.10963393  0.11898904  0.11717915  1
  O  O172  1  0.11508710  0.13287778  0.61353278  1
  O  O173  1  0.11574594  0.61701594  0.13375573  1
  O  O174  1  0.11743748  0.61370151  0.63545040  1
  O  O175  1  0.61503374  0.11296130  0.11912181  1
  O  O176  1  0.61483180  0.11426122  0.63457852  1
  O  O177  1  0.62198330  0.62228714  0.12130164  1
  O  O178  1  0.61996170  0.61978553  0.62273490  1
  O  O179  1  0.37787546  0.38838391  0.37946577  1
  O  O180  1  0.36654626  0.38598828  0.88523464  1
  O  O181  1  0.38398489  0.86882905  0.39060789  1
  O  O182  1  0.38220342  0.87161127  0.88162275  1
  O  O183  1  0.88791589  0.38750160  0.36669599  1
  O  O184  1  0.89005594  0.33140355  0.88059341  1
  O  O185  1  0.88668634  0.86704095  0.38691564  1
  O  O186  1  0.88063890  0.87635861  0.88799464  1
  O  O187  1  0.24708616  -0.00767420  0.36901325  1
  O  O188  1  0.25143825  0.00907287  0.87836247  1
  O  O189  1  0.26076800  0.51355247  0.37930287  1
  O  O190  1  0.25732316  0.50765498  0.87011984  1
  O  O191  1  0.73530567  0.00649782  0.35886106  1
  O  O192  1  0.75214125  0.00851000  0.86767081  1
  O  O193  1  0.75853960  0.50570013  0.37187427  1
  O  O194  1  0.74752230  0.50590599  0.86348608  1
  O  O195  1  0.24228494  0.49048386  0.11509573  1
  O  O196  1  0.24502546  0.51008602  0.63977232  1
  O  O197  1  0.23431191  0.98379827  0.12087499  1
  O  O198  1  0.25549624  1.00569224  0.63241249  1
  O  O199  1  0.74647920  0.49487902  0.13173614  1
  O  O200  1  0.74631198  0.49561489  0.63475155  1
  O  O201  1  0.73817255  0.99606168  0.12882529  1
  O  O202  1  0.74610633  0.99541189  0.63513533  1
  O  O203  1  0.00976555  0.37021787  0.25552268  1
  O  O204  1  0.01163473  0.36291763  0.74556180  1
  O  O205  1  -0.01310211  0.88229676  0.26272550  1
  O  O206  1  0.01938555  0.88631860  0.75297515  1
  O  O207  1  0.51085420  0.38542039  0.25754328  1
  O  O208  1  0.49501149  0.36542095  0.74859238  1
  O  O209  1  0.50343648  0.87503028  0.26150791  1
  O  O210  1  0.49950810  0.88046097  0.76498647  1
  O  O211  1  0.49232416  0.11217818  0.22173323  1
  O  O212  1  0.48935329  0.12612816  0.74301985  1
  O  O213  1  0.49022661  0.62723090  0.24438593  1
  O  O214  1  0.48506405  0.62105135  0.74203373  1
  O  O215  1  1.00747838  0.13816097  0.24082041  1
  O  O216  1  0.99976617  0.13502946  0.73701508  1
  O  O217  1  0.98852420  0.61842448  0.24094361  1
  O  O218  1  0.99521119  0.61619395  0.73540178  1
  O  O219  1  0.36687349  0.26136802  -0.00297074  1
  O  O220  1  0.36269054  0.25577008  0.50767659  1
  O  O221  1  0.36522474  0.75201548  0.00665862  1
  O  O222  1  0.37772671  0.76153324  0.51020738  1
  O  O223  1  0.85605157  0.24895748  0.01404498  1
  O  O224  1  0.88110598  0.24453182  0.51287024  1
  O  O225  1  0.87065478  0.75911914  0.01013164  1
  O  O226  1  0.87125077  0.76019503  0.51078047  1
  O  O227  1  0.14698856  0.24509715  0.49996341  1
  O  O228  1  0.13686478  0.26208395  0.98731057  1
  O  O229  1  0.12176929  0.74403368  0.47763441  1
  O  O230  1  0.13675940  0.75393133  0.99244956  1
  O  O231  1  0.62364397  0.25184973  0.49454873  1
  O  O232  1  0.63738306  0.24920720  0.99806718  1
  O  O233  1  0.63313705  0.74550678  0.49672688  1
  O  O234  1  0.63274098  0.74490114  0.99448011  1
  O  O235  1  0.50676220  0.23339549  0.11847953  1
  O  O236  1  0.49015333  0.24273802  0.63481623  1
  O  O237  1  0.49194564  0.74369855  0.12464122  1
  O  O238  1  0.49826703  0.73969670  0.62605411  1
  O  O239  1  1.00204303  0.24283493  0.13079410  1
  O  O240  1  0.99863825  0.24641491  0.62903209  1
  O  O241  1  0.98952222  0.74108970  0.11912314  1
  O  O242  1  0.99169963  0.74117553  0.62094044  1
  O  O243  1  -0.00117215  0.26298332  0.36481187  1
  O  O244  1  0.01830750  0.23513890  0.85930508  1
  O  O245  1  0.00412959  0.76289543  0.37757830  1
  O  O246  1  0.01690501  0.74539306  0.88274713  1
  O  O247  1  0.48669360  0.27885654  0.37750190  1
  O  O248  1  0.49854247  0.24287008  0.85744931  1
  O  O249  1  0.50688399  0.75853326  0.37747170  1
  O  O250  1  0.51066841  0.75614137  0.88326885  1
  O  O251  1  0.24678197  0.13758834  0.50090389  1
  O  O252  1  0.25629099  0.13884550  0.99385342  1
  O  O253  1  0.25492896  0.62843625  0.48967870  1
  O  O254  1  0.25610951  0.63334841  0.98925022  1
  O  O255  1  0.74603817  0.11483824  0.50353371  1
  O  O256  1  0.74834943  0.13128243  0.99250944  1
  O  O257  1  0.74627030  0.63155314  0.49598766  1
  O  O258  1  0.74813536  0.62848189  0.99596499  1
  O  O259  1  0.25951427  0.37061059  0.00540039  1
  O  O260  1  0.26037706  0.35988781  0.49017671  1
  O  O261  1  0.25530717  0.86222104  0.00871866  1
  O  O262  1  0.26423526  0.87858716  0.49969361  1
  O  O263  1  0.75409465  0.37109067  0.01195691  1
  O  O264  1  0.75269082  0.37842899  0.51368480  1
  O  O265  1  0.75923825  0.86912003  0.00460628  1
  O  O266  1  0.75975732  0.87303871  0.50579341  1
  O  O267  1  0.12087802  0.48886080  0.23358920  1
  O  O268  1  0.13472711  0.49158047  0.74625599  1
  O  O269  1  0.12515243  1.00639400  0.22940484  1
  O  O270  1  0.14092325  0.99019337  0.74561350  1
  O  O271  1  0.63210337  0.49646581  0.24648670  1
  O  O272  1  0.63718072  0.50173584  0.73873643  1
  O  O273  1  0.62891423  0.99295462  0.23744244  1
  O  O274  1  0.63597328  0.99723283  0.74221497  1
  O  O275  1  0.36516894  0.00477011  0.25521644  1
  O  O276  1  0.36356067  0.00596636  0.75031064  1
  O  O277  1  0.37917315  0.51028428  0.26175903  1
  O  O278  1  0.36962851  0.50567447  0.75645630  1
  O  O279  1  0.85182886  -0.00178656  0.24307366  1
  O  O280  1  0.86661743  0.00738090  0.75052593  1
  O  O281  1  0.87121412  0.51122599  0.25960641  1
  O  O282  1  0.86169131  0.49944685  0.74712638  1
  O  O283  1  0.11901531  0.38837786  0.36033016  1
  O  O284  1  0.13394212  0.36350885  0.86080663  1
  O  O285  1  0.11097281  0.86528215  0.37407082  1
  O  O286  1  0.12478672  0.86759786  0.87102559  1
  O  O287  1  0.61637018  0.38410085  0.36721263  1
  O  O288  1  0.62045736  0.37774370  0.88010533  1
  O  O289  1  0.61803460  0.86872990  0.37254365  1
  O  O290  1  0.61810135  0.86403879  0.87452959  1
  O  O291  1  0.39109885  0.13049931  0.10316004  1
  O  O292  1  0.38165308  0.13116739  0.63487774  1
  O  O293  1  0.37789273  0.62752109  0.13274600  1
  O  O294  1  0.38247997  0.63323159  0.63109440  1
  O  O295  1  0.89044734  0.12349868  0.13441710  1
  O  O296  1  0.88797576  0.13463483  0.62941778  1
  O  O297  1  0.88165517  0.63248504  0.13368931  1
  O  O298  1  0.88094159  0.63413264  0.62903552  1
  O  O299  1  0.24951372  0.26301379  0.11170530  1
  O  O300  1  0.26485737  0.24546600  0.63278702  1
  O  O301  1  0.25011401  0.75171144  0.11853032  1
  O  O302  1  0.25894097  0.74206941  0.62504596  1
  O  O303  1  0.74546817  0.25983155  0.12088461  1
  O  O304  1  0.75996526  0.25875932  0.62621081  1
  O  O305  1  0.75963437  0.75502466  0.12064569  1
  O  O306  1  0.75766373  0.75468915  0.62095702  1
  O  O307  1  0.25707618  0.24681188  0.37770374  1
  O  O308  1  0.24371294  0.23920712  0.87794223  1
  O  O309  1  0.23925631  0.73946676  0.37453876  1
  O  O310  1  0.24501203  0.74371233  0.88337298  1
  O  O311  1  0.75305166  0.23377336  0.38146042  1
  O  O312  1  0.74474055  0.24231172  0.88125602  1
  O  O313  1  0.74660766  0.74618091  0.38151429  1
  O  O314  1  0.74339149  0.74495155  0.88124503  1
  O  O315  1  -0.01044595  0.14062995  0.01089007  1
  O  O316  1  0.01018539  0.11859382  0.50374263  1
  O  O317  1  -0.00431048  0.61364473  0.01516729  1
  O  O318  1  -0.00333138  0.61972880  0.51739665  1
  O  O319  1  0.50465094  0.11389225  -0.00044263  1
  O  O320  1  0.49170651  0.10954278  0.51865080  1
  O  O321  1  0.50534039  0.61804083  0.00638805  1
  O  O322  1  0.50612644  0.62473960  0.51162585  1
  O  O323  1  0.48616025  0.38123795  0.49417850  1
  O  O324  1  0.48780309  0.38139192  1.00880519  1
  O  O325  1  0.49660400  0.87983573  0.49573973  1
  O  O326  1  0.49451685  0.87888836  0.99114650  1
  O  O327  1  1.01416750  0.37590383  0.48427473  1
  O  O328  1  0.99505816  0.38898908  1.00669582  1
  O  O329  1  0.99580609  0.88193592  0.49993367  1
  O  O330  1  0.98570350  0.87352011  1.00039894  1
  O  O331  1  0.48809312  0.49750808  0.38171320  1
  O  O332  1  0.48615959  0.50040479  0.87849653  1
  O  O333  1  0.50435207  0.98469267  0.38768895  1
  O  O334  1  0.50046574  0.99023048  0.88168869  1
  O  O335  1  0.99469829  0.49531864  0.37635303  1
  O  O336  1  1.01185013  0.50752865  0.89364658  1
  O  O337  1  1.00744317  0.98230388  0.38501738  1
  O  O338  1  1.00249336  1.00993968  0.87595135  1
  O  O339  1  0.00745623  0.01244162  0.12514814  1
  O  O340  1  -0.00359942  0.01368837  0.61577918  1
  O  O341  1  0.00714805  0.50699519  0.11888798  1
  O  O342  1  0.01076444  0.50323521  0.62201716  1
  O  O343  1  0.50511854  0.00248321  0.11308308  1
  O  O344  1  0.50835096  0.00371633  0.62359149  1
  O  O345  1  0.50669836  0.50698650  0.11900319  1
  O  O346  1  0.50847969  0.51059624  0.62649699  1
  O  O347  1  0.24504936  0.36858297  0.23682041  1
  O  O348  1  0.24780273  0.38692646  0.75391536  1
  O  O349  1  0.25168816  0.86638394  0.23563290  1
  O  O350  1  0.24567141  0.88961990  0.75025037  1
  O  O351  1  0.74078501  0.37987785  0.24825868  1
  O  O352  1  0.75012366  0.38707306  0.74239012  1
  O  O353  1  0.74237606  0.88427763  0.24495215  1
  O  O354  1  0.75189058  0.88595753  0.74767307  1
  O  O355  1  0.26069672  0.11821429  0.20599051  1
  O  O356  1  0.25408813  0.11189468  0.75754601  1
  O  O357  1  0.26256012  0.62760587  0.25748755  1
  O  O358  1  0.26105024  0.61588528  0.75955875  1
  O  O359  1  0.74400885  0.11213530  0.24221463  1
  O  O360  1  0.75466404  0.11926599  0.75478925  1
  O  O361  1  0.76061890  0.62086833  0.25691512  1
  O  O362  1  0.75438310  0.61213585  0.75837819  1
  O  O363  1  0.38073942  0.11939950  0.37835231  1
  O  O364  1  0.36550090  0.12275364  0.86418884  1
  O  O365  1  0.36681107  0.62363719  0.37151276  1
  O  O366  1  0.36814803  0.61848636  0.86930266  1
  O  O367  1  0.89021021  0.11252623  0.36570138  1
  O  O368  1  0.86253807  0.13122878  0.86653070  1
  O  O369  1  0.87339434  0.62247411  0.36950635  1
  O  O370  1  0.86084163  0.63570668  0.87609275  1
  O  O371  1  0.13396289  0.38261939  0.13069275  1
  O  O372  1  0.12670213  0.38312508  0.63892952  1
  O  O373  1  0.12572469  0.88329021  0.12364607  1
  O  O374  1  0.12361219  0.86428575  0.63585447  1
  O  O375  1  0.63354463  0.38334345  0.13465812  1
  O  O376  1  0.63300800  0.38760613  0.62069411  1
  O  O377  1  0.62761720  0.88071051  0.12820587  1
  O  O378  1  0.63248645  0.88318898  0.62967989  1
  O  O379  1  0.11595412  0.26508114  0.24324602  1
  O  O380  1  0.12352289  0.25555726  0.75291846  1
  O  O381  1  0.11974542  0.73854456  0.27258794  1
  O  O382  1  0.13790930  0.76719101  0.75959453  1
  O  O383  1  0.61997639  0.26541367  0.25100883  1
  O  O384  1  0.60654296  0.24749689  0.74609631  1
  O  O385  1  0.62416815  0.75533048  0.25747288  1
  O  O386  1  0.63233687  0.74934545  0.76337683  1
  O  O387  1  0.38959541  0.24461047  0.24341838  1
  O  O388  1  0.38257442  0.24298664  0.74613071  1
  O  O389  1  0.37713729  0.74141682  0.24465919  1
  O  O390  1  0.36762796  0.74043533  0.74275437  1
  O  O391  1  0.88996683  0.25094679  0.24660772  1
  O  O392  1  0.88658835  0.24447345  0.73798353  1
  O  O393  1  0.86830409  0.74273055  0.23977995  1
  O  O394  1  0.87014472  0.75111006  0.73830886  1
  O  O395  1  0.37176808  0.49182152  0.49525603  1
  O  O396  1  0.38057973  0.49510120  0.99211205  1
  O  O397  1  0.38698745  0.98402862  0.50501435  1
  O  O398  1  0.38744047  0.99016287  0.99817211  1
  O  O399  1  0.87545190  0.50622314  0.48617554  1
  O  O400  1  0.88914204  0.49957480  1.00114646  1
  O  O401  1  0.88769156  0.98654966  0.50620562  1
  O  O402  1  0.86879465  0.98604377  1.00160557  1
  O  O403  1  0.12484424  -0.00132501  0.01467298  1
  O  O404  1  0.11586379  0.00776959  0.50207719  1
  O  O405  1  0.11502016  0.49332681  0.01265549  1
  O  O406  1  0.13328194  0.49208657  0.51792149  1
  O  O407  1  0.61635563  -0.00478663  0.00672592  1
  O  O408  1  0.61518374  -0.00845949  0.51428796  1
  O  O409  1  0.62181892  0.50686130  0.00790675  1
  O  O410  1  0.62566697  0.50888178  0.51229403  1
  O  O411  1  0.36785798  0.37795683  0.11641776  1
  O  O412  1  0.37892285  0.36761926  0.61348913  1
  O  O413  1  0.36591996  0.86812229  0.11996586  1
  O  O414  1  0.37936936  0.86451632  0.61531939  1
  O  O415  1  0.86049187  0.37793136  0.13584389  1
  O  O416  1  0.86798669  0.36601857  0.63062274  1
  O  O417  1  0.87154379  0.86880475  0.11624335  1
  O  O418  1  0.87293060  0.86882409  0.61975612  1
  O  O419  1  0.11878780  0.12270815  0.38707718  1
  O  O420  1  0.13427771  0.13015027  0.87412538  1
  O  O421  1  0.13927104  0.62054356  0.37547594  1
  O  O422  1  0.14053759  0.63513274  0.86172437  1
  O  O423  1  0.56316017  0.15218465  0.35438618  1
  O  O424  1  0.63643400  0.12672463  0.87329499  1
  O  O425  1  0.63132197  0.62892388  0.38089361  1
  O  O426  1  0.64119333  0.63430248  0.88558715  1
