# generated using pymatgen
data_V85Zn86O256
_symmetry_space_group_name_H-M   'P 1'
_cell_length_a   16.96911756
_cell_length_b   16.96792599
_cell_length_c   16.97323126
_cell_angle_alpha   89.94639075
_cell_angle_beta   89.99397614
_cell_angle_gamma   89.98099539
_symmetry_Int_Tables_number   1
_chemical_formula_structural   V85Zn86O256
_chemical_formula_sum   'V85 Zn86 O256'
_cell_volume   4887.11244456
_cell_formula_units_Z   1
loop_
 _symmetry_equiv_pos_site_id
 _symmetry_equiv_pos_as_xyz
  1  'x, y, z'
loop_
 _atom_site_type_symbol
 _atom_site_label
 _atom_site_symmetry_multiplicity
 _atom_site_fract_x
 _atom_site_fract_y
 _atom_site_fract_z
 _atom_site_occupancy
  V  V0  1  0.49794482  0.75385377  0.24891596  1
  V  V1  1  0.87467241  0.86736720  0.00165994  1
  V  V2  1  0.87774176  -0.00249653  0.87398166  1
  V  V3  1  0.25720249  0.23899105  0.50582270  1
  V  V4  1  0.61595199  0.37570357  0.75050569  1
  V  V5  1  0.51583965  0.75347212  0.75370114  1
  V  V6  1  0.87593573  0.49185446  0.88877370  1
  V  V7  1  0.87581767  0.25349595  0.61910463  1
  V  V8  1  0.62187014  0.37720283  0.25161772  1
  V  V9  1  0.62601556  0.12457159  0.49922304  1
  V  V10  1  0.63876275  0.00622908  0.12800033  1
  V  V11  1  0.12222705  0.74803719  0.87791148  1
  V  V12  1  0.86663272  0.00277272  0.37130708  1
  V  V13  1  0.37869226  0.38178842  0.49291991  1
  V  V14  1  0.87630814  0.61916221  0.74974004  1
  V  V15  1  0.49845768  0.25613561  0.25825057  1
  V  V16  1  0.25226919  0.74821609  0.50296254  1
  V  V17  1  0.01191119  0.62446037  0.10839621  1
  V  V18  1  0.24650564  -0.00202435  0.25292676  1
  V  V19  1  0.37472576  0.87465115  0.00009372  1
  V  V20  1  0.62818573  0.50133521  0.12381574  1
  V  V21  1  0.00354861  0.00279926  -0.00097596  1
  V  V22  1  0.87923432  0.86859425  0.49370671  1
  V  V23  1  0.24846729  -0.00122196  0.75092911  1
  V  V24  1  0.37340014  0.25282316  0.12476559  1
  V  V25  1  0.25197992  0.61848889  0.37599551  1
  V  V26  1  0.61853984  0.50069496  0.62238595  1
  V  V27  1  0.49749771  0.12921115  0.62886951  1
  V  V28  1  0.11640834  0.87396101  0.25539663  1
  V  V29  1  0.38060284  0.49578244  0.86991710  1
  V  V30  1  0.00547273  0.12714422  0.12118549  1
  V  V31  1  0.75490810  0.25818557  -0.00469606  1
  V  V32  1  0.75294954  0.37818103  0.12319252  1
  V  V33  1  0.11122621  0.74984518  0.37742294  1
  V  V34  1  0.62309696  0.62545133  0.49737592  1
  V  V35  1  -0.00052421  0.74664843  0.75188665  1
  V  V36  1  0.61696296  0.25564601  0.87222955  1
  V  V37  1  0.00165535  0.12291471  0.62028457  1
  V  V38  1  0.86980785  0.11831178  0.74646811  1
  V  V39  1  0.37013196  0.00146524  0.37676554  1
  V  V40  1  0.13107592  0.24629717  0.37108112  1
  V  V41  1  0.25581460  0.86795995  0.62745159  1
  V  V42  1  0.63015423  -0.00372446  0.63881894  1
  V  V43  1  0.49970942  0.62756573  0.12151255  1
  V  V44  1  0.50083423  -0.00187469  0.50298006  1
  V  V45  1  0.37231052  0.75088178  0.12543154  1
  V  V46  1  0.74808165  0.87701191  0.63467963  1
  V  V47  1  0.37355553  0.13074027  0.74720276  1
  V  V48  1  0.75290487  0.25059512  0.49493339  1
  V  V49  1  0.23893219  0.50004600  0.74660309  1
  V  V50  1  0.62450566  0.12814586  -0.00073050  1
  V  V51  1  0.37018061  0.12524823  0.25520787  1
  V  V52  1  0.87547530  0.25407992  0.12337460  1
  V  V53  1  0.49972259  0.12485707  0.12514904  1
  V  V54  1  0.50051753  0.87469088  0.37505783  1
  V  V55  1  0.24634094  0.74698426  0.00107995  1
  V  V56  1  0.12230797  0.24569516  0.88147150  1
  V  V57  1  0.11862566  0.87221471  0.75264995  1
  V  V58  1  0.75384283  0.85934723  0.12367721  1
  V  V59  1  0.88431987  0.62660507  0.23687170  1
  V  V60  1  0.37526760  0.87095473  0.50282858  1
  V  V61  1  -0.00399300  0.37398590  0.88498169  1
  V  V62  1  0.00128268  0.24966273  0.74817555  1
  V  V63  1  0.37513531  0.63400592  0.74703026  1
  V  V64  1  0.37422458  -0.00096461  0.87621734  1
  V  V65  1  0.12544330  0.61084039  0.50610563  1
  V  V66  1  0.24738035  0.62250060  0.87825857  1
  V  V67  1  0.24311090  0.49775145  0.24551340  1
  V  V68  1  0.74876118  0.12149764  0.86996272  1
  V  V69  1  0.49599436  0.63293768  0.62332754  1
  V  V70  1  0.74648224  0.63177251  0.88238246  1
  V  V71  1  0.50152126  0.50094247  -0.00348307  1
  V  V72  1  0.00031739  -0.00821725  0.49278145  1
  V  V73  1  0.24398924  0.12408466  0.88185306  1
  V  V74  1  0.74936110  0.74792137  0.49986937  1
  V  V75  1  0.37808114  0.37400014  -0.00335990  1
  V  V76  1  0.75161175  0.37539186  0.61953722  1
  V  V77  1  0.63125933  0.88261873  0.25060039  1
  V  V78  1  0.37635646  0.61927883  0.25409485  1
  V  V79  1  0.12330009  -0.00312092  0.62427179  1
  V  V80  1  0.00579690  0.61385159  0.62873036  1
  V  V81  1  0.74969463  0.62194261  0.35732237  1
  V  V82  1  0.50051157  -0.00015927  0.00065695  1
  V  V83  1  0.51438112  0.87214482  0.87239470  1
  V  V84  1  0.25074557  0.37592368  0.62627134  1
  Zn  Zn85  1  0.49769858  0.49349969  0.47391562  1
  Zn  Zn86  1  0.49048428  0.25852509  0.74963429  1
  Zn  Zn87  1  0.11256475  0.37796478  0.24894061  1
  Zn  Zn88  1  0.87613136  0.74889297  0.62587046  1
  Zn  Zn89  1  0.62625829  0.64891673  -0.00648990  1
  Zn  Zn90  1  0.11929568  0.38185775  0.74431463  1
  Zn  Zn91  1  0.24591004  0.37595874  0.12268558  1
  Zn  Zn92  1  0.24630701  0.87449551  0.12566355  1
  Zn  Zn93  1  0.87217958  0.49364521  0.37240914  1
  Zn  Zn94  1  -0.00676783  0.25012865  0.25441780  1
  Zn  Zn95  1  0.74860178  0.49880830  0.75063136  1
  Zn  Zn96  1  0.62515285  0.75290723  0.37256231  1
  Zn  Zn97  1  0.11634993  0.49372763  0.10077795  1
  Zn  Zn98  1  0.74128416  0.12300451  0.36236193  1
  Zn  Zn99  1  0.86531156  0.11825542  0.24057839  1
  Zn  Zn100  1  0.62109698  0.25843429  0.37836096  1
  Zn  Zn101  1  -0.01294327  0.37081961  0.37986927  1
  Zn  Zn102  1  -0.00827813  0.75644471  0.24143784  1
  Zn  Zn103  1  0.12604228  0.00080722  0.11971266  1
  Zn  Zn104  1  0.24594589  0.24664256  0.00288754  1
  Zn  Zn105  1  0.98088561  0.47985053  0.50343919  1
  Zn  Zn106  1  0.13284373  0.11787742  0.48946102  1
  Zn  Zn107  1  0.18789349  0.18458529  0.18864437  1
  Zn  Zn108  1  0.18700920  0.18774220  0.68629613  1
  Zn  Zn109  1  0.18217313  0.68672323  0.18904635  1
  Zn  Zn110  1  0.18675644  0.68399349  0.68941797  1
  Zn  Zn111  1  0.68939817  0.19282730  0.18884913  1
  Zn  Zn112  1  0.68427644  0.18979786  0.68492667  1
  Zn  Zn113  1  0.67958754  0.69185592  0.18105354  1
  Zn  Zn114  1  0.69138126  0.68628632  0.68744674  1
  Zn  Zn115  1  0.30997564  0.31277919  0.31833285  1
  Zn  Zn116  1  0.30861430  0.31347511  0.81345383  1
  Zn  Zn117  1  0.30744883  0.80977131  0.31620409  1
  Zn  Zn118  1  0.31433924  0.81336078  0.81517615  1
  Zn  Zn119  1  0.80871692  0.31613018  0.30794471  1
  Zn  Zn120  1  0.80926355  0.31226916  0.80569668  1
  Zn  Zn121  1  0.81509093  0.80850828  0.31163196  1
  Zn  Zn122  1  0.81307779  0.81107047  0.81681909  1
  Zn  Zn123  1  0.18967839  0.42836200  0.43448558  1
  Zn  Zn124  1  0.19095390  0.42622962  0.92983935  1
  Zn  Zn125  1  0.18577205  0.93292748  0.43680091  1
  Zn  Zn126  1  0.18666777  0.93304394  0.93591532  1
  Zn  Zn127  1  0.68837037  0.44026475  0.43608559  1
  Zn  Zn128  1  0.68769989  0.44191208  0.93486416  1
  Zn  Zn129  1  0.68822080  0.93619385  0.44437723  1
  Zn  Zn130  1  0.69123628  0.93661717  0.94219308  1
  Zn  Zn131  1  0.31241825  0.06136906  0.06640334  1
  Zn  Zn132  1  0.31417271  0.05656449  0.56715715  1
  Zn  Zn133  1  0.31252636  0.56213069  0.06299567  1
  Zn  Zn134  1  0.31315461  0.55852263  0.56482509  1
  Zn  Zn135  1  0.81640076  0.06787389  0.05504171  1
  Zn  Zn136  1  0.81188371  0.05956726  0.55902837  1
  Zn  Zn137  1  0.81508157  0.56450979  0.06387636  1
  Zn  Zn138  1  0.81029173  0.56151980  0.56344213  1
  Zn  Zn139  1  0.43795258  0.43999976  0.18770061  1
  Zn  Zn140  1  0.43046807  0.43950281  0.67876997  1
  Zn  Zn141  1  0.43840223  0.93800058  0.18613501  1
  Zn  Zn142  1  0.44004802  0.93886746  0.69116321  1
  Zn  Zn143  1  0.93725389  0.44309627  0.19144014  1
  Zn  Zn144  1  0.93664051  0.43670210  0.69091121  1
  Zn  Zn145  1  0.93747580  0.93909993  0.18462225  1
  Zn  Zn146  1  0.93389348  0.93434935  0.68253707  1
  Zn  Zn147  1  0.05737178  0.06888972  0.30859867  1
  Zn  Zn148  1  0.05998803  0.06152464  0.81185848  1
  Zn  Zn149  1  0.05788545  0.56049187  0.31815161  1
  Zn  Zn150  1  0.06280860  0.55689377  0.92835515  1
  Zn  Zn151  1  0.55779123  0.06318512  0.31265315  1
  Zn  Zn152  1  0.56014638  0.06319179  0.81484070  1
  Zn  Zn153  1  0.56596866  0.56312115  0.30976711  1
  Zn  Zn154  1  0.56337406  0.56504388  0.80905876  1
  Zn  Zn155  1  0.43657950  0.18744155  0.44111084  1
  Zn  Zn156  1  0.43501611  0.18554442  0.93575482  1
  Zn  Zn157  1  0.43850887  0.68569893  0.43523210  1
  Zn  Zn158  1  0.43746393  0.68937134  0.93480137  1
  Zn  Zn159  1  0.93987842  0.18724073  0.43531576  1
  Zn  Zn160  1  0.93689612  0.18547916  0.93816853  1
  Zn  Zn161  1  0.92512875  0.65658145  0.44857009  1
  Zn  Zn162  1  0.93202575  0.68691519  0.93484254  1
  Zn  Zn163  1  0.06360228  0.31490775  0.06602638  1
  Zn  Zn164  1  0.07206669  0.31491552  0.55611696  1
  Zn  Zn165  1  0.05984174  0.81498645  0.06667428  1
  Zn  Zn166  1  0.06412193  0.80594481  0.56480968  1
  Zn  Zn167  1  0.56162413  0.31405785  0.06258504  1
  Zn  Zn168  1  0.56135439  0.31208737  0.56314336  1
  Zn  Zn169  1  0.56237239  0.81556016  0.06244606  1
  Zn  Zn170  1  0.56537550  0.81227156  0.56579411  1
  O  O171  1  0.11159847  0.12342084  0.12859863  1
  O  O172  1  0.11412847  0.11582342  0.62663566  1
  O  O173  1  0.11485083  0.61934129  0.12465120  1
  O  O174  1  0.12226939  0.62487079  0.61508521  1
  O  O175  1  0.61920450  0.12313102  0.11978898  1
  O  O176  1  0.61930709  0.11719113  0.61770401  1
  O  O177  1  0.61902823  0.61648271  0.11900154  1
  O  O178  1  0.61862746  0.61795825  0.61999726  1
  O  O179  1  0.37034710  0.37263936  0.39354296  1
  O  O180  1  0.37232552  0.38558484  0.88126183  1
  O  O181  1  0.37964777  0.88177847  0.38115979  1
  O  O182  1  0.37910419  0.88220046  0.88175871  1
  O  O183  1  0.86794261  0.37978593  0.37482599  1
  O  O184  1  0.87875098  0.38485543  0.86631907  1
  O  O185  1  0.86979469  0.88278780  0.38715358  1
  O  O186  1  0.86234665  0.88770712  0.88902205  1
  O  O187  1  0.26186506  -0.00606024  0.36907813  1
  O  O188  1  0.25189958  0.00578301  0.87045078  1
  O  O189  1  0.24675223  0.51232909  0.36598203  1
  O  O190  1  0.26203764  0.50635312  0.86671356  1
  O  O191  1  0.76317821  0.00196856  0.38524362  1
  O  O192  1  0.75842833  0.01536821  0.88192171  1
  O  O193  1  0.74620629  0.52061826  0.37663171  1
  O  O194  1  0.76308492  0.50304135  0.87059784  1
  O  O195  1  0.24655558  0.50309960  0.13737272  1
  O  O196  1  0.25430480  0.49214077  0.63708827  1
  O  O197  1  0.24655200  0.99875294  0.13779210  1
  O  O198  1  0.24251389  0.98918398  0.63093142  1
  O  O199  1  0.73822866  0.49082453  0.11157090  1
  O  O200  1  0.73794821  0.49311765  0.62284818  1
  O  O201  1  0.73980735  1.00524136  0.12003957  1
  O  O202  1  0.74238741  0.98957558  0.61733767  1
  O  O203  1  -0.00233965  0.36762760  0.25305554  1
  O  O204  1  -0.00140983  0.36184088  0.75427447  1
  O  O205  1  0.01125932  0.87360033  0.24577567  1
  O  O206  1  0.00937350  0.86264767  0.73971766  1
  O  O207  1  0.50722570  0.36548101  0.24046824  1
  O  O208  1  0.51082821  0.37521798  0.73857162  1
  O  O209  1  0.50735474  0.87311047  0.25463407  1
  O  O210  1  0.49329745  0.86466446  0.75944979  1
  O  O211  1  0.48951483  0.13270781  0.24486377  1
  O  O212  1  0.48952319  0.12387275  0.74502736  1
  O  O213  1  0.49322871  0.63404041  0.24158070  1
  O  O214  1  0.49392290  0.63438335  0.74527364  1
  O  O215  1  0.98926900  0.12894279  0.23606045  1
  O  O216  1  0.99067534  0.12964501  0.74082500  1
  O  O217  1  0.99120870  0.62907866  0.24543073  1
  O  O218  1  0.99219387  0.63205129  0.74250076  1
  O  O219  1  0.37898701  0.25658120  0.00827591  1
  O  O220  1  0.36176045  0.25504469  0.49675399  1
  O  O221  1  0.36603452  0.75461272  0.00441778  1
  O  O222  1  0.35996220  0.75426025  0.49367062  1
  O  O223  1  0.86262460  0.24677198  0.00479379  1
  O  O224  1  0.86172922  0.23914347  0.50613766  1
  O  O225  1  0.87786532  0.76913494  -0.00780132  1
  O  O226  1  0.86741187  0.75181771  0.49953119  1
  O  O227  1  0.13881398  0.24318557  0.49152098  1
  O  O228  1  0.12548265  0.25250810  0.98514597  1
  O  O229  1  0.13688697  0.74518106  0.49510440  1
  O  O230  1  0.13434563  0.76120588  0.98835174  1
  O  O231  1  0.63034228  0.24092763  0.49995240  1
  O  O232  1  0.63037812  0.24754931  0.99146046  1
  O  O233  1  0.63316951  0.74530411  0.49750174  1
  O  O234  1  0.63060239  0.75810032  1.00170185  1
  O  O235  1  0.48964400  0.24524203  0.13237984  1
  O  O236  1  0.50634172  0.23233011  0.62930847  1
  O  O237  1  0.49158878  0.74799741  0.12996626  1
  O  O238  1  0.50439922  0.73982526  0.63439949  1
  O  O239  1  0.98970385  0.24338537  0.11864073  1
  O  O240  1  0.99682966  0.24015000  0.63038097  1
  O  O241  1  1.00580490  0.73156157  0.12484051  1
  O  O242  1  1.00117520  0.73743301  0.63569521  1
  O  O243  1  0.01388856  0.24870448  0.37445865  1
  O  O244  1  0.00218766  0.25122831  0.86661161  1
  O  O245  1  0.01194880  0.73582132  0.38036182  1
  O  O246  1  0.01140122  0.74022962  0.86436825  1
  O  O247  1  0.49993452  0.24575449  0.36211816  1
  O  O248  1  0.51329871  0.24502309  0.87291557  1
  O  O249  1  0.50156757  0.75760172  0.36766547  1
  O  O250  1  0.49575426  0.76016175  0.86667365  1
  O  O251  1  0.25269833  0.13414833  0.50806924  1
  O  O252  1  0.25651079  0.12546625  0.98593971  1
  O  O253  1  0.24400674  0.62902962  0.49820145  1
  O  O254  1  0.25924329  0.63608992  0.98941406  1
  O  O255  1  0.73874468  0.13294061  0.50229850  1
  O  O256  1  0.74387889  0.13684333  0.98873367  1
  O  O257  1  0.74201448  0.63529461  0.49644544  1
  O  O258  1  0.75179208  0.62038254  0.98549456  1
  O  O259  1  0.26596808  0.36889893  0.00040321  1
  O  O260  1  0.25835759  0.36735700  0.50744450  1
  O  O261  1  0.25630936  0.86414255  -0.00008002  1
  O  O262  1  0.25362402  0.86729442  0.50848436  1
  O  O263  1  0.74123526  0.36483641  0.00628308  1
  O  O264  1  0.73848399  0.36411105  0.51024121  1
  O  O265  1  0.76096547  0.88241961  0.01486413  1
  O  O266  1  0.75785307  0.86340026  0.50534981  1
  O  O267  1  0.13923931  0.50274263  0.25296655  1
  O  O268  1  0.14051362  0.50072594  0.75921242  1
  O  O269  1  0.13343353  0.99315801  0.25746439  1
  O  O270  1  0.12646109  0.98953852  0.74631447  1
  O  O271  1  0.61771410  0.49246403  0.23105251  1
  O  O272  1  0.62604576  0.49334516  0.74007998  1
  O  O273  1  0.61764024  0.99200446  0.24103475  1
  O  O274  1  0.62451614  1.00761381  0.73784898  1
  O  O275  1  0.36918736  0.00500210  0.25705182  1
  O  O276  1  0.36762282  0.00714979  0.75698090  1
  O  O277  1  0.36505413  0.51436538  0.24166350  1
  O  O278  1  0.37406425  0.50999021  0.75737175  1
  O  O279  1  0.88120344  -0.00589387  0.26962849  1
  O  O280  1  0.88218171  0.00973644  0.75698547  1
  O  O281  1  0.87224394  0.52256800  0.25140622  1
  O  O282  1  0.87291845  0.50928803  0.75530845  1
  O  O283  1  0.12557838  0.35870790  0.37117691  1
  O  O284  1  0.11512192  0.36212294  0.86523842  1
  O  O285  1  0.12891044  0.86292493  0.36725058  1
  O  O286  1  0.13077719  0.86324858  0.86036149  1
  O  O287  1  0.63249235  0.37805046  0.35646043  1
  O  O288  1  0.63166990  0.36742241  0.86261831  1
  O  O289  1  0.62082492  0.87846461  0.36645712  1
  O  O290  1  0.61278608  0.88646223  0.87716506  1
  O  O291  1  0.37961157  0.13222825  0.13408429  1
  O  O292  1  0.38482986  0.11485448  0.63677827  1
  O  O293  1  0.37951632  0.63178787  0.13266072  1
  O  O294  1  0.38627237  0.61826486  0.63438160  1
  O  O295  1  0.88221247  0.13550588  0.12053332  1
  O  O296  1  0.88167031  0.12733541  0.62971081  1
  O  O297  1  0.88358600  0.62562051  0.13094087  1
  O  O298  1  0.88277848  0.62723872  0.63563570  1
  O  O299  1  0.26273825  0.24797699  0.12380386  1
  O  O300  1  0.24654555  0.25449550  0.61229424  1
  O  O301  1  0.25244705  0.74742719  0.11527324  1
  O  O302  1  0.24399068  0.75857772  0.61790378  1
  O  O303  1  0.75486341  0.25749744  0.11238146  1
  O  O304  1  0.75373807  0.25650052  0.61656494  1
  O  O305  1  0.75099862  0.76130580  0.12203309  1
  O  O306  1  0.75103697  0.75559324  0.61481100  1
  O  O307  1  0.24127183  0.24992700  0.38877674  1
  O  O308  1  0.23945190  0.24097043  0.87366697  1
  O  O309  1  0.24055305  0.73891488  0.38403023  1
  O  O310  1  0.24443882  0.74225413  0.88078075  1
  O  O311  1  0.74433431  0.24678812  0.38584907  1
  O  O312  1  0.74293619  0.24350445  0.87818741  1
  O  O313  1  0.74693040  0.74230345  0.38368403  1
  O  O314  1  0.75706776  0.73045802  0.87181579  1
  O  O315  1  -0.00457481  0.11501010  0.00731328  1
  O  O316  1  -0.00029505  0.11429991  0.51126269  1
  O  O317  1  0.00121966  0.62580047  0.00341921  1
  O  O318  1  0.01951614  0.62942304  0.51184127  1
  O  O319  1  0.50440811  0.12011420  0.00445488  1
  O  O320  1  0.50482149  0.11934078  0.50935887  1
  O  O321  1  0.49848398  0.61669229  0.00354946  1
  O  O322  1  0.50441097  0.62816145  0.50946639  1
  O  O323  1  0.48366263  0.37367570  0.50894086  1
  O  O324  1  0.48813404  0.38643931  1.00528036  1
  O  O325  1  0.49497306  0.87786557  0.49680406  1
  O  O326  1  0.49321930  0.88141816  0.99247065  1
  O  O327  1  0.99612271  0.36953172  0.49936318  1
  O  O328  1  0.99897201  0.36618915  0.98354722  1
  O  O329  1  0.99211441  0.88057558  0.50922525  1
  O  O330  1  0.98127941  0.88611130  1.01250182  1
  O  O331  1  0.49034852  0.51057986  0.36638042  1
  O  O332  1  0.48986272  0.50902882  0.88271202  1
  O  O333  1  0.48981151  0.99381165  0.38151743  1
  O  O334  1  0.49381805  0.99409628  0.88085246  1
  O  O335  1  0.99634663  0.49387531  0.38227455  1
  O  O336  1  0.98530345  0.49013618  0.87306407  1
  O  O337  1  0.99261375  1.00474212  0.38899371  1
  O  O338  1  0.98709522  1.00641393  0.88249248  1
  O  O339  1  -0.00097793  0.01077630  0.11683495  1
  O  O340  1  0.00303611  0.00474431  0.61692961  1
  O  O341  1  0.00018213  0.51814327  0.12638102  1
  O  O342  1  -0.00404615  0.51056838  0.62347427  1
  O  O343  1  0.50798447  0.00582907  0.11946173  1
  O  O344  1  0.50862510  0.00574069  0.62172659  1
  O  O345  1  0.50468616  0.50719135  0.11476141  1
  O  O346  1  0.50985698  0.51255113  0.62685536  1
  O  O347  1  0.25651736  0.39350648  0.25226183  1
  O  O348  1  0.25165980  0.38369492  0.74427258  1
  O  O349  1  0.24315026  0.88358624  0.25039085  1
  O  O350  1  0.24302462  0.87711645  0.74429159  1
  O  O351  1  0.73503976  0.36618831  0.23084019  1
  O  O352  1  0.73684573  0.37454726  0.73624374  1
  O  O353  1  0.74213517  0.87090287  0.23778705  1
  O  O354  1  0.76061139  0.86734156  0.73321438  1
  O  O355  1  0.26265402  0.11434138  0.24755205  1
  O  O356  1  0.25533686  0.11851099  0.75569142  1
  O  O357  1  0.25539329  0.61873082  0.25687202  1
  O  O358  1  0.25724858  0.61964614  0.75613449  1
  O  O359  1  0.75178888  0.12527091  0.25060122  1
  O  O360  1  0.76061627  0.13379431  0.75632154  1
  O  O361  1  0.74862929  0.63260173  0.25464496  1
  O  O362  1  0.76149727  0.62265380  0.75614844  1
  O  O363  1  0.38236489  0.11280654  0.36640184  1
  O  O364  1  0.36608035  0.11853438  0.86752124  1
  O  O365  1  0.36329326  0.63375509  0.36420929  1
  O  O366  1  0.36622014  0.61799170  0.86722309  1
  O  O367  1  0.87318871  0.10951679  0.37737981  1
  O  O368  1  0.86781542  0.11987051  0.86567650  1
  O  O369  1  0.85726437  0.63107796  0.35799513  1
  O  O370  1  0.86969886  0.61142000  0.86989542  1
  O  O371  1  0.13012532  0.37905418  0.13073928  1
  O  O372  1  0.14215240  0.36936369  0.62937802  1
  O  O373  1  0.12783704  0.87841789  0.13868330  1
  O  O374  1  0.13432315  0.87662032  0.63416971  1
  O  O375  1  0.62975796  0.38206174  0.12826799  1
  O  O376  1  0.62960849  0.38263552  0.62956722  1
  O  O377  1  0.63785819  0.88642970  0.13058959  1
  O  O378  1  0.63506949  0.88491793  0.61961555  1
  O  O379  1  0.13198781  0.25100245  0.26290002  1
  O  O380  1  0.11114171  0.24536555  0.75638912  1
  O  O381  1  0.12356464  0.75702294  0.26055222  1
  O  O382  1  0.11982209  0.75347089  0.75683335  1
  O  O383  1  0.61305946  0.25869544  0.24885838  1
  O  O384  1  0.62210452  0.25780705  0.75619036  1
  O  O385  1  0.61689083  0.76599198  0.24728384  1
  O  O386  1  0.61482864  0.74516281  0.75040765  1
  O  O387  1  0.37785381  0.24500763  0.24551947  1
  O  O388  1  0.37446135  0.23564038  0.75798168  1
  O  O389  1  0.37665687  0.74302057  0.24530443  1
  O  O390  1  0.37687593  0.73690467  0.75382450  1
  O  O391  1  0.87056976  0.24793915  0.23101071  1
  O  O392  1  0.88336616  0.24003891  0.74239878  1
  O  O393  1  0.87657243  0.73691966  0.24970438  1
  O  O394  1  0.88603399  0.74097459  0.75397757  1
  O  O395  1  0.37657706  0.48670123  0.50325831  1
  O  O396  1  0.38090782  0.49442622  0.99234913  1
  O  O397  1  0.37943766  0.99304423  0.49394771  1
  O  O398  1  0.38018483  0.99581705  0.99669787  1
  O  O399  1  0.88578411  0.54198641  0.48474591  1
  O  O400  1  0.87271137  0.49756550  0.98686290  1
  O  O401  1  0.88235251  0.98965609  0.49342163  1
  O  O402  1  0.88247836  0.99660959  0.99079288  1
  O  O403  1  0.10855039  -0.01284518  -0.00118283  1
  O  O404  1  0.11806750  -0.00142424  0.50442548  1
  O  O405  1  0.13739395  0.50162281  -0.00996286  1
  O  O406  1  0.13206373  0.51216178  0.49678511  1
  O  O407  1  0.62072637  0.00849899  0.00895111  1
  O  O408  1  0.61890798  0.00784144  0.50773852  1
  O  O409  1  0.61226837  0.49669733  0.00559822  1
  O  O410  1  0.61909636  0.50507470  0.50756906  1
  O  O411  1  0.37232000  0.36699770  0.11823589  1
  O  O412  1  0.36083411  0.37265991  0.61659410  1
  O  O413  1  0.37238577  0.86904936  0.11880605  1
  O  O414  1  0.36244657  0.88243591  0.62081409  1
  O  O415  1  0.86239959  0.36971424  0.12680611  1
  O  O416  1  0.86023217  0.36949515  0.63202597  1
  O  O417  1  0.86095722  0.88075191  0.11834500  1
  O  O418  1  0.86714495  0.87153210  0.61177932  1
  O  O419  1  0.12326297  0.13744976  0.37420622  1
  O  O420  1  0.13368326  0.13123867  0.86711079  1
  O  O421  1  0.13294994  0.63037555  0.38853006  1
  O  O422  1  0.13857866  0.63513376  0.87345706  1
  O  O423  1  0.62099050  0.12337742  0.38948397  1
  O  O424  1  0.63210170  0.13284934  0.87728876  1
  O  O425  1  0.63574323  0.63141849  0.37639447  1
  O  O426  1  0.64264841  0.61372470  0.87547374  1
