# generated using pymatgen
data_V85Zn86O256
_symmetry_space_group_name_H-M   'P 1'
_cell_length_a   16.94499621
_cell_length_b   16.96045862
_cell_length_c   16.97488427
_cell_angle_alpha   90.04284084
_cell_angle_beta   90.14255400
_cell_angle_gamma   89.94764726
_symmetry_Int_Tables_number   1
_chemical_formula_structural   V85Zn86O256
_chemical_formula_sum   'V85 Zn86 O256'
_cell_volume   4878.47679305
_cell_formula_units_Z   1
loop_
 _symmetry_equiv_pos_site_id
 _symmetry_equiv_pos_as_xyz
  1  'x, y, z'
loop_
 _atom_site_type_symbol
 _atom_site_label
 _atom_site_symmetry_multiplicity
 _atom_site_fract_x
 _atom_site_fract_y
 _atom_site_fract_z
 _atom_site_occupancy
  V  V0  1  0.23505875  0.25237021  0.00036924  1
  V  V1  1  0.12479308  0.37594984  0.75744297  1
  V  V2  1  0.87330263  0.12486234  0.75673053  1
  V  V3  1  0.63106408  0.75154054  0.37746501  1
  V  V4  1  0.88470803  0.36950618  0.50105429  1
  V  V5  1  0.87489038  0.00097583  0.37941208  1
  V  V6  1  0.37605989  0.13699319  0.24997997  1
  V  V7  1  0.87227474  0.87351571  0.50230502  1
  V  V8  1  0.62496320  0.49691594  0.62686064  1
  V  V9  1  0.25263432  0.00403484  0.25292052  1
  V  V10  1  0.50376907  0.37302055  0.36523913  1
  V  V11  1  0.37444985  0.76012034  0.62159018  1
  V  V12  1  0.23972131  0.00048876  0.74934687  1
  V  V13  1  0.87520281  0.12579109  0.25393924  1
  V  V14  1  0.00970492  0.25469479  0.76182175  1
  V  V15  1  0.74703130  0.87473653  0.62626337  1
  V  V16  1  0.62387100  0.75090183  0.87248015  1
  V  V17  1  0.00732405  -0.00083010  0.50715721  1
  V  V18  1  0.50061015  0.50269647  0.00019024  1
  V  V19  1  0.88154543  0.37480830  -0.00058738  1
  V  V20  1  0.62730552  -0.00439565  0.12521897  1
  V  V21  1  0.87153282  0.24992828  0.12835166  1
  V  V22  1  0.49584104  0.14038134  0.12544040  1
  V  V23  1  0.12252453  0.87024134  0.75373527  1
  V  V24  1  0.49826248  0.00168971  -0.00064828  1
  V  V25  1  0.63062457  0.50029620  0.13381173  1
  V  V26  1  0.37347354  0.75158578  0.12403896  1
  V  V27  1  0.24482784  0.88211468  0.12344228  1
  V  V28  1  -0.00070257  0.61895204  0.61954702  1
  V  V29  1  0.75357767  0.76143112  0.00331715  1
  V  V30  1  0.12175172  0.61870880  0.49833443  1
  V  V31  1  0.50057501  0.75204148  0.24834077  1
  V  V32  1  0.87457623  0.62369683  0.74863329  1
  V  V33  1  0.24980856  0.62630660  0.37421323  1
  V  V34  1  0.74960311  0.37191136  0.61622880  1
  V  V35  1  -0.00569676  0.88386452  0.88063216  1
  V  V36  1  0.00144381  0.74888790  0.75636519  1
  V  V37  1  0.12283528  0.88250367  0.24714317  1
  V  V38  1  0.74600623  0.49079518  0.75145870  1
  V  V39  1  0.74913155  -0.00378687  0.24898919  1
  V  V40  1  0.25269781  0.75524893  0.49823510  1
  V  V41  1  0.37578440  0.49490245  0.37811692  1
  V  V42  1  0.24767670  0.50171949  0.74527881  1
  V  V43  1  0.37341018  0.62824857  0.74767169  1
  V  V44  1  0.24204618  0.88033754  0.62229937  1
  V  V45  1  0.00218474  0.25037988  0.25326997  1
  V  V46  1  0.49180629  0.87662249  0.37647281  1
  V  V47  1  0.26475255  0.24757294  0.49993124  1
  V  V48  1  0.00081549  0.75020821  0.25006907  1
  V  V49  1  0.36868724  0.00054516  0.87599124  1
  V  V50  1  0.12001925  0.10497458  0.00765314  1
  V  V51  1  0.49788553  0.87859402  0.87183517  1
  V  V52  1  0.74615921  0.12891655  0.39288272  1
  V  V53  1  0.49894195  0.49641447  0.49827018  1
  V  V54  1  0.63495348  0.25690631  0.87195585  1
  V  V55  1  0.37450974  0.50192780  0.87350178  1
  V  V56  1  0.00345504  0.11290633  0.12752097  1
  V  V57  1  0.25662607  0.37100008  0.12601388  1
  V  V58  1  0.50282619  0.00310019  0.50093416  1
  V  V59  1  0.24198102  0.63125137  0.87214985  1
  V  V60  1  0.87136673  0.61847584  0.24865592  1
  V  V61  1  0.13079638  0.12389356  0.50512381  1
  V  V62  1  0.88320731  0.49553189  0.87657868  1
  V  V63  1  0.00853202  0.12881142  0.62619250  1
  V  V64  1  0.37599966  0.36212053  0.00138712  1
  V  V65  1  0.12633596  0.37650557  0.24632625  1
  V  V66  1  0.63118458  0.62849335  0.50017095  1
  V  V67  1  0.62494052  0.24658948  0.38183578  1
  V  V68  1  0.88124169  0.49972327  0.38187444  1
  V  V69  1  0.49793791  0.75297654  0.74781787  1
  V  V70  1  0.24430952  0.75092722  -0.00313321  1
  V  V71  1  0.26210161  0.37663127  0.61573239  1
  V  V72  1  0.50558579  0.37528416  0.87141733  1
  V  V73  1  0.74935220  0.62501792  0.87563190  1
  V  V74  1  0.24152156  0.12887541  0.87920801  1
  V  V75  1  0.87013414  0.74965934  0.62247732  1
  V  V76  1  0.37364325  0.62561121  0.24869643  1
  V  V77  1  0.74967985  0.61860993  0.37171421  1
  V  V78  1  0.00322287  0.61883703  0.12457821  1
  V  V79  1  0.24659824  0.50109292  0.24303677  1
  V  V80  1  0.12997166  0.24421232  0.37715796  1
  V  V81  1  0.62220156  0.88179458  0.74661759  1
  V  V82  1  0.63286719  0.12845202  -0.00456350  1
  V  V83  1  0.49765389  0.62672802  0.12304517  1
  V  V84  1  0.12445636  0.61989756  0.00340522  1
  Zn  Zn85  1  0.75549123  0.25030880  -0.00052980  1
  Zn  Zn86  1  0.87136807  0.24688508  0.62293334  1
  Zn  Zn87  1  0.86766511  0.75415210  0.12947818  1
  Zn  Zn88  1  0.37590669  0.13891778  0.73906683  1
  Zn  Zn89  1  0.50694709  0.25865678  0.73595763  1
  Zn  Zn90  1  0.00179580  0.87491924  0.37804127  1
  Zn  Zn91  1  0.63286113  0.36260000  0.24671166  1
  Zn  Zn92  1  0.00772560  0.49301481  0.00027075  1
  Zn  Zn93  1  0.37005294  0.00469658  0.37877120  1
  Zn  Zn94  1  0.74698342  0.00854254  0.75315588  1
  Zn  Zn95  1  0.63286252  0.02103509  0.60932994  1
  Zn  Zn96  1  0.88272079  0.89254696  0.01615339  1
  Zn  Zn97  1  0.49863558  0.62694220  0.62206734  1
  Zn  Zn98  1  0.49901042  0.14405052  0.61046088  1
  Zn  Zn99  1  0.76031318  0.38839343  0.13477407  1
  Zn  Zn100  1  0.86358737  0.01133974  0.88831301  1
  Zn  Zn101  1  0.37362062  0.87516547  0.00154692  1
  Zn  Zn102  1  0.62965086  0.87218841  0.24622963  1
  Zn  Zn103  1  0.12495130  0.75165075  0.37529019  1
  Zn  Zn104  1  0.00856763  0.38064838  0.38386578  1
  Zn  Zn105  1  0.11814426  0.49374184  0.61803802  1
  Zn  Zn106  1  0.62563000  0.62689040  -0.00015207  1
  Zn  Zn107  1  0.19035574  0.18866408  0.18492010  1
  Zn  Zn108  1  0.21466031  0.20868500  0.70325613  1
  Zn  Zn109  1  0.18476540  0.69133578  0.18455946  1
  Zn  Zn110  1  0.18457701  0.68927738  0.68239697  1
  Zn  Zn111  1  0.68472590  0.18220527  0.19525454  1
  Zn  Zn112  1  0.68409867  0.19310768  0.68601240  1
  Zn  Zn113  1  0.68522774  0.68457531  0.18710076  1
  Zn  Zn114  1  0.68679056  0.68714484  0.68810161  1
  Zn  Zn115  1  0.31308451  0.31294323  0.31630126  1
  Zn  Zn116  1  0.31204475  0.31618160  0.81568278  1
  Zn  Zn117  1  0.31020493  0.81383262  0.30901075  1
  Zn  Zn118  1  0.31258738  0.81496492  0.81119285  1
  Zn  Zn119  1  0.80827654  0.31456775  0.31394412  1
  Zn  Zn120  1  0.81955498  0.31035388  0.81041235  1
  Zn  Zn121  1  0.81402012  0.80964657  0.31552281  1
  Zn  Zn122  1  0.81232508  0.81523802  0.81259497  1
  Zn  Zn123  1  0.19042297  0.43591691  0.43434728  1
  Zn  Zn124  1  0.19086105  0.44070533  0.93710423  1
  Zn  Zn125  1  0.18707014  0.93774231  0.43262596  1
  Zn  Zn126  1  0.17916615  0.93275466  0.93539567  1
  Zn  Zn127  1  0.68921886  0.43617278  0.43627139  1
  Zn  Zn128  1  0.69395801  0.43563080  0.94618581  1
  Zn  Zn129  1  0.68688232  0.93706776  0.43545021  1
  Zn  Zn130  1  0.68715077  0.94322926  0.93179440  1
  Zn  Zn131  1  0.31279349  0.06667378  0.06504302  1
  Zn  Zn132  1  0.32153883  0.06371409  0.56048788  1
  Zn  Zn133  1  0.31233752  0.56089218  0.06025972  1
  Zn  Zn134  1  0.31174150  0.56661666  0.56154800  1
  Zn  Zn135  1  0.81383660  0.06148845  0.06612323  1
  Zn  Zn136  1  0.81978067  0.05881570  0.57213412  1
  Zn  Zn137  1  0.81682608  0.56706710  0.06004275  1
  Zn  Zn138  1  0.81212416  0.55885483  0.55973997  1
  Zn  Zn139  1  0.43842848  0.43691545  0.18699346  1
  Zn  Zn140  1  0.43832089  0.43846227  0.68712907  1
  Zn  Zn141  1  0.43678870  0.94014150  0.18777621  1
  Zn  Zn142  1  0.42017488  0.96638203  0.67173007  1
  Zn  Zn143  1  0.93947876  0.43765038  0.19062256  1
  Zn  Zn144  1  0.93557652  0.43529334  0.68910004  1
  Zn  Zn145  1  0.93196215  0.93458455  0.19021162  1
  Zn  Zn146  1  0.94002512  0.94008812  0.68850965  1
  Zn  Zn147  1  0.06394014  0.06151941  0.31673297  1
  Zn  Zn148  1  0.06334875  0.06312807  0.81398713  1
  Zn  Zn149  1  0.06209562  0.56308664  0.31338413  1
  Zn  Zn150  1  0.06455323  0.56271097  0.80893902  1
  Zn  Zn151  1  0.56260340  0.06581067  0.31037510  1
  Zn  Zn152  1  0.57018212  0.08862705  0.78494291  1
  Zn  Zn153  1  0.56056783  0.56509428  0.31213181  1
  Zn  Zn154  1  0.56125968  0.56445491  0.81016559  1
  Zn  Zn155  1  0.44375659  0.18451648  0.43216696  1
  Zn  Zn156  1  0.45184868  0.17507076  0.90845174  1
  Zn  Zn157  1  0.43931299  0.68635632  0.43701564  1
  Zn  Zn158  1  0.43318908  0.68987116  0.93515467  1
  Zn  Zn159  1  0.94079971  0.18897923  0.43826543  1
  Zn  Zn160  1  0.94437264  0.18906071  0.94133626  1
  Zn  Zn161  1  0.93669605  0.68893511  0.43591956  1
  Zn  Zn162  1  0.93625790  0.68784366  0.93849137  1
  Zn  Zn163  1  0.05954210  0.31097165  0.06934252  1
  Zn  Zn164  1  0.06932765  0.30962200  0.56951612  1
  Zn  Zn165  1  0.06164126  0.80848385  0.06431510  1
  Zn  Zn166  1  0.06280921  0.80737590  0.56515999  1
  Zn  Zn167  1  0.56654836  0.31654869  0.05661880  1
  Zn  Zn168  1  0.56346826  0.31288787  0.55633416  1
  Zn  Zn169  1  0.56512646  0.81375724  0.05839996  1
  Zn  Zn170  1  0.56041274  0.81639153  0.55993373  1
  O  O171  1  0.11877698  0.12950186  0.11537324  1
  O  O172  1  0.11907375  0.13114849  0.61281433  1
  O  O173  1  0.11719509  0.62788875  0.11583364  1
  O  O174  1  0.11621491  0.62342994  0.61587596  1
  O  O175  1  0.61260063  0.11778930  0.11852409  1
  O  O176  1  0.60272969  0.11624366  0.66653169  1
  O  O177  1  0.61562234  0.61636690  0.12063445  1
  O  O178  1  0.62542902  0.61734888  0.61667462  1
  O  O179  1  0.38456638  0.38782278  0.36861941  1
  O  O180  1  0.38041297  0.38211680  0.88342842  1
  O  O181  1  0.38955233  0.87520777  0.36696446  1
  O  O182  1  0.37755155  0.88430193  0.87893283  1
  O  O183  1  0.87560296  0.38069832  0.38776653  1
  O  O184  1  0.86924594  0.38492828  0.88554361  1
  O  O185  1  0.87582861  0.87988734  0.38779126  1
  O  O186  1  0.88870876  0.87741791  0.87162908  1
  O  O187  1  0.25383982  -0.00443551  0.35945654  1
  O  O188  1  0.25053003  0.00261489  0.87225004  1
  O  O189  1  0.25922131  0.50429251  0.36646339  1
  O  O190  1  0.25580933  0.51132375  0.86740072  1
  O  O191  1  0.75379444  0.01105826  0.37137932  1
  O  O192  1  0.75313406  -0.00074568  0.86379211  1
  O  O193  1  0.75870558  0.51218315  0.37613657  1
  O  O194  1  0.75478720  0.50630761  0.86920998  1
  O  O195  1  0.25468854  0.49116019  0.13594303  1
  O  O196  1  0.24905882  0.49140250  0.62529907  1
  O  O197  1  0.25501016  0.98807241  0.13181995  1
  O  O198  1  0.25781703  0.98929824  0.63646250  1
  O  O199  1  0.73290658  0.50868504  0.11618000  1
  O  O200  1  0.74452840  0.49520874  0.63273504  1
  O  O201  1  0.73853814  1.01037454  0.13798335  1
  O  O202  1  0.74643985  0.99158190  0.63388874  1
  O  O203  1  0.01222680  0.36944904  0.25091659  1
  O  O204  1  0.00736615  0.36214638  0.74266168  1
  O  O205  1  0.00755095  0.86782932  0.25099432  1
  O  O206  1  0.00448552  0.86833407  0.75441260  1
  O  O207  1  0.50732757  0.38234781  0.26126774  1
  O  O208  1  0.49096683  0.37294328  0.76645010  1
  O  O209  1  0.50460891  0.87034535  0.25823409  1
  O  O210  1  0.50495112  0.87043807  0.75371957  1
  O  O211  1  0.49149398  0.12173560  0.23347520  1
  O  O212  1  0.47843634  0.15661050  0.78938194  1
  O  O213  1  0.49278271  0.63211013  0.24381786  1
  O  O214  1  0.49270917  0.63406980  0.74673996  1
  O  O215  1  0.99715974  0.13098827  0.24815732  1
  O  O216  1  1.00244606  0.13561135  0.74426613  1
  O  O217  1  0.99538327  0.63108702  0.24392694  1
  O  O218  1  0.99513203  0.63179491  0.74183136  1
  O  O219  1  0.36876279  0.26219608  -0.00701659  1
  O  O220  1  0.36326704  0.24298292  0.49229173  1
  O  O221  1  0.36262606  0.75133179  0.00553721  1
  O  O222  1  0.36368673  0.74351220  0.50828333  1
  O  O223  1  0.87717743  0.25535798  0.00928572  1
  O  O224  1  0.87722167  0.26480649  0.50082999  1
  O  O225  1  0.85936773  0.75056062  -0.00222888  1
  O  O226  1  0.88281365  0.76225753  0.51067443  1
  O  O227  1  0.13062315  0.24256728  0.49271392  1
  O  O228  1  0.13328973  0.25187917  1.00209598  1
  O  O229  1  0.13540116  0.74114963  0.49905888  1
  O  O230  1  0.13805709  0.73890931  1.00315934  1
  O  O231  1  0.62959054  0.25349620  0.48302582  1
  O  O232  1  0.63315828  0.24544390  0.99551778  1
  O  O233  1  0.61660935  0.73870103  0.48973890  1
  O  O234  1  0.63401718  0.74813527  0.99063558  1
  O  O235  1  0.50565055  0.23857361  0.11809632  1
  O  O236  1  0.49764842  0.25620874  0.62415607  1
  O  O237  1  0.49537614  0.74704604  0.12682511  1
  O  O238  1  0.48948917  0.75213651  0.62711491  1
  O  O239  1  0.99178275  0.24104079  0.13483993  1
  O  O240  1  0.99895866  0.23976272  0.63123366  1
  O  O241  1  0.99942244  0.73933243  0.13670084  1
  O  O242  1  0.98928320  0.74234441  0.63412335  1
  O  O243  1  0.01195190  0.25406620  0.37069877  1
  O  O244  1  0.00414916  0.24868784  0.86034226  1
  O  O245  1  0.00104977  0.75130431  0.36238629  1
  O  O246  1  -0.00860571  0.75452875  0.85981377  1
  O  O247  1  0.51248041  0.26031870  0.38002888  1
  O  O248  1  0.51492308  0.26916631  0.89166883  1
  O  O249  1  0.50636019  0.75776396  0.36924974  1
  O  O250  1  0.50217381  0.75696633  0.86917143  1
  O  O251  1  0.24594840  0.13819711  0.51088262  1
  O  O252  1  0.23570186  0.13103084  1.00240921  1
  O  O253  1  0.24218699  0.63447956  0.49478840  1
  O  O254  1  0.24450209  0.63003704  0.99317344  1
  O  O255  1  0.75584918  0.11675265  0.49150451  1
  O  O256  1  0.73550965  0.12639270  1.00637568  1
  O  O257  1  0.73913502  0.62103900  0.49076536  1
  O  O258  1  0.74935859  0.63112473  0.98550219  1
  O  O259  1  0.25575338  0.37134864  0.00598296  1
  O  O260  1  0.25015853  0.36878931  0.50792723  1
  O  O261  1  0.24561358  0.86722995  0.00610513  1
  O  O262  1  0.24039987  0.86616396  0.50816923  1
  O  O263  1  0.76639125  0.37406854  0.01358205  1
  O  O264  1  0.76227823  0.38277598  0.50951757  1
  O  O265  1  0.74824673  0.86203041  -0.00736523  1
  O  O266  1  0.76236844  0.88324967  0.51220817  1
  O  O267  1  0.13741582  0.49007965  0.25925627  1
  O  O268  1  0.13031458  0.49526296  0.74327454  1
  O  O269  1  0.13330041  0.99146332  0.25425192  1
  O  O270  1  0.13155892  0.98707710  0.75329877  1
  O  O271  1  0.62116820  0.50566923  0.23463130  1
  O  O272  1  0.63359840  0.50631703  0.73884178  1
  O  O273  1  0.63163126  1.00160535  0.24196802  1
  O  O274  1  0.61837728  0.98517349  0.75318490  1
  O  O275  1  0.36751796  0.00756507  0.25027166  1
  O  O276  1  0.35807767  -0.00210053  0.76598740  1
  O  O277  1  0.36703386  0.50569857  0.25679737  1
  O  O278  1  0.36880784  0.50816306  0.75358270  1
  O  O279  1  0.86887944  0.00581870  0.25958506  1
  O  O280  1  0.88171072  0.01865079  0.74965975  1
  O  O281  1  0.87915034  0.51276145  0.25864937  1
  O  O282  1  0.86652202  0.50376683  0.75763621  1
  O  O283  1  0.12709251  0.36608130  0.36553844  1
  O  O284  1  0.13439184  0.38144319  0.85747109  1
  O  O285  1  0.12248731  0.87132995  0.36212855  1
  O  O286  1  0.11152112  0.87266626  0.86311542  1
  O  O287  1  0.62230199  0.36617009  0.37271211  1
  O  O288  1  0.61947136  0.36923780  0.88524690  1
  O  O289  1  0.62010900  0.86322616  0.37221792  1
  O  O290  1  0.61778137  0.86985240  0.86506621  1
  O  O291  1  0.38915314  0.12537072  0.12859487  1
  O  O292  1  0.40001391  0.08833413  0.64045890  1
  O  O293  1  0.37789289  0.63038340  0.12911705  1
  O  O294  1  0.37387089  0.63847099  0.63035579  1
  O  O295  1  0.88444369  0.13209772  0.13380460  1
  O  O296  1  0.88954796  0.12841715  0.63401062  1
  O  O297  1  0.88149615  0.63043652  0.13339280  1
  O  O298  1  0.87828350  0.63147359  0.62628515  1
  O  O299  1  0.25086111  0.26254759  0.11581241  1
  O  O300  1  0.24477063  0.26591234  0.60667606  1
  O  O301  1  0.25424037  0.75867840  0.11732870  1
  O  O302  1  0.25515805  0.75850650  0.61753217  1
  O  O303  1  0.76700393  0.24161215  0.12906480  1
  O  O304  1  0.75092707  0.26739691  0.63300165  1
  O  O305  1  0.74472676  0.74205086  0.10592532  1
  O  O306  1  0.76191206  0.75721819  0.63000645  1
  O  O307  1  0.24212861  0.25850919  0.39040440  1
  O  O308  1  0.25050379  0.23757956  0.88902931  1
  O  O309  1  0.25206038  0.74554486  0.38263706  1
  O  O310  1  0.25662614  0.74122703  0.88335757  1
  O  O311  1  0.74589973  0.23457079  0.37701679  1
  O  O312  1  0.73911041  0.26099931  0.87826884  1
  O  O313  1  0.73924432  0.73891145  0.37277040  1
  O  O314  1  0.74580899  0.74264499  0.87900328  1
  O  O315  1  0.01479896  0.12848538  0.01001749  1
  O  O316  1  0.00793147  0.11952902  0.50702225  1
  O  O317  1  0.00845775  0.62902133  0.00713297  1
  O  O318  1  0.00927143  0.63522588  0.50863654  1
  O  O319  1  0.50543401  0.11832587  0.00605451  1
  O  O320  1  0.50322503  0.10914200  0.49687328  1
  O  O321  1  0.49749716  0.61730712  0.00249341  1
  O  O322  1  0.51094090  0.61489935  0.49857627  1
  O  O323  1  0.50704265  0.39170052  0.48601588  1
  O  O324  1  0.49217733  0.38642928  0.99540494  1
  O  O325  1  0.50217267  0.87724210  0.48075801  1
  O  O326  1  0.49995682  0.88639094  0.99203147  1
  O  O327  1  0.98946756  0.37445230  0.50463218  1
  O  O328  1  0.98846603  0.37641806  1.00714076  1
  O  O329  1  0.99460524  0.88253550  0.50402911  1
  O  O330  1  1.00202195  0.86283647  0.98246189  1
  O  O331  1  0.49446610  0.49618799  0.37869336  1
  O  O332  1  0.49678114  0.49580599  0.88113585  1
  O  O333  1  0.50500923  0.98666107  0.37733326  1
  O  O334  1  0.48694327  0.99926886  0.88429454  1
  O  O335  1  0.98778996  0.49749855  0.37167107  1
  O  O336  1  0.98629264  0.50794781  0.87504648  1
  O  O337  1  0.99312847  1.00011874  0.38843590  1
  O  O338  1  0.99875090  0.98569784  0.87170206  1
  O  O339  1  -0.00292845  0.01455323  0.13648977  1
  O  O340  1  -0.00081478  0.01021699  0.61441703  1
  O  O341  1  -0.00506611  0.51503657  0.12321823  1
  O  O342  1  -0.00372997  0.51575894  0.63014573  1
  O  O343  1  0.50567435  0.00552014  0.11370656  1
  O  O344  1  0.50964234  -0.02161859  0.60263297  1
  O  O345  1  0.50495263  0.50644169  0.11704822  1
  O  O346  1  0.50738979  0.50111203  0.61718343  1
  O  O347  1  0.24772744  0.38096940  0.24402531  1
  O  O348  1  0.24403756  0.38289328  0.73798904  1
  O  O349  1  0.24283725  0.88140765  0.24160286  1
  O  O350  1  0.23994507  0.87887906  0.74573298  1
  O  O351  1  0.74720203  0.37765032  0.24572346  1
  O  O352  1  0.75883275  0.38765799  0.74100752  1
  O  O353  1  0.74978793  0.89120039  0.26107758  1
  O  O354  1  0.74007338  0.87290208  0.74043724  1
  O  O355  1  0.26496014  0.11599830  0.23528898  1
  O  O356  1  0.23328843  0.11030119  0.76512133  1
  O  O357  1  0.25219342  0.61890147  0.25231686  1
  O  O358  1  0.25147115  0.62422601  0.75462898  1
  O  O359  1  0.75715081  0.11430158  0.26178899  1
  O  O360  1  0.77142078  0.13246417  0.74203647  1
  O  O361  1  0.76095134  0.63088351  0.25824003  1
  O  O362  1  0.75455449  0.61710194  0.75756269  1
  O  O363  1  0.38808962  0.12125286  0.35320937  1
  O  O364  1  0.35452090  0.11227094  0.88590362  1
  O  O365  1  0.37058164  0.61752543  0.36761862  1
  O  O366  1  0.36497302  0.62186300  0.86755934  1
  O  O367  1  0.86617145  0.12193696  0.37488194  1
  O  O368  1  0.88632954  0.12911367  0.86030578  1
  O  O369  1  0.86880391  0.61943039  0.37139469  1
  O  O370  1  0.86633664  0.61735692  0.86970041  1
  O  O371  1  0.13631115  0.37051723  0.13919392  1
  O  O372  1  0.13507887  0.37913654  0.63293819  1
  O  O373  1  0.13355897  0.86908616  0.13487698  1
  O  O374  1  0.13392494  0.87071725  0.63533554  1
  O  O375  1  0.62270694  0.39224142  0.12464716  1
  O  O376  1  0.63412016  0.39067090  0.61426224  1
  O  O377  1  0.62036584  0.89049864  0.12565362  1
  O  O378  1  0.63555920  0.86926454  0.63065039  1
  O  O379  1  0.12587235  0.25526697  0.25841667  1
  O  O380  1  0.11676211  0.25843173  0.74481248  1
  O  O381  1  0.11744447  0.75888144  0.25130005  1
  O  O382  1  0.11330905  0.75746081  0.74343202  1
  O  O383  1  0.62809285  0.24722367  0.26878809  1
  O  O384  1  0.62468294  0.25360034  0.76979119  1
  O  O385  1  0.61945380  0.74926491  0.25846421  1
  O  O386  1  0.61841690  0.75801253  0.75276504  1
  O  O387  1  0.36707087  0.23661311  0.25030950  1
  O  O388  1  0.32407155  0.23762216  0.73997818  1
  O  O389  1  0.37905664  0.74461535  0.24327003  1
  O  O390  1  0.37777286  0.74806659  0.74090469  1
  O  O391  1  0.88238679  0.24580037  0.24759162  1
  O  O392  1  0.89134928  0.24368548  0.74677052  1
  O  O393  1  0.88353038  0.73887884  0.25323753  1
  O  O394  1  0.88037914  0.74404897  0.74086872  1
  O  O395  1  0.38476680  0.51093062  0.48763019  1
  O  O396  1  0.38332051  0.49524401  0.99358558  1
  O  O397  1  0.39202785  0.99991865  0.49210279  1
  O  O398  1  0.38039870  0.99878667  0.99480850  1
  O  O399  1  0.87429784  0.49108390  0.49061580  1
  O  O400  1  0.87818576  0.49410510  0.99267675  1
  O  O401  1  0.88578654  0.99144952  0.49991681  1
  O  O402  1  0.87858772  1.00326254  0.99919519  1
  O  O403  1  0.12606182  0.00653526  0.00859151  1
  O  O404  1  0.11853978  0.01109996  0.49208406  1
  O  O405  1  0.12440642  0.51360810  -0.00418633  1
  O  O406  1  0.13063432  0.51422239  0.49741541  1
  O  O407  1  0.61745946  0.00801540  0.00392430  1
  O  O408  1  0.61307644  -0.00325386  0.49671995  1
  O  O409  1  0.61248166  0.50252981  0.00553253  1
  O  O410  1  0.61946149  0.50938859  0.50555414  1
  O  O411  1  0.36706985  0.38019461  0.11550667  1
  O  O412  1  0.36097427  0.37967960  0.62594706  1
  O  O413  1  0.36452098  0.86927698  0.12365117  1
  O  O414  1  0.36098928  0.86604508  0.63136518  1
  O  O415  1  0.87959319  0.36549175  0.12157234  1
  O  O416  1  0.86910559  0.37719663  0.61329291  1
  O  O417  1  0.87689194  0.86572838  0.12458919  1
  O  O418  1  0.86856415  0.86960381  0.62304672  1
  O  O419  1  0.12411819  0.13596029  0.38603661  1
  O  O420  1  0.13084575  0.11673450  0.89497317  1
  O  O421  1  0.13129105  0.62819177  0.38102488  1
  O  O422  1  0.13618233  0.62363178  0.88072618  1
  O  O423  1  0.63610234  0.13215770  0.37542984  1
  O  O424  1  0.61762351  0.14480030  0.88460746  1
  O  O425  1  0.63107203  0.62996408  0.37944477  1
  O  O426  1  0.63401694  0.63097916  0.87300976  1
