# generated using pymatgen
data_V85Zn86O256
_symmetry_space_group_name_H-M   'P 1'
_cell_length_a   16.98860651
_cell_length_b   16.99339824
_cell_length_c   16.99107765
_cell_angle_alpha   90.05547279
_cell_angle_beta   89.97845646
_cell_angle_gamma   89.98100954
_symmetry_Int_Tables_number   1
_chemical_formula_structural   V85Zn86O256
_chemical_formula_sum   'V85 Zn86 O256'
_cell_volume   4905.22190758
_cell_formula_units_Z   1
loop_
 _symmetry_equiv_pos_site_id
 _symmetry_equiv_pos_as_xyz
  1  'x, y, z'
loop_
 _atom_site_type_symbol
 _atom_site_label
 _atom_site_symmetry_multiplicity
 _atom_site_fract_x
 _atom_site_fract_y
 _atom_site_fract_z
 _atom_site_occupancy
  V  V0  1  0.12628208  0.12543987  0.00360084  1
  V  V1  1  0.74967401  0.25179966  0.50278023  1
  V  V2  1  0.85210434  0.25271303  0.12339544  1
  V  V3  1  -0.00538191  0.38156696  0.87633257  1
  V  V4  1  -0.00734182  -0.00035872  -0.00028640  1
  V  V5  1  0.37468992  0.49635739  0.87575975  1
  V  V6  1  0.24902244  0.12417536  0.87831762  1
  V  V7  1  0.12867159  0.49330666  0.62863145  1
  V  V8  1  0.63214728  -0.00485499  0.12345277  1
  V  V9  1  0.62280940  0.75112041  0.37306507  1
  V  V10  1  0.37521946  0.50286529  0.37478381  1
  V  V11  1  0.62955946  -0.00054536  0.63357395  1
  V  V12  1  0.50045070  0.12634051  0.62670518  1
  V  V13  1  0.62761581  0.86914765  0.75124269  1
  V  V14  1  0.87396535  0.62475262  0.24806016  1
  V  V15  1  -0.00516990  0.87276420  0.38020328  1
  V  V16  1  0.13013220  0.74943032  0.87712965  1
  V  V17  1  0.76495969  0.75327146  0.50504878  1
  V  V18  1  0.12592644  0.74932617  0.37384859  1
  V  V19  1  0.62758740  0.62149512  0.50740788  1
  V  V20  1  -0.00129407  0.75095627  0.24999496  1
  V  V21  1  0.37507604  -0.00137308  0.87528783  1
  V  V22  1  0.37128198  0.86676582  -0.00199223  1
  V  V23  1  0.25164521  0.87426792  0.62368460  1
  V  V24  1  0.61721653  0.51241428  0.12827542  1
  V  V25  1  0.24927113  0.25481780  0.00541542  1
  V  V26  1  0.36427333  0.37689937  0.50269776  1
  V  V27  1  0.87318378  0.24420924  0.63273328  1
  V  V28  1  0.24881690  0.23409099  0.48951967  1
  V  V29  1  0.13142514  0.49923923  0.12231904  1
  V  V30  1  0.25025102  -0.00007877  0.74964324  1
  V  V31  1  0.00559704  0.00563991  0.49716345  1
  V  V32  1  0.37802041  0.87373406  0.49968827  1
  V  V33  1  0.86434105  0.75112610  0.12564856  1
  V  V34  1  0.62765034  0.37525855  0.24292252  1
  V  V35  1  0.50262326  0.49897692  0.50340832  1
  V  V36  1  0.62395265  0.12479534  0.50230398  1
  V  V37  1  0.77545262  0.09845487  0.86889177  1
  V  V38  1  0.50126945  -0.00177944  0.50070222  1
  V  V39  1  0.87631100  0.49749324  0.37400555  1
  V  V40  1  0.87165005  -0.00567614  0.38171519  1
  V  V41  1  -0.00177024  0.49691305  0.49827530  1
  V  V42  1  0.39475314  0.74794526  0.12783039  1
  V  V43  1  0.37003441  0.62454346  0.75013579  1
  V  V44  1  0.24976751  0.86256234  0.11839536  1
  V  V45  1  0.63552780  0.25339028  0.87910659  1
  V  V46  1  -0.00926967  0.75167064  0.74543785  1
  V  V47  1  0.12473000  -0.00473996  0.12607865  1
  V  V48  1  0.86700203  0.87431253  0.00414722  1
  V  V49  1  0.50397523  0.62182559  0.62595754  1
  V  V50  1  0.87484309  0.12410354  0.24912305  1
  V  V51  1  0.12440912  0.87426621  0.74903166  1
  V  V52  1  0.74870894  0.49727668  0.24514415  1
  V  V53  1  0.25947488  -0.00202833  0.24995796  1
  V  V54  1  0.87349862  0.61578149  0.76546152  1
  V  V55  1  0.38986280  0.62915830  0.24640733  1
  V  V56  1  0.12653978  0.62644996  0.50002416  1
  V  V57  1  0.50157891  0.00312141  -0.00010312  1
  V  V58  1  0.50320896  0.87181754  0.36808863  1
  V  V59  1  -0.00650598  0.87730940  0.87616587  1
  V  V60  1  0.76454565  0.87564543  0.62627044  1
  V  V61  1  0.50576651  0.86895707  0.87269643  1
  V  V62  1  0.73861787  0.50552393  0.75304367  1
  V  V63  1  0.37481894  0.37765711  0.00091136  1
  V  V64  1  0.74965047  0.74139569  -0.01414498  1
  V  V65  1  0.11671582  0.37459239  0.25025286  1
  V  V66  1  0.61999713  0.37724167  0.74407139  1
  V  V67  1  0.62401494  0.24951766  0.37518646  1
  V  V68  1  -0.00887309  0.62949270  0.62425569  1
  V  V69  1  0.00071365  0.62662613  0.12343102  1
  V  V70  1  0.74817344  0.12087710  0.37442835  1
  V  V71  1  0.36712844  0.25484998  0.62588596  1
  V  V72  1  0.37167097  0.25372559  0.12467857  1
  V  V73  1  -0.00215465  0.13425461  0.12698891  1
  V  V74  1  0.49902624  0.37505803  0.37707817  1
  V  V75  1  0.37427167  0.12584960  0.75063800  1
  V  V76  1  0.37554512  0.74932985  0.62459080  1
  V  V77  1  0.49683810  0.50548158  0.00350374  1
  V  V78  1  0.49915987  0.24908309  0.24731384  1
  V  V79  1  0.12660524  0.00650749  0.61769270  1
  V  V80  1  0.25320984  0.49755596  0.24718672  1
  V  V81  1  0.13174033  0.62927870  -0.00051394  1
  V  V82  1  0.49603811  0.25654065  0.75901751  1
  V  V83  1  0.75020225  0.62626176  0.37816453  1
  V  V84  1  0.62393501  0.62838142  -0.01724945  1
  Zn  Zn85  1  0.12767964  0.36261664  0.74885261  1
  Zn  Zn86  1  -0.00615663  0.24896386  0.75511316  1
  Zn  Zn87  1  0.85922084  0.37619205  -0.00464809  1
  Zn  Zn88  1  -0.00495868  0.36340667  0.36175651  1
  Zn  Zn89  1  0.00152797  0.12846295  0.61980751  1
  Zn  Zn90  1  0.12128637  0.25026069  0.87315179  1
  Zn  Zn91  1  -0.00779074  0.50166354  -0.00545674  1
  Zn  Zn92  1  0.50555909  0.74537763  0.75403629  1
  Zn  Zn93  1  0.75116947  -0.01008251  0.24358107  1
  Zn  Zn94  1  0.37213321  0.00408682  0.37858083  1
  Zn  Zn95  1  0.36782940  0.13418172  0.25513467  1
  Zn  Zn96  1  0.62799832  0.86238385  0.23784658  1
  Zn  Zn97  1  0.63335395  0.13628136  -0.00117105  1
  Zn  Zn98  1  0.74876947  0.38650914  0.62109940  1
  Zn  Zn99  1  0.25107962  0.48932934  0.74878902  1
  Zn  Zn100  1  0.25398581  0.62835155  0.37249135  1
  Zn  Zn101  1  0.87522770  0.37311182  0.50043861  1
  Zn  Zn102  1  0.12693162  0.87098663  0.24853843  1
  Zn  Zn103  1  0.25111938  0.62710366  0.87736509  1
  Zn  Zn104  1  0.25096136  0.75142846  0.49806629  1
  Zn  Zn105  1  0.11176547  0.22762673  0.39102065  1
  Zn  Zn106  1  0.50059196  0.12557439  0.12254227  1
  Zn  Zn107  1  0.16476703  0.16951626  0.22221174  1
  Zn  Zn108  1  0.18762094  0.18956492  0.68720849  1
  Zn  Zn109  1  0.19273824  0.68310846  0.19019010  1
  Zn  Zn110  1  0.18444183  0.68722944  0.68687417  1
  Zn  Zn111  1  0.68262461  0.17591521  0.18849179  1
  Zn  Zn112  1  0.69050915  0.18571756  0.69652635  1
  Zn  Zn113  1  0.68756404  0.68464167  0.18749905  1
  Zn  Zn114  1  0.69470813  0.69232381  0.68809050  1
  Zn  Zn115  1  0.30890564  0.31659808  0.31297550  1
  Zn  Zn116  1  0.30599667  0.31534079  0.81588337  1
  Zn  Zn117  1  0.31558650  0.81404812  0.30854486  1
  Zn  Zn118  1  0.31465026  0.81206946  0.80987041  1
  Zn  Zn119  1  0.81211698  0.31078370  0.31003514  1
  Zn  Zn120  1  0.81045475  0.32074511  0.81032431  1
  Zn  Zn121  1  0.80642028  0.81382892  0.31236746  1
  Zn  Zn122  1  0.81138015  0.81546663  0.81003994  1
  Zn  Zn123  1  0.18604250  0.43824077  0.43226287  1
  Zn  Zn124  1  0.18483858  0.43744179  0.93415523  1
  Zn  Zn125  1  0.18793961  0.93530596  0.43534186  1
  Zn  Zn126  1  0.18523952  0.93682268  0.93782446  1
  Zn  Zn127  1  0.68647746  0.43685268  0.43430510  1
  Zn  Zn128  1  0.68266560  0.43413083  0.92473773  1
  Zn  Zn129  1  0.68777041  0.93400852  0.44381409  1
  Zn  Zn130  1  0.69077406  0.93998278  0.93539174  1
  Zn  Zn131  1  0.31445475  0.06338383  0.06863327  1
  Zn  Zn132  1  0.31476406  0.06218411  0.56268010  1
  Zn  Zn133  1  0.31276100  0.56946206  0.06561404  1
  Zn  Zn134  1  0.31162191  0.56336958  0.56200662  1
  Zn  Zn135  1  0.80929240  0.07110112  0.05233179  1
  Zn  Zn136  1  0.81205392  0.06076527  0.56254284  1
  Zn  Zn137  1  0.79129071  0.52772948  0.03310857  1
  Zn  Zn138  1  0.81153017  0.56270975  0.56742441  1
  Zn  Zn139  1  0.43702588  0.43664168  0.18569997  1
  Zn  Zn140  1  0.43523689  0.43767179  0.68642776  1
  Zn  Zn141  1  0.44290168  0.93085166  0.18279371  1
  Zn  Zn142  1  0.44082492  0.93715514  0.68794409  1
  Zn  Zn143  1  0.92960380  0.44457147  0.16449679  1
  Zn  Zn144  1  0.93691804  0.43293975  0.68730861  1
  Zn  Zn145  1  0.93606457  0.93594378  0.18995702  1
  Zn  Zn146  1  0.94268847  0.95013171  0.69205787  1
  Zn  Zn147  1  0.05941826  0.05900464  0.31207918  1
  Zn  Zn148  1  0.06533316  0.06087280  0.81478151  1
  Zn  Zn149  1  0.06257132  0.56102482  0.30894964  1
  Zn  Zn150  1  0.05921501  0.56325632  0.81294844  1
  Zn  Zn151  1  0.55978121  0.06071333  0.31261301  1
  Zn  Zn152  1  0.56421507  0.06611670  0.81430981  1
  Zn  Zn153  1  0.56431036  0.56308613  0.31954323  1
  Zn  Zn154  1  0.55570182  0.55809403  0.81273480  1
  Zn  Zn155  1  0.43429102  0.18487215  0.43543033  1
  Zn  Zn156  1  0.43599195  0.18767798  0.93764258  1
  Zn  Zn157  1  0.43906614  0.68768329  0.43711964  1
  Zn  Zn158  1  0.43874693  0.68581305  0.93800309  1
  Zn  Zn159  1  0.93285803  0.18433957  0.43719502  1
  Zn  Zn160  1  0.93301510  0.19698698  0.94136970  1
  Zn  Zn161  1  0.93958428  0.68328928  0.43500177  1
  Zn  Zn162  1  0.94178418  0.69080575  0.93876112  1
  Zn  Zn163  1  0.06283944  0.31539178  0.06101047  1
  Zn  Zn164  1  0.06033971  0.30871793  0.55806186  1
  Zn  Zn165  1  0.05979307  0.81139727  0.06070009  1
  Zn  Zn166  1  0.06095328  0.81585519  0.56238731  1
  Zn  Zn167  1  0.55936435  0.32134878  0.06057600  1
  Zn  Zn168  1  0.55845589  0.31217728  0.56610113  1
  Zn  Zn169  1  0.56668668  0.81380861  0.05427051  1
  Zn  Zn170  1  0.56655299  0.80978416  0.56246419  1
  O  O171  1  0.11578358  0.11377302  0.12442681  1
  O  O172  1  0.12354808  0.10912574  0.62943595  1
  O  O173  1  0.11984855  0.62535240  0.11781866  1
  O  O174  1  0.11465186  0.62058027  0.61539888  1
  O  O175  1  0.61837682  0.11504356  0.11380814  1
  O  O176  1  0.62218653  0.11868949  0.62393705  1
  O  O177  1  0.62135435  0.61460757  0.12524260  1
  O  O178  1  0.61675118  0.63385310  0.61750965  1
  O  O179  1  0.38069010  0.38230144  0.38327991  1
  O  O180  1  0.37091273  0.38635081  0.88684354  1
  O  O181  1  0.38592636  0.87615677  0.38052850  1
  O  O182  1  0.38104403  0.87877364  0.88021480  1
  O  O183  1  0.87564078  0.38680597  0.37461929  1
  O  O184  1  0.88884826  0.36966564  0.87736348  1
  O  O185  1  0.88419306  0.88330715  0.36891800  1
  O  O186  1  0.88736977  0.86836049  0.88450516  1
  O  O187  1  0.24935445  -0.01208403  0.35322094  1
  O  O188  1  0.25456061  0.00324600  0.86974235  1
  O  O189  1  0.25806785  0.50476299  0.36713549  1
  O  O190  1  0.26197697  0.50630792  0.87505563  1
  O  O191  1  0.75825805  0.00415769  0.38371941  1
  O  O192  1  0.76209792  -0.00276702  0.86848573  1
  O  O193  1  0.75754986  0.50573086  0.36884284  1
  O  O194  1  0.74922437  0.50422420  0.85239376  1
  O  O195  1  0.24071728  0.50945559  0.13313731  1
  O  O196  1  0.23161483  0.50532622  0.62144048  1
  O  O197  1  0.24322822  0.98593471  0.12688203  1
  O  O198  1  0.24494987  0.99477681  0.62920749  1
  O  O199  1  0.73691736  0.50711401  0.14345059  1
  O  O200  1  0.75452672  0.50081686  0.64085482  1
  O  O201  1  0.73445872  1.00612159  0.11733859  1
  O  O202  1  0.74004274  0.98772187  0.61734646  1
  O  O203  1  0.01376601  0.38851357  0.24525601  1
  O  O204  1  0.00281409  0.37386470  0.76210838  1
  O  O205  1  0.00348755  0.86859565  0.26013364  1
  O  O206  1  0.00230366  0.87084243  0.75704125  1
  O  O207  1  0.50683301  0.36778680  0.25585443  1
  O  O208  1  0.50529298  0.36636971  0.74197311  1
  O  O209  1  0.50853953  0.87902063  0.26387255  1
  O  O210  1  0.50729544  0.87259117  0.75700959  1
  O  O211  1  0.50366839  0.14307051  0.24850501  1
  O  O212  1  0.49285675  0.13416064  0.74567344  1
  O  O213  1  0.48884760  0.61818893  0.25409783  1
  O  O214  1  0.49091000  0.62493099  0.74268189  1
  O  O215  1  0.98465329  0.11084029  0.23570029  1
  O  O216  1  0.98667586  0.10211122  0.73953360  1
  O  O217  1  0.99430113  0.63233193  0.24449802  1
  O  O218  1  0.99014414  0.63171655  0.74424067  1
  O  O219  1  0.37213130  0.25857150  0.00468321  1
  O  O220  1  0.36730118  0.25683882  0.50552737  1
  O  O221  1  0.38158764  0.76062988  0.00801334  1
  O  O222  1  0.37311478  0.75478927  0.50665496  1
  O  O223  1  0.87345900  0.25887196  0.02054522  1
  O  O224  1  0.86079320  0.25121341  0.50429351  1
  O  O225  1  0.86891348  0.75336844  0.00678074  1
  O  O226  1  0.86400272  0.74368545  0.49534430  1
  O  O227  1  0.14612733  0.25493572  0.50385373  1
  O  O228  1  0.13558875  0.24274630  1.00435045  1
  O  O229  1  0.12257435  0.74227498  0.49153553  1
  O  O230  1  0.11561303  0.74226255  0.98759323  1
  O  O231  1  0.62974990  0.24490702  0.49631318  1
  O  O232  1  0.61212865  0.25844945  0.98180377  1
  O  O233  1  0.63450640  0.73905108  0.49450603  1
  O  O234  1  0.63344545  0.73525271  1.00411627  1
  O  O235  1  0.49265810  0.25412929  0.13266971  1
  O  O236  1  0.48827780  0.24411854  0.63232107  1
  O  O237  1  0.49327914  0.76026139  0.12660207  1
  O  O238  1  0.49369112  0.73750552  0.62481537  1
  O  O239  1  0.99996232  0.23505220  0.12184064  1
  O  O240  1  0.98545299  0.24778442  0.62264357  1
  O  O241  1  0.99553224  0.74284542  0.13052956  1
  O  O242  1  1.00731795  0.74358754  0.63542378  1
  O  O243  1  0.00424389  0.25835419  0.39745274  1
  O  O244  1  0.00161191  0.25831463  0.87401172  1
  O  O245  1  0.00454998  0.75516911  0.37081586  1
  O  O246  1  0.00811662  0.75901587  0.86626444  1
  O  O247  1  0.50445338  0.25601559  0.36774964  1
  O  O248  1  0.49582046  0.25002206  0.86093477  1
  O  O249  1  0.51144536  0.75971873  0.38477165  1
  O  O250  1  0.49681863  0.76508197  0.87491223  1
  O  O251  1  0.25653750  0.13470885  0.49652314  1
  O  O252  1  0.24626623  0.12917449  0.99768046  1
  O  O253  1  0.23737301  0.62798012  0.49661200  1
  O  O254  1  0.23541238  0.62632193  0.99932247  1
  O  O255  1  0.74301158  0.13313746  0.49514162  1
  O  O256  1  0.74437720  0.11846284  0.97272223  1
  O  O257  1  0.74461346  0.63118206  0.49947827  1
  O  O258  1  0.73306836  0.62455166  1.00097583  1
  O  O259  1  0.25878380  0.36480362  -0.00408316  1
  O  O260  1  0.26246706  0.37329374  0.49504177  1
  O  O261  1  0.26225864  0.87990637  0.00447657  1
  O  O262  1  0.25898808  0.87426237  0.50566044  1
  O  O263  1  0.75478931  0.42020257  0.00455525  1
  O  O264  1  0.74692530  0.36339796  0.49990563  1
  O  O265  1  0.76210390  0.86399082  -0.00510337  1
  O  O266  1  0.74839510  0.86655942  0.51570849  1
  O  O267  1  0.13518481  0.49870483  0.24323614  1
  O  O268  1  0.12268226  0.50835849  0.73257715  1
  O  O269  1  0.13264792  0.99352208  0.23575950  1
  O  O270  1  0.13093324  0.99275490  0.74193960  1
  O  O271  1  0.62804940  0.49497464  0.24834356  1
  O  O272  1  0.63057819  0.49620121  0.75097566  1
  O  O273  1  0.62112307  1.00528597  0.22953601  1
  O  O274  1  0.61862102  0.99280346  0.73891994  1
  O  O275  1  0.36396824  -0.00849091  0.24420882  1
  O  O276  1  0.37022830  0.00491082  0.75418043  1
  O  O277  1  0.37119728  0.50576868  0.25271534  1
  O  O278  1  0.37627152  0.50703745  0.75844091  1
  O  O279  1  0.87147967  0.00505204  0.25910075  1
  O  O280  1  0.92023971  0.04882035  0.74691993  1
  O  O281  1  0.86669054  0.50401780  0.25454574  1
  O  O282  1  0.87338288  0.51362567  0.74889940  1
  O  O283  1  0.12126281  0.37843438  0.35796524  1
  O  O284  1  0.11328117  0.37152734  0.87292270  1
  O  O285  1  0.11558221  0.86310808  0.37323982  1
  O  O286  1  0.11615750  0.86862683  0.87070133  1
  O  O287  1  0.61795181  0.36962856  0.36644135  1
  O  O288  1  0.62073086  0.36579319  0.85820936  1
  O  O289  1  0.61789818  0.86461550  0.38317348  1
  O  O290  1  0.61666440  0.88378003  0.86379025  1
  O  O291  1  0.38223373  0.13842968  0.12863003  1
  O  O292  1  0.38030839  0.13279364  0.63171137  1
  O  O293  1  0.37422738  0.63794148  0.13216513  1
  O  O294  1  0.38197337  0.62848638  0.63107908  1
  O  O295  1  0.87729427  0.13277243  0.12843214  1
  O  O296  1  0.87491510  0.14051963  0.61571642  1
  O  O297  1  0.88702290  0.63661165  0.13106713  1
  O  O298  1  0.88868819  0.62486107  0.63062561  1
  O  O299  1  0.26360167  0.24400140  0.11186421  1
  O  O300  1  0.26318097  0.24305709  0.61490718  1
  O  O301  1  0.25170238  0.76077371  0.12644396  1
  O  O302  1  0.25558887  0.75655354  0.62403719  1
  O  O303  1  0.75278598  0.24244549  0.12656994  1
  O  O304  1  0.75717585  0.24794754  0.61774927  1
  O  O305  1  0.76100164  0.74100182  0.11629816  1
  O  O306  1  0.75133593  0.76535274  0.61869976  1
  O  O307  1  0.25245640  0.25152441  0.38814779  1
  O  O308  1  0.25022038  0.24069356  0.88876721  1
  O  O309  1  0.23736539  0.75081004  0.37460359  1
  O  O310  1  0.23412463  0.74923938  0.86589918  1
  O  O311  1  0.74397100  0.24286096  0.38250325  1
  O  O312  1  0.73544327  0.25866155  0.87507834  1
  O  O313  1  0.74407433  0.74493515  0.38622233  1
  O  O314  1  0.75574484  0.74842012  0.88693279  1
  O  O315  1  0.00372919  0.11537917  0.00941704  1
  O  O316  1  0.00189318  0.10940560  0.49761872  1
  O  O317  1  0.00770414  0.62448194  0.00939133  1
  O  O318  1  0.00662091  0.61880949  0.50547640  1
  O  O319  1  0.49952996  0.11101960  -0.00445870  1
  O  O320  1  0.50573175  0.12088898  0.50723590  1
  O  O321  1  0.51180744  0.61967685  -0.00110832  1
  O  O322  1  0.50803434  0.62003136  0.50735419  1
  O  O323  1  0.49285042  0.37953437  0.49619184  1
  O  O324  1  0.48631145  0.39131949  1.00151049  1
  O  O325  1  0.49615266  0.87938421  0.49646299  1
  O  O326  1  0.49276481  0.88251793  0.99060224  1
  O  O327  1  0.99922019  0.39216355  0.49869126  1
  O  O328  1  1.00134294  0.37539538  0.98582133  1
  O  O329  1  1.00318199  0.88241369  0.48633457  1
  O  O330  1  0.99073833  0.87926529  0.99405885  1
  O  O331  1  0.49466849  0.49428451  0.38383442  1
  O  O332  1  0.48463367  0.50642618  0.88817843  1
  O  O333  1  0.50530510  0.98804123  0.38424961  1
  O  O334  1  0.49451003  0.99173109  0.87991420  1
  O  O335  1  0.98955490  0.50416311  0.38132278  1
  O  O336  1  1.00196157  0.48813365  0.87662810  1
  O  O337  1  0.99482214  0.99128637  0.37881723  1
  O  O338  1  1.00970977  0.98804005  0.89040736  1
  O  O339  1  0.00746366  -0.00008049  0.11685246  1
  O  O340  1  0.01155509  -0.00467675  0.61019105  1
  O  O341  1  0.01687780  0.51982398  0.13554262  1
  O  O342  1  0.00623849  0.51025752  0.61596989  1
  O  O343  1  0.50490326  0.00030644  0.11345284  1
  O  O344  1  0.50812624  0.00653772  0.62086890  1
  O  O345  1  0.50474516  0.49942827  0.11515916  1
  O  O346  1  0.49448715  0.51387564  0.61934838  1
  O  O347  1  0.24372555  0.39248194  0.25261264  1
  O  O348  1  0.24154749  0.37696428  0.74992819  1
  O  O349  1  0.24760727  0.88065305  0.23595444  1
  O  O350  1  0.24549487  0.88083941  0.74406891  1
  O  O351  1  0.73696420  0.38515273  0.26030160  1
  O  O352  1  0.74112639  0.39008353  0.74706078  1
  O  O353  1  0.73914844  0.87939147  0.25394528  1
  O  O354  1  0.74232798  0.87015370  0.73625472  1
  O  O355  1  0.25645491  0.10050783  0.23040456  1
  O  O356  1  0.25573709  0.11928093  0.75661198  1
  O  O357  1  0.26086769  0.61453384  0.25299102  1
  O  O358  1  0.26209670  0.62011695  0.74693949  1
  O  O359  1  0.75474910  0.11294060  0.25748848  1
  O  O360  1  0.74764783  0.12939344  0.77486175  1
  O  O361  1  0.75434192  0.61679709  0.25865893  1
  O  O362  1  0.76450307  0.61992035  0.74454378  1
  O  O363  1  0.38397384  0.11542054  0.36511217  1
  O  O364  1  0.36882113  0.11783283  0.87029403  1
  O  O365  1  0.37571904  0.62079204  0.36742997  1
  O  O366  1  0.37330373  0.62108850  0.86628661  1
  O  O367  1  0.86965391  0.11405253  0.36727772  1
  O  O368  1  0.87332409  0.12101483  0.88246201  1
  O  O369  1  0.87048569  0.61597781  0.36802596  1
  O  O370  1  0.88356395  0.62412934  0.86439653  1
  O  O371  1  0.11811368  0.39423611  0.12900919  1
  O  O372  1  0.11392181  0.39241461  0.62390289  1
  O  O373  1  0.13134767  0.87947423  0.12058385  1
  O  O374  1  0.13128650  0.88227776  0.62986691  1
  O  O375  1  0.61790849  0.38775130  0.13846204  1
  O  O376  1  0.62883672  0.36630964  0.63857856  1
  O  O377  1  0.61979405  0.88959833  0.12177311  1
  O  O378  1  0.62820250  0.88320047  0.63292655  1
  O  O379  1  0.13493081  0.27825362  0.23210960  1
  O  O380  1  0.11279039  0.24336450  0.75119232  1
  O  O381  1  0.11862060  0.74664560  0.25942094  1
  O  O382  1  0.11359470  0.75399991  0.75648511  1
  O  O383  1  0.61923230  0.25730971  0.25344184  1
  O  O384  1  0.61497393  0.25698943  0.75857611  1
  O  O385  1  0.63162647  0.74468046  0.26856371  1
  O  O386  1  0.62309977  0.76349387  0.74505766  1
  O  O387  1  0.38158443  0.25735730  0.24200565  1
  O  O388  1  0.37726640  0.24766526  0.74391391  1
  O  O389  1  0.37247666  0.74089555  0.24057555  1
  O  O390  1  0.37827244  0.73975920  0.74394121  1
  O  O391  1  0.86509742  0.22947241  0.24616042  1
  O  O392  1  0.87206397  0.25270515  0.73513507  1
  O  O393  1  0.87718711  0.74545883  0.24396750  1
  O  O394  1  0.88597929  0.74088467  0.75544594  1
  O  O395  1  0.38001122  0.49444779  0.49651795  1
  O  O396  1  0.37715945  0.49834056  0.99759581  1
  O  O397  1  0.38353822  0.99162157  0.50127697  1
  O  O398  1  0.38231838  0.98970734  0.99637970  1
  O  O399  1  0.88084423  0.50249058  0.49026188  1
  O  O400  1  0.89410710  0.47994755  1.04998468  1
  O  O401  1  0.88520960  1.00362920  0.48755151  1
  O  O402  1  0.88545983  0.98866805  1.01176594  1
  O  O403  1  0.11797809  0.00336779  0.01013834  1
  O  O404  1  0.12036798  -0.00573236  0.50663512  1
  O  O405  1  0.12172101  0.51071269  0.00780126  1
  O  O406  1  0.11741232  0.50828134  0.50439834  1
  O  O407  1  0.61503011  -0.00344786  0.00586073  1
  O  O408  1  0.62003128  0.00588948  0.51146564  1
  O  O409  1  0.61465940  0.51241392  0.00626377  1
  O  O410  1  0.62093226  0.51356080  0.49392280  1
  O  O411  1  0.37665276  0.36656960  0.11388852  1
  O  O412  1  0.37981511  0.36574021  0.61419146  1
  O  O413  1  0.36932050  0.86568265  0.11675816  1
  O  O414  1  0.37195551  0.86925245  0.62103199  1
  O  O415  1  0.87180699  0.34747456  0.15158961  1
  O  O416  1  0.87108136  0.36190721  0.61927577  1
  O  O417  1  0.88326344  0.86125979  0.11585122  1
  O  O418  1  0.86255370  0.88871623  0.63605657  1
  O  O419  1  0.13202866  0.13891858  0.32910341  1
  O  O420  1  0.13168252  0.12294030  0.88614354  1
  O  O421  1  0.12114278  0.63354542  0.38355134  1
  O  O422  1  0.12282534  0.63254033  0.88172360  1
  O  O423  1  0.62816447  0.12956408  0.38108022  1
  O  O424  1  0.62059191  0.14537033  0.87502228  1
  O  O425  1  0.63020359  0.63160244  0.38674360  1
  O  O426  1  0.62052961  0.62424653  0.88424350  1
