# generated using pymatgen
data_V85Zn86O256
_symmetry_space_group_name_H-M   'P 1'
_cell_length_a   16.97439536
_cell_length_b   16.95407881
_cell_length_c   16.98866647
_cell_angle_alpha   90.07454983
_cell_angle_beta   89.92106238
_cell_angle_gamma   90.09367507
_symmetry_Int_Tables_number   1
_chemical_formula_structural   V85Zn86O256
_chemical_formula_sum   'V85 Zn86 O256'
_cell_volume   4889.07210530
_cell_formula_units_Z   1
loop_
 _symmetry_equiv_pos_site_id
 _symmetry_equiv_pos_as_xyz
  1  'x, y, z'
loop_
 _atom_site_type_symbol
 _atom_site_label
 _atom_site_symmetry_multiplicity
 _atom_site_fract_x
 _atom_site_fract_y
 _atom_site_fract_z
 _atom_site_occupancy
  V  V0  1  0.37944212  0.24860603  0.62239378  1
  V  V1  1  0.62191206  0.50007557  0.12047447  1
  V  V2  1  0.25241394  0.00122829  0.26265770  1
  V  V3  1  0.24626172  0.87388763  0.12205502  1
  V  V4  1  0.02617064  0.64476594  0.11499700  1
  V  V5  1  0.62571658  0.49313495  0.62820864  1
  V  V6  1  0.87260792  0.62032346  0.75167744  1
  V  V7  1  0.75199315  0.87017682  0.62090664  1
  V  V8  1  0.49905547  0.00148041  -0.00426943  1
  V  V9  1  0.63120789  0.62919255  0.49948296  1
  V  V10  1  0.87506987  0.37673335  0.00475134  1
  V  V11  1  0.14165650  0.12786266  -0.00373449  1
  V  V12  1  0.09312570  0.35662166  0.72176132  1
  V  V13  1  0.88159926  0.12600028  0.24970436  1
  V  V14  1  0.62794260  0.38013101  0.25234222  1
  V  V15  1  0.24831356  0.00447857  0.75448988  1
  V  V16  1  0.11676854  0.12854167  0.50032783  1
  V  V17  1  0.24926304  0.62510685  0.36355721  1
  V  V18  1  0.12464211  0.62294215  0.49776125  1
  V  V19  1  0.87281913  0.87498150  -0.00126217  1
  V  V20  1  0.62406807  0.74928523  0.87536202  1
  V  V21  1  0.00584813  0.74594655  0.75519907  1
  V  V22  1  0.11804611  0.00372128  0.63030608  1
  V  V23  1  0.37395532  0.12251520  0.26009061  1
  V  V24  1  0.00280532  0.12567431  0.12160095  1
  V  V25  1  0.62277541  -0.00454486  0.12750314  1
  V  V26  1  0.37326268  0.62267623  0.75966602  1
  V  V27  1  0.38168275  0.37506348  0.49110111  1
  V  V28  1  -0.00117845  0.62060934  0.62508687  1
  V  V29  1  0.75119665  0.38216052  0.13132192  1
  V  V30  1  0.50289951  0.49676622  0.49365420  1
  V  V31  1  0.50299677  0.25350676  0.25334557  1
  V  V32  1  0.74904747  0.62373767  0.37315350  1
  V  V33  1  0.62548552  0.25603694  0.37678846  1
  V  V34  1  0.62796328  0.12596338  0.50087790  1
  V  V35  1  0.25191136  0.24283622  0.49449379  1
  V  V36  1  0.74582537  -0.00308625  0.24994736  1
  V  V37  1  0.37157614  0.74579352  0.13370632  1
  V  V38  1  0.88851625  0.14211293  0.73791268  1
  V  V39  1  0.22908388  0.63601839  0.87702398  1
  V  V40  1  0.12637317  0.48811964  0.13295278  1
  V  V41  1  0.13753120  0.25534808  0.87896845  1
  V  V42  1  0.87489704  0.49856814  0.87783649  1
  V  V43  1  0.62846020  -0.00234817  0.62647395  1
  V  V44  1  0.49140339  0.62368544  0.13288202  1
  V  V45  1  0.87304256  0.49503112  0.37325754  1
  V  V46  1  0.87509791  0.00272639  0.87063265  1
  V  V47  1  0.00563382  0.36239410  0.36788560  1
  V  V48  1  0.25872726  0.37664342  0.62373479  1
  V  V49  1  -0.00566060  -0.01214711  0.49958090  1
  V  V50  1  0.75907756  0.37159574  0.61981574  1
  V  V51  1  0.62040177  0.75750621  0.36974932  1
  V  V52  1  0.24773142  0.74885442  0.49880500  1
  V  V53  1  0.76490316  0.25332823  0.50311944  1
  V  V54  1  0.36831981  0.86674510  -0.00239880  1
  V  V55  1  0.75396555  0.12510220  0.37493260  1
  V  V56  1  0.50050525  0.12741347  0.12317658  1
  V  V57  1  0.00455008  0.37096614  0.88224293  1
  V  V58  1  0.88027549  0.25049059  0.13035037  1
  V  V59  1  0.50054351  0.62417764  0.62442450  1
  V  V60  1  0.49883417  0.75072073  0.75030483  1
  V  V61  1  0.86486197  0.74938317  0.12762862  1
  V  V62  1  0.87004655  0.62033548  0.24538799  1
  V  V63  1  0.74784601  0.24843551  0.00119050  1
  V  V64  1  0.37833659  0.88007802  0.49395711  1
  V  V65  1  0.49714489  0.87550145  0.87333271  1
  V  V66  1  -0.00527777  0.49395139  0.49505017  1
  V  V67  1  0.24853654  0.48730889  0.24995267  1
  V  V68  1  0.37695730  0.50750237  0.37065406  1
  V  V69  1  0.11950625  0.87732092  0.25780347  1
  V  V70  1  0.37556628  0.26375874  0.11864770  1
  V  V71  1  0.37219095  0.12467242  0.75488013  1
  V  V72  1  0.51104649  0.26014927  0.74991839  1
  V  V73  1  0.25514173  0.49682045  0.75177509  1
  V  V74  1  0.00506507  0.86980230  0.87511498  1
  V  V75  1  0.37360973  0.74943097  0.62388153  1
  V  V76  1  0.49863190  0.38543019  0.88662342  1
  V  V77  1  -0.00672794  0.75692096  0.25837674  1
  V  V78  1  0.00603943  0.50608546  0.00668693  1
  V  V79  1  0.50297795  0.12156199  0.62606934  1
  V  V80  1  0.74408627  0.87528052  0.12644892  1
  V  V81  1  0.74628091  0.48972416  0.75126787  1
  V  V82  1  0.86955337  0.74701482  0.62089792  1
  V  V83  1  0.74486900  0.74829904  -0.00063318  1
  V  V84  1  0.12786046  0.49766282  0.61971755  1
  Zn  Zn85  1  0.00267261  0.00094365  -0.00249256  1
  Zn  Zn86  1  0.19169383  0.18427126  0.33036583  1
  Zn  Zn87  1  0.50150401  0.76987778  0.25125900  1
  Zn  Zn88  1  0.88268528  -0.01211596  0.36769753  1
  Zn  Zn89  1  0.75411835  0.00345271  0.74915532  1
  Zn  Zn90  1  0.12861879  0.87080933  0.75386130  1
  Zn  Zn91  1  0.11682612  0.75183578  0.37777480  1
  Zn  Zn92  1  0.50286542  -0.00442072  0.49544244  1
  Zn  Zn93  1  0.74534804  0.62038218  0.87744893  1
  Zn  Zn94  1  0.44932072  -0.06440241  0.33392720  1
  Zn  Zn95  1  0.46857354  0.49558250  0.00168956  1
  Zn  Zn96  1  0.62721472  0.87540645  0.74945062  1
  Zn  Zn97  1  0.12700586  0.35158355  0.25134835  1
  Zn  Zn98  1  0.62689168  0.12624418  -0.00578409  1
  Zn  Zn99  1  0.75136647  0.12724325  0.87120668  1
  Zn  Zn100  1  0.63167472  0.25402345  0.86895643  1
  Zn  Zn101  1  0.26646975  0.28216292  -0.00095554  1
  Zn  Zn102  1  0.12615740  0.00221423  0.12383218  1
  Zn  Zn103  1  0.61496370  0.62087624  -0.00107881  1
  Zn  Zn104  1  0.36667782  0.00489483  0.87935322  1
  Zn  Zn105  1  0.24609822  0.87573801  0.62662594  1
  Zn  Zn106  1  0.87397433  0.85832216  0.48921108  1
  Zn  Zn107  1  0.19479347  0.19027093  0.16910057  1
  Zn  Zn108  1  0.18796966  0.18790103  0.68321584  1
  Zn  Zn109  1  0.17851886  0.69552125  0.17547429  1
  Zn  Zn110  1  0.18792946  0.68239234  0.68682725  1
  Zn  Zn111  1  0.68993617  0.18668825  0.18641426  1
  Zn  Zn112  1  0.69821119  0.18451535  0.68829621  1
  Zn  Zn113  1  0.68273976  0.68288016  0.19042977  1
  Zn  Zn114  1  0.68705125  0.68387259  0.68932075  1
  Zn  Zn115  1  0.32210539  0.31330363  0.31065274  1
  Zn  Zn116  1  0.32153992  0.31227042  0.81193213  1
  Zn  Zn117  1  0.30623633  0.81198452  0.31051893  1
  Zn  Zn118  1  0.30762917  0.81372695  0.81358096  1
  Zn  Zn119  1  0.81408276  0.31260707  0.31458628  1
  Zn  Zn120  1  0.81692905  0.31376220  0.81349682  1
  Zn  Zn121  1  0.80324971  0.80977223  0.31599600  1
  Zn  Zn122  1  0.81209211  0.81469955  0.80900307  1
  Zn  Zn123  1  0.18783592  0.43381851  0.43376043  1
  Zn  Zn124  1  0.18853349  0.44880609  0.93847496  1
  Zn  Zn125  1  0.18519740  0.93871359  0.44176401  1
  Zn  Zn126  1  0.18530717  0.94133185  0.93762579  1
  Zn  Zn127  1  0.69179669  0.43837383  0.43934903  1
  Zn  Zn128  1  0.68251846  0.42967221  0.93592064  1
  Zn  Zn129  1  0.69253541  0.93762077  0.43929377  1
  Zn  Zn130  1  0.68701379  0.93753982  0.93696154  1
  Zn  Zn131  1  0.31632361  0.06010657  0.07147734  1
  Zn  Zn132  1  0.30771225  0.06231889  0.56821305  1
  Zn  Zn133  1  0.29812419  0.56675627  0.06261826  1
  Zn  Zn134  1  0.31412587  0.56429969  0.55916688  1
  Zn  Zn135  1  0.81430052  0.06160570  0.06055425  1
  Zn  Zn136  1  0.81448894  0.06602735  0.56695085  1
  Zn  Zn137  1  0.80869237  0.56391625  0.06092832  1
  Zn  Zn138  1  0.81145869  0.55924903  0.56149453  1
  Zn  Zn139  1  0.44192061  0.44104708  0.19364167  1
  Zn  Zn140  1  0.43803716  0.43886491  0.68550842  1
  Zn  Zn141  1  0.43189729  0.93847561  0.17551719  1
  Zn  Zn142  1  0.43526726  0.93725710  0.68597715  1
  Zn  Zn143  1  0.94343533  0.43818280  0.19057944  1
  Zn  Zn144  1  0.94025470  0.42551808  0.68246695  1
  Zn  Zn145  1  0.93492911  0.93911963  0.18400392  1
  Zn  Zn146  1  0.93785597  0.93541009  0.68794229  1
  Zn  Zn147  1  0.06244246  0.05866257  0.31507265  1
  Zn  Zn148  1  0.06086584  0.06816315  0.81634625  1
  Zn  Zn149  1  0.06258117  0.56405047  0.30529712  1
  Zn  Zn150  1  0.06271254  0.54656542  0.80665131  1
  Zn  Zn151  1  0.56676777  0.06810462  0.31335313  1
  Zn  Zn152  1  0.56606180  0.06761804  0.81285184  1
  Zn  Zn153  1  0.56280796  0.56547697  0.31054406  1
  Zn  Zn154  1  0.56013831  0.56193145  0.81237020  1
  Zn  Zn155  1  0.44237928  0.18464296  0.43779345  1
  Zn  Zn156  1  0.43973138  0.19169703  0.93391168  1
  Zn  Zn157  1  0.43979436  0.68729285  0.43637059  1
  Zn  Zn158  1  0.43602251  0.68432178  0.94185348  1
  Zn  Zn159  1  0.93927664  0.17954288  0.43766098  1
  Zn  Zn160  1  0.93900458  0.18744526  0.93706111  1
  Zn  Zn161  1  0.93553388  0.67936982  0.43697593  1
  Zn  Zn162  1  0.93441391  0.68781546  0.93873749  1
  Zn  Zn163  1  0.06556750  0.30957413  0.06049226  1
  Zn  Zn164  1  0.06148514  0.31403214  0.55142016  1
  Zn  Zn165  1  0.05656082  0.81649120  0.06846478  1
  Zn  Zn166  1  0.06095391  0.81188114  0.57068366  1
  Zn  Zn167  1  0.56244707  0.31581626  0.06211633  1
  Zn  Zn168  1  0.56728382  0.31216333  0.56319018  1
  Zn  Zn169  1  0.55631836  0.81111282  0.06248140  1
  Zn  Zn170  1  0.56284045  0.81218488  0.55974240  1
  O  O171  1  0.11751749  0.12569090  0.11325671  1
  O  O172  1  0.12938977  0.11530103  0.61395647  1
  O  O173  1  0.11955278  0.59811780  0.15141068  1
  O  O174  1  0.11906324  0.61631381  0.61890077  1
  O  O175  1  0.61432365  0.11822103  0.12264475  1
  O  O176  1  0.62113204  0.11690253  0.62182378  1
  O  O177  1  0.61379918  0.61535853  0.12443254  1
  O  O178  1  0.62186900  0.61671863  0.61724975  1
  O  O179  1  0.37541809  0.38669969  0.38615676  1
  O  O180  1  0.40039042  0.37105244  0.86576184  1
  O  O181  1  0.37072235  0.86950877  0.38975709  1
  O  O182  1  0.37832069  0.87728250  0.88274517  1
  O  O183  1  0.88435384  0.38802506  0.36597129  1
  O  O184  1  0.88403791  0.38023845  0.88541456  1
  O  O185  1  0.86344547  0.87774930  0.37982498  1
  O  O186  1  0.88162824  0.88092761  0.87892928  1
  O  O187  1  0.24801748  -0.00563140  0.36200781  1
  O  O188  1  0.24902764  -0.00031504  0.86004456  1
  O  O189  1  0.25670446  0.50654883  0.37030727  1
  O  O190  1  0.24289912  0.50697516  0.85329880  1
  O  O191  1  0.74574831  0.00852910  0.36441203  1
  O  O192  1  0.76169819  -0.00099860  0.87367739  1
  O  O193  1  0.76105356  0.50846562  0.37853067  1
  O  O194  1  0.75380826  0.49583628  0.86778316  1
  O  O195  1  0.24039593  0.50446945  0.14200212  1
  O  O196  1  0.24862370  0.49569283  0.62834540  1
  O  O197  1  0.25096083  0.98795073  0.13653165  1
  O  O198  1  0.23879823  0.99784281  0.63563618  1
  O  O199  1  0.74207819  0.48863544  0.12379413  1
  O  O200  1  0.74343541  0.49325629  0.63058974  1
  O  O201  1  0.74095244  0.99733258  0.12895428  1
  O  O202  1  0.74182093  0.99301651  0.62611937  1
  O  O203  1  0.00330111  0.37462228  0.26406277  1
  O  O204  1  0.00260700  0.39770352  0.77772099  1
  O  O205  1  0.00610003  0.86938853  0.24331786  1
  O  O206  1  -0.00097117  0.86245217  0.75858871  1
  O  O207  1  0.51285074  0.36162696  0.24702296  1
  O  O208  1  0.50114366  0.36206159  0.74386283  1
  O  O209  1  0.49640429  0.88354339  0.24773658  1
  O  O210  1  0.49890387  0.86815906  0.75520040  1
  O  O211  1  0.49638889  0.13442057  0.24110393  1
  O  O212  1  0.49454130  0.13105365  0.73916427  1
  O  O213  1  0.49708743  0.62161454  0.23462793  1
  O  O214  1  0.49082301  0.62920598  0.74437186  1
  O  O215  1  0.98914159  0.11659627  0.24106327  1
  O  O216  1  0.98797183  0.12749579  0.75469340  1
  O  O217  1  0.99285378  0.63746470  0.23606491  1
  O  O218  1  0.99040274  0.62327462  0.74601347  1
  O  O219  1  0.38333655  0.24911630  0.01396542  1
  O  O220  1  0.37377207  0.25635301  0.50209214  1
  O  O221  1  0.37858182  0.76277025  0.00744034  1
  O  O222  1  0.36769580  0.75416397  0.50611424  1
  O  O223  1  0.86888449  0.25656840  0.01138327  1
  O  O224  1  0.86330693  0.24230188  0.49850048  1
  O  O225  1  0.86431870  0.75466072  0.00623395  1
  O  O226  1  0.88081020  0.74163128  0.51665689  1
  O  O227  1  0.13224881  0.23613147  0.50745477  1
  O  O228  1  0.14003641  0.24862845  0.99683792  1
  O  O229  1  0.13163847  0.74460107  0.50161300  1
  O  O230  1  0.09993683  0.71143871  1.07375836  1
  O  O231  1  0.62908246  0.24579651  0.49057576  1
  O  O232  1  0.63824875  0.24989660  1.00583399  1
  O  O233  1  0.61641287  0.73409712  0.49140457  1
  O  O234  1  0.62575320  0.74997613  0.99029640  1
  O  O235  1  0.49795775  0.24344194  0.13230187  1
  O  O236  1  0.49984363  0.24282202  0.63199730  1
  O  O237  1  0.49113974  0.74148116  0.12722940  1
  O  O238  1  0.49264252  0.74414098  0.62885792  1
  O  O239  1  0.98833796  0.24213975  0.12074218  1
  O  O240  1  1.01680853  0.32581766  0.65541748  1
  O  O241  1  0.97884272  0.75105755  0.13872229  1
  O  O242  1  0.98997760  0.74057422  0.63508642  1
  O  O243  1  -0.00835572  0.26462555  0.38222641  1
  O  O244  1  0.01259593  0.26531534  0.88793963  1
  O  O245  1  -0.00342878  0.74279126  0.36216716  1
  O  O246  1  -0.00914018  0.75633331  0.86602993  1
  O  O247  1  0.51411815  0.24390419  0.36513633  1
  O  O248  1  0.50277313  0.25475931  0.85835383  1
  O  O249  1  0.51416451  0.74098342  0.37046335  1
  O  O250  1  0.50491948  0.75461415  0.87123830  1
  O  O251  1  0.24477473  0.13598762  0.50580241  1
  O  O252  1  0.24197210  0.12167166  1.00751974  1
  O  O253  1  0.24436973  0.63161890  0.49295513  1
  O  O254  1  0.24728779  0.61710870  0.97460655  1
  O  O255  1  0.74583932  0.13250620  0.49617341  1
  O  O256  1  0.75126411  0.13754434  1.00150373  1
  O  O257  1  0.73921252  0.61769162  0.49200381  1
  O  O258  1  0.74214415  0.63287919  0.99670196  1
  O  O259  1  0.28535136  0.41056575  -0.00769978  1
  O  O260  1  0.26153201  0.37041233  0.50668185  1
  O  O261  1  0.25766604  0.88421749  0.00834874  1
  O  O262  1  0.25614387  0.86303393  0.50221818  1
  O  O263  1  0.75557452  0.36907655  0.01253794  1
  O  O264  1  0.74593949  0.36512376  0.50684393  1
  O  O265  1  0.75267300  0.86847885  0.00639463  1
  O  O266  1  0.75551243  0.87890652  0.51714095  1
  O  O267  1  0.13335424  0.48738972  0.25171408  1
  O  O268  1  0.13031616  0.47616942  0.73574861  1
  O  O269  1  0.13181576  0.99415210  0.24721573  1
  O  O270  1  0.13046712  1.00614620  0.74490955  1
  O  O271  1  0.61583207  0.48771223  0.23931953  1
  O  O272  1  0.63525612  0.50910216  0.73932953  1
  O  O273  1  0.63505685  1.01148002  0.23772731  1
  O  O274  1  0.62477876  0.99931156  0.73671672  1
  O  O275  1  0.36868905  0.00817024  0.24834942  1
  O  O276  1  0.36701342  0.00798830  0.74800681  1
  O  O277  1  0.36800857  0.49378713  0.26419808  1
  O  O278  1  0.36750365  0.51273103  0.73851193  1
  O  O279  1  0.86399508  0.00946894  0.24674490  1
  O  O280  1  0.87776158  0.00432975  0.76000119  1
  O  O281  1  0.88409577  0.51327724  0.25805292  1
  O  O282  1  0.86776311  0.50440274  0.75473152  1
  O  O283  1  0.11026535  0.37294015  0.37620213  1
  O  O284  1  0.11909116  0.37024977  0.88312717  1
  O  O285  1  0.12866161  0.87218171  0.36192310  1
  O  O286  1  0.10945707  0.87836706  0.87481435  1
  O  O287  1  0.63477991  0.36570818  0.36591488  1
  O  O288  1  0.60841192  0.36824255  0.87462455  1
  O  O289  1  0.63087483  0.85544127  0.38745232  1
  O  O290  1  0.61696697  0.86582832  0.87310407  1
  O  O291  1  0.38744989  0.13206923  0.13416436  1
  O  O292  1  0.38572161  0.12822866  0.63007076  1
  O  O293  1  0.37608896  0.63612423  0.11556195  1
  O  O294  1  0.37944598  0.63486612  0.62740564  1
  O  O295  1  0.88205407  0.13179070  0.12988738  1
  O  O296  1  0.87765826  0.12574737  0.63872254  1
  O  O297  1  0.86679729  0.63191745  0.13465750  1
  O  O298  1  0.87744089  0.62580658  0.63402411  1
  O  O299  1  0.27100802  0.25598601  0.11697085  1
  O  O300  1  0.25989929  0.25886892  0.61568437  1
  O  O301  1  0.25739472  0.76409782  0.12938939  1
  O  O302  1  0.25692213  0.74596698  0.61519037  1
  O  O303  1  0.75939040  0.25825747  0.12035652  1
  O  O304  1  0.73894750  0.26091978  0.61385150  1
  O  O305  1  0.74628469  0.75537387  0.12105777  1
  O  O306  1  0.75893585  0.75486718  0.63337404  1
  O  O307  1  0.25724438  0.25759732  0.39030689  1
  O  O308  1  0.24453294  0.26835188  0.88417474  1
  O  O309  1  0.24801650  0.74129166  0.38416072  1
  O  O310  1  0.24166915  0.73578499  0.86292545  1
  O  O311  1  0.74536106  0.24612489  0.38268738  1
  O  O312  1  0.75182607  0.25613845  0.89039230  1
  O  O313  1  0.73596081  0.73303541  0.37434611  1
  O  O314  1  0.73886957  0.75107124  0.87860911  1
  O  O315  1  0.00802949  0.12731467  0.00957532  1
  O  O316  1  0.01346301  0.12041370  0.50403099  1
  O  O317  1  -0.01157850  0.61718658  0.01340840  1
  O  O318  1  0.00601232  0.61496950  0.50493442  1
  O  O319  1  0.49888504  0.11805636  0.00673723  1
  O  O320  1  0.50733444  0.12906978  0.51516632  1
  O  O321  1  0.49440894  0.61280727  0.00960750  1
  O  O322  1  0.50700307  0.61403803  0.50567950  1
  O  O323  1  0.49491745  0.38610011  0.50473083  1
  O  O324  1  0.49781924  0.37810686  0.99129389  1
  O  O325  1  0.48274520  0.87395162  0.50339873  1
  O  O326  1  0.48979775  0.88364330  0.99529745  1
  O  O327  1  1.00113363  0.38764859  0.48664818  1
  O  O328  1  0.99461425  0.38544281  0.99959506  1
  O  O329  1  0.99726721  0.88413409  0.50359794  1
  O  O330  1  0.99213904  0.87180064  0.99281675  1
  O  O331  1  0.49227701  0.50852781  0.38516320  1
  O  O332  1  0.50324091  0.49050681  0.88015753  1
  O  O333  1  0.49932200  1.01862519  0.38609851  1
  O  O334  1  0.50072911  0.99604756  0.88356689  1
  O  O335  1  0.99257482  0.49937848  0.37973045  1
  O  O336  1  0.99594421  0.49719643  0.89193940  1
  O  O337  1  0.99979103  1.00276365  0.39466475  1
  O  O338  1  0.99130485  0.98953172  0.87634417  1
  O  O339  1  0.00003036  0.01257365  0.12002260  1
  O  O340  1  0.00893683  -0.00411591  0.61564905  1
  O  O341  1  0.00602298  0.50778112  0.11999274  1
  O  O342  1  0.00517760  0.50092441  0.61479649  1
  O  O343  1  0.50479938  0.00877300  0.11525770  1
  O  O344  1  0.50779481  0.00666450  0.62137034  1
  O  O345  1  0.50253707  0.50433505  0.12002620  1
  O  O346  1  0.50798445  0.50469777  0.61738582  1
  O  O347  1  0.24856624  0.38402364  0.25904446  1
  O  O348  1  0.26872101  0.38254737  0.73204087  1
  O  O349  1  0.24089749  0.88102646  0.24283964  1
  O  O350  1  0.24699276  0.88564677  0.74715314  1
  O  O351  1  0.74062409  0.36799690  0.24055766  1
  O  O352  1  0.75356025  0.38489208  0.74239236  1
  O  O353  1  0.75205086  0.88929508  0.24208620  1
  O  O354  1  0.74775355  0.87961480  0.73712552  1
  O  O355  1  0.25804010  0.11722549  0.24690959  1
  O  O356  1  0.26240499  0.11955853  0.74031818  1
  O  O357  1  0.24378663  0.62042403  0.26220688  1
  O  O358  1  0.25530911  0.61641576  0.75280792  1
  O  O359  1  0.75933676  0.11806417  0.25243269  1
  O  O360  1  0.76708751  0.12266089  0.75352454  1
  O  O361  1  0.75884550  0.62474824  0.25865836  1
  O  O362  1  0.75915853  0.61300601  0.75154908  1
  O  O363  1  0.37722191  0.13558829  0.35883399  1
  O  O364  1  0.38277552  0.12386722  0.85928986  1
  O  O365  1  0.36385138  0.61527497  0.38370797  1
  O  O366  1  0.36809636  0.63112200  0.86135911  1
  O  O367  1  0.87155228  0.11918773  0.36460319  1
  O  O368  1  0.87599248  0.11602471  0.87164355  1
  O  O369  1  0.86726113  0.61834425  0.36620931  1
  O  O370  1  0.87234942  0.61756051  0.86648337  1
  O  O371  1  0.11696348  0.38294965  0.13283680  1
  O  O372  1  0.14727613  0.37762145  0.61843948  1
  O  O373  1  0.13177448  0.87868949  0.13247976  1
  O  O374  1  0.12578158  0.88658833  0.63131179  1
  O  O375  1  0.63207544  0.38025397  0.13303521  1
  O  O376  1  0.63187467  0.38920129  0.62088726  1
  O  O377  1  0.62629906  0.88852538  0.11834770  1
  O  O378  1  0.63086445  0.88061589  0.62403925  1
  O  O379  1  0.13650710  0.23955475  0.25058839  1
  O  O380  1  0.13712633  0.26618949  0.75735034  1
  O  O381  1  0.11150407  0.76010852  0.25025166  1
  O  O382  1  0.10873064  0.74752291  0.74033296  1
  O  O383  1  0.62189690  0.25546808  0.25606420  1
  O  O384  1  0.61229985  0.24453938  0.74417708  1
  O  O385  1  0.62291842  0.74761808  0.26450694  1
  O  O386  1  0.61729775  0.74877149  0.75845562  1
  O  O387  1  0.38481826  0.24493553  0.24045428  1
  O  O388  1  0.38629219  0.24190845  0.74112547  1
  O  O389  1  0.37664806  0.75560970  0.23715850  1
  O  O390  1  0.37740232  0.74279206  0.74050791  1
  O  O391  1  0.86770449  0.23831798  0.24022520  1
  O  O392  1  0.87739338  0.24232709  0.75249225  1
  O  O393  1  0.87443886  0.74145846  0.24829998  1
  O  O394  1  0.88109270  0.73675111  0.74422000  1
  O  O395  1  0.38320799  0.49427457  0.49368239  1
  O  O396  1  0.34288709  0.47099750  1.00822534  1
  O  O397  1  0.36879705  0.98114923  0.51051633  1
  O  O398  1  0.38468411  0.99327867  1.00063380  1
  O  O399  1  0.88546999  0.50844972  0.48798964  1
  O  O400  1  0.88108143  0.49530893  0.99879717  1
  O  O401  1  0.89091170  1.00312306  0.50507182  1
  O  O402  1  0.87666669  0.99290047  0.99085493  1
  O  O403  1  0.12157517  0.01315664  0.00055484  1
  O  O404  1  0.11744507  0.00623764  0.50938526  1
  O  O405  1  0.11388928  0.49677542  0.01389270  1
  O  O406  1  0.11847396  0.50318902  0.50211179  1
  O  O407  1  0.61458730  0.00229844  0.00754745  1
  O  O408  1  0.62652710  0.00666185  0.51118459  1
  O  O409  1  0.62587573  0.49693750  0.01537814  1
  O  O410  1  0.61889799  0.50613291  0.50580944  1
  O  O411  1  0.38819022  0.36124347  0.13078792  1
  O  O412  1  0.37445290  0.37151389  0.61051223  1
  O  O413  1  0.36549811  0.86709992  0.11507622  1
  O  O414  1  0.37190030  0.86107132  0.61764890  1
  O  O415  1  0.86996150  0.37008259  0.12670711  1
  O  O416  1  0.85799888  0.38109968  0.62089361  1
  O  O417  1  0.86422578  0.86982906  0.11935806  1
  O  O418  1  0.86938711  0.86194003  0.62592963  1
  O  O419  1  0.12754219  0.11635985  0.39494934  1
  O  O420  1  0.12095632  0.14470330  0.88423402  1
  O  O421  1  0.13209825  0.62655264  0.38038937  1
  O  O422  1  0.13020236  0.61894379  0.86321718  1
  O  O423  1  0.63548250  0.13812643  0.37925631  1
  O  O424  1  0.63196323  0.13408711  0.87749156  1
  O  O425  1  0.63245829  0.62406962  0.38132538  1
  O  O426  1  0.62303497  0.63655922  0.87687664  1
