# generated using pymatgen
data_V85Zn86O256
_symmetry_space_group_name_H-M   'P 1'
_cell_length_a   16.95436714
_cell_length_b   16.94254940
_cell_length_c   16.96565636
_cell_angle_alpha   89.99329744
_cell_angle_beta   90.04465582
_cell_angle_gamma   89.88869533
_symmetry_Int_Tables_number   1
_chemical_formula_structural   V85Zn86O256
_chemical_formula_sum   'V85 Zn86 O256'
_cell_volume   4873.37752160
_cell_formula_units_Z   1
loop_
 _symmetry_equiv_pos_site_id
 _symmetry_equiv_pos_as_xyz
  1  'x, y, z'
loop_
 _atom_site_type_symbol
 _atom_site_label
 _atom_site_symmetry_multiplicity
 _atom_site_fract_x
 _atom_site_fract_y
 _atom_site_fract_z
 _atom_site_occupancy
  V  V0  1  0.37337499  0.87530453  -0.00102059  1
  V  V1  1  0.25062611  0.62475566  0.37562398  1
  V  V2  1  0.62728915  0.62108737  0.50856740  1
  V  V3  1  0.50019900  0.87756006  0.87003845  1
  V  V4  1  0.87000087  0.11943055  0.25513497  1
  V  V5  1  0.64572222  0.13383611  -0.00203372  1
  V  V6  1  0.00160872  0.24874169  0.24947657  1
  V  V7  1  0.75708340  0.62096266  0.37501515  1
  V  V8  1  0.87391925  0.24905680  0.11962425  1
  V  V9  1  0.00332834  0.12371033  0.11549460  1
  V  V10  1  0.50181078  -0.00143194  0.50536374  1
  V  V11  1  0.87627877  0.76122724  0.62246132  1
  V  V12  1  0.36993385  0.00260081  0.36681594  1
  V  V13  1  0.37927368  0.37131812  -0.00284609  1
  V  V14  1  0.12239824  0.87131349  0.74872427  1
  V  V15  1  0.37321182  0.86781220  0.50480321  1
  V  V16  1  0.37729722  0.37478605  0.50078681  1
  V  V17  1  0.12663930  0.50082847  0.12549336  1
  V  V18  1  0.62798107  0.24324575  0.37298963  1
  V  V19  1  0.25169937  0.61502567  0.87193463  1
  V  V20  1  0.38384405  0.62370498  0.24534302  1
  V  V21  1  0.37347449  0.61892644  0.75021480  1
  V  V22  1  0.25066230  0.38743809  0.63447986  1
  V  V23  1  0.50471991  0.24896411  0.76155380  1
  V  V24  1  0.25317112  0.12073616  0.36617991  1
  V  V25  1  0.12054361  0.26198509  0.87142406  1
  V  V26  1  0.62419599  0.38087444  0.76101337  1
  V  V27  1  0.74901295  0.63541130  0.88055822  1
  V  V28  1  0.87391710  0.50619226  0.87138847  1
  V  V29  1  0.62382677  0.74967940  0.37326198  1
  V  V30  1  -0.00844523  0.50202346  0.49723796  1
  V  V31  1  0.61891458  0.50383659  0.12452048  1
  V  V32  1  0.12894755  0.88090584  0.25366923  1
  V  V33  1  0.62209156  0.37366629  0.24968301  1
  V  V34  1  0.50078241  0.12386238  0.62764182  1
  V  V35  1  0.12557763  0.61872801  0.50519326  1
  V  V36  1  0.49630566  0.75197091  0.74787194  1
  V  V37  1  0.36990913  0.00837971  0.87231966  1
  V  V38  1  0.37794508  0.49864445  0.37477102  1
  V  V39  1  0.24942166  0.00313819  0.74784954  1
  V  V40  1  0.12655244  0.37450656  0.25113027  1
  V  V41  1  0.24361742  0.24496453  0.00049064  1
  V  V42  1  0.49728430  0.87387602  0.37087562  1
  V  V43  1  0.62754937  0.12014618  0.49767885  1
  V  V44  1  0.12561905  0.00105143  0.12449445  1
  V  V45  1  -0.00006633  0.62533322  0.62876995  1
  V  V46  1  0.25101684  0.87815332  0.13088859  1
  V  V47  1  0.72470371  0.88018544  0.62669666  1
  V  V48  1  0.12698875  0.24882510  0.37556960  1
  V  V49  1  0.25267627  0.49830391  0.25006682  1
  V  V50  1  -0.00781450  0.37951683  0.37473834  1
  V  V51  1  0.00346449  0.24870521  0.73484345  1
  V  V52  1  0.75635559  0.49924718  0.25365314  1
  V  V53  1  -0.00068934  -0.00705410  0.00105750  1
  V  V54  1  -0.00536456  0.00077651  0.50833842  1
  V  V55  1  0.87147720  0.74891846  0.12017463  1
  V  V56  1  0.62280595  0.00336484  0.12624886  1
  V  V57  1  0.75193566  0.24523596  0.49706198  1
  V  V58  1  0.87531586  0.64022736  0.74972239  1
  V  V59  1  0.87502335  0.37787795  -0.00323417  1
  V  V60  1  0.25305586  0.86625981  0.62672897  1
  V  V61  1  0.61971937  0.62810441  0.00284182  1
  V  V62  1  0.49613590  0.62829667  0.62530630  1
  V  V63  1  0.49650472  0.01399807  0.00286654  1
  V  V64  1  0.12501724  0.74913638  0.87344813  1
  V  V65  1  0.12690520  0.75041000  0.37778820  1
  V  V66  1  0.00004177  0.87556788  0.87254954  1
  V  V67  1  0.38227712  0.74796972  0.12564820  1
  V  V68  1  0.00060212  0.74988373  0.25117207  1
  V  V69  1  0.74976049  0.87122635  0.12263311  1
  V  V70  1  0.23276253  0.12404644  0.87455797  1
  V  V71  1  0.12785043  0.62527175  0.00131961  1
  V  V72  1  0.74257034  0.38330178  0.62093114  1
  V  V73  1  0.75052991  0.37209484  0.12040388  1
  V  V74  1  0.50541251  0.49832421  0.50520520  1
  V  V75  1  0.12315962  0.12418950  0.50823614  1
  V  V76  1  0.37729690  0.24472174  0.62884577  1
  V  V77  1  0.25228220  0.37090064  0.12526849  1
  V  V78  1  -0.00811813  0.87846086  0.37943116  1
  V  V79  1  0.50095301  0.49472653  -0.00905465  1
  V  V80  1  0.25253074  0.24807091  0.50185727  1
  V  V81  1  0.49413206  0.23564245  0.24410841  1
  V  V82  1  0.00182010  0.62577414  0.12631287  1
  V  V83  1  0.62243579  0.75287483  0.87651040  1
  V  V84  1  0.75486877  0.75546743  0.49904875  1
  Zn  Zn85  1  0.88011652  0.24747104  0.61969952  1
  Zn  Zn86  1  0.86783354  0.87128142  -0.00445932  1
  Zn  Zn87  1  0.25318860  0.74751780  0.00003135  1
  Zn  Zn88  1  0.25335247  0.74556142  0.50574071  1
  Zn  Zn89  1  0.00052013  0.38267693  0.86693071  1
  Zn  Zn90  1  0.62499783  0.87565704  0.24823982  1
  Zn  Zn91  1  0.73550817  0.00505586  0.75507996  1
  Zn  Zn92  1  0.37774203  0.22417010  0.12595955  1
  Zn  Zn93  1  0.37693334  0.48974921  0.86788486  1
  Zn  Zn94  1  0.87183852  0.37768978  0.49918989  1
  Zn  Zn95  1  0.74286155  0.51054222  0.74144591  1
  Zn  Zn96  1  0.86196964  0.00676636  0.87484823  1
  Zn  Zn97  1  0.74334908  0.00096812  0.25835113  1
  Zn  Zn98  1  0.12147328  0.00365123  0.63030940  1
  Zn  Zn99  1  0.87870715  0.62105804  0.25214696  1
  Zn  Zn100  1  0.86486728  0.00008110  0.38581398  1
  Zn  Zn101  1  0.00028612  0.50195173  -0.00032510  1
  Zn  Zn102  1  0.12089339  0.40040499  0.74151720  1
  Zn  Zn103  1  0.50389625  0.74498931  0.24476039  1
  Zn  Zn104  1  0.86301768  0.12608288  0.74930002  1
  Zn  Zn105  1  0.68616398  0.19771688  0.83302402  1
  Zn  Zn106  1  0.50060118  0.37255918  0.37628682  1
  Zn  Zn107  1  0.18842703  0.18525988  0.18628657  1
  Zn  Zn108  1  0.18678475  0.19243238  0.69141274  1
  Zn  Zn109  1  0.19218881  0.69029139  0.18941786  1
  Zn  Zn110  1  0.18628168  0.68166154  0.69029765  1
  Zn  Zn111  1  0.68617221  0.18661719  0.18424024  1
  Zn  Zn112  1  0.69011506  0.18507783  0.67231314  1
  Zn  Zn113  1  0.68962060  0.68642714  0.18782033  1
  Zn  Zn114  1  0.68811749  0.69807543  0.69169978  1
  Zn  Zn115  1  0.31436058  0.30952118  0.31514329  1
  Zn  Zn116  1  0.31472420  0.30786254  0.81213290  1
  Zn  Zn117  1  0.31407412  0.81086057  0.31409394  1
  Zn  Zn118  1  0.31205823  0.80775075  0.81108752  1
  Zn  Zn119  1  0.81194044  0.30772347  0.30925900  1
  Zn  Zn120  1  0.81801176  0.31856084  0.80438015  1
  Zn  Zn121  1  0.81103331  0.81192761  0.30636096  1
  Zn  Zn122  1  0.79316244  0.84145023  0.82395261  1
  Zn  Zn123  1  0.18817269  0.43664991  0.44100544  1
  Zn  Zn124  1  0.19010073  0.43695028  0.93997407  1
  Zn  Zn125  1  0.18634622  0.93994293  0.44150419  1
  Zn  Zn126  1  0.18519347  0.93718490  0.93968481  1
  Zn  Zn127  1  0.68671175  0.43546452  0.43473180  1
  Zn  Zn128  1  0.69210605  0.44149065  0.93568687  1
  Zn  Zn129  1  0.68888095  0.93690257  0.43739478  1
  Zn  Zn130  1  0.68270461  0.94151963  0.94197658  1
  Zn  Zn131  1  0.30754982  0.06414651  0.06244391  1
  Zn  Zn132  1  0.31312641  0.05935961  0.55881171  1
  Zn  Zn133  1  0.31506928  0.56028034  0.06077478  1
  Zn  Zn134  1  0.31771958  0.56450077  0.56197866  1
  Zn  Zn135  1  0.81440669  0.05401824  0.06907307  1
  Zn  Zn136  1  0.81357307  0.06258464  0.57309728  1
  Zn  Zn137  1  0.80987247  0.56369139  0.06334841  1
  Zn  Zn138  1  0.81618963  0.56573739  0.56191993  1
  Zn  Zn139  1  0.43698557  0.43203532  0.18240221  1
  Zn  Zn140  1  0.44225216  0.43466279  0.68570756  1
  Zn  Zn141  1  0.43588187  0.94708652  0.18405631  1
  Zn  Zn142  1  0.43563425  0.93893874  0.68793658  1
  Zn  Zn143  1  0.94008966  0.43713818  0.18619199  1
  Zn  Zn144  1  0.93346261  0.43798712  0.68500694  1
  Zn  Zn145  1  0.93807067  0.93359205  0.18951403  1
  Zn  Zn146  1  0.93166905  0.94585350  0.69357132  1
  Zn  Zn147  1  0.05944488  0.06381923  0.31534235  1
  Zn  Zn148  1  0.01136126  0.10909014  0.85980068  1
  Zn  Zn149  1  0.06438232  0.56196402  0.31435392  1
  Zn  Zn150  1  0.06150970  0.56393114  0.80878956  1
  Zn  Zn151  1  0.55931936  0.05860167  0.31577310  1
  Zn  Zn152  1  0.56498843  0.06129999  0.81433299  1
  Zn  Zn153  1  0.56686430  0.56014654  0.31701883  1
  Zn  Zn154  1  0.56272005  0.56286653  0.81145883  1
  Zn  Zn155  1  0.43925121  0.18677749  0.43482462  1
  Zn  Zn156  1  0.42937381  0.18738498  0.93762859  1
  Zn  Zn157  1  0.43773051  0.68494722  0.43580596  1
  Zn  Zn158  1  0.43821394  0.68434660  0.93748630  1
  Zn  Zn159  1  0.94033325  0.18710493  0.43848231  1
  Zn  Zn160  1  0.83253234  0.18747238  0.93111528  1
  Zn  Zn161  1  0.93970629  0.69075567  0.43916927  1
  Zn  Zn162  1  0.94179437  0.69011178  0.93830507  1
  Zn  Zn163  1  0.06051748  0.31421464  0.05999445  1
  Zn  Zn164  1  0.06951318  0.32024221  0.55867469  1
  Zn  Zn165  1  0.06345821  0.80970738  0.06229115  1
  Zn  Zn166  1  0.06270760  0.81121059  0.56324700  1
  Zn  Zn167  1  0.56161346  0.30962197  0.06259574  1
  Zn  Zn168  1  0.56553407  0.30988605  0.56516378  1
  Zn  Zn169  1  0.56202200  0.81870440  0.05830679  1
  Zn  Zn170  1  0.55836084  0.80663342  0.55725686  1
  O  O171  1  0.11612329  0.11167008  0.13408870  1
  O  O172  1  0.13257489  0.12554522  0.61208224  1
  O  O173  1  0.12392534  0.62184322  0.12198004  1
  O  O174  1  0.11428608  0.63396069  0.61483358  1
  O  O175  1  0.63502673  0.11242284  0.11199397  1
  O  O176  1  0.61090694  0.13038717  0.60851501  1
  O  O177  1  0.63369390  0.61502123  0.11524843  1
  O  O178  1  0.61944521  0.63180464  0.61418892  1
  O  O179  1  0.37806322  0.38090389  0.38280862  1
  O  O180  1  0.36696436  0.37396430  0.89119503  1
  O  O181  1  0.37980956  0.88023664  0.38309271  1
  O  O182  1  0.37789387  0.88117865  0.88324171  1
  O  O183  1  0.88878402  0.36772226  0.37365651  1
  O  O184  1  0.87408343  0.39061834  0.88128458  1
  O  O185  1  0.88921183  0.87401191  0.36850274  1
  O  O186  1  0.89554313  0.86193905  0.87644600  1
  O  O187  1  0.25826152  0.00796653  0.38353887  1
  O  O188  1  0.25038432  0.00580718  0.87132227  1
  O  O189  1  0.25709197  0.50383529  0.37022539  1
  O  O190  1  0.25489513  0.51177494  0.87981103  1
  O  O191  1  0.75405407  -0.00416701  0.37109244  1
  O  O192  1  0.76078604  -0.04814459  0.86447210  1
  O  O193  1  0.74240185  0.50872450  0.36544560  1
  O  O194  1  0.75907222  0.51545475  0.87218597  1
  O  O195  1  0.24639014  0.49259097  0.13073598  1
  O  O196  1  0.26347710  0.48572391  0.62276314  1
  O  O197  1  0.23901227  0.98630878  0.11864317  1
  O  O198  1  0.25105081  0.99167003  0.63354521  1
  O  O199  1  0.74078787  0.49175570  0.13292205  1
  O  O200  1  0.75341464  0.48794064  0.62145142  1
  O  O201  1  0.74044602  0.99090308  0.13159977  1
  O  O202  1  0.74777712  0.97987089  0.61696283  1
  O  O203  1  0.00609851  0.37031577  0.25577220  1
  O  O204  1  0.00410890  0.37115311  0.74949629  1
  O  O205  1  0.01010952  0.86997808  0.25870495  1
  O  O206  1  0.01362286  0.88493655  0.75939333  1
  O  O207  1  0.51376605  0.37124169  0.24963602  1
  O  O208  1  0.51562531  0.36320573  0.74230658  1
  O  O209  1  0.49932764  0.87426683  0.26404319  1
  O  O210  1  0.48835838  0.86716536  0.76193600  1
  O  O211  1  0.50368877  0.13726574  0.25393819  1
  O  O212  1  0.51006361  0.13946530  0.74011851  1
  O  O213  1  0.48799384  0.62260446  0.25545475  1
  O  O214  1  0.49595482  0.63098641  0.74323829  1
  O  O215  1  0.99269571  0.12987236  0.23944476  1
  O  O216  1  1.01459470  0.14844724  0.74809664  1
  O  O217  1  1.00096692  0.63090293  0.24580358  1
  O  O218  1  0.98760092  0.62553062  0.73956683  1
  O  O219  1  0.36389466  0.25479029  0.00316650  1
  O  O220  1  0.37395033  0.25505406  0.50748076  1
  O  O221  1  0.37723196  0.75896253  0.00696456  1
  O  O222  1  0.37476032  0.76269771  0.49437369  1
  O  O223  1  0.87702596  0.26050728  0.01392119  1
  O  O224  1  0.86319405  0.25109637  0.49536650  1
  O  O225  1  0.88132171  0.75197900  0.01541533  1
  O  O226  1  0.86245363  0.74326824  0.50764897  1
  O  O227  1  0.13100995  0.24324634  0.49414924  1
  O  O228  1  0.13598639  0.26134388  0.98845968  1
  O  O229  1  0.12680970  0.73895270  0.49365140  1
  O  O230  1  0.13085211  0.74420488  0.99339592  1
  O  O231  1  0.62937721  0.24276584  0.49005659  1
  O  O232  1  0.62777272  0.23169539  1.01238347  1
  O  O233  1  0.63184432  0.73988698  0.49048837  1
  O  O234  1  0.61234453  0.73917410  0.98975694  1
  O  O235  1  0.50074524  0.25126371  0.14120479  1
  O  O236  1  0.49417626  0.24186733  0.62749029  1
  O  O237  1  0.48644687  0.76042590  0.12705762  1
  O  O238  1  0.50461029  0.73999760  0.63458785  1
  O  O239  1  0.99548524  0.24290833  0.12783709  1
  O  O240  1  1.00501305  0.25955088  0.63154344  1
  O  O241  1  0.99515783  0.74538892  0.13221150  1
  O  O242  1  0.98826143  0.73655000  0.61250733  1
  O  O243  1  0.00793880  0.25802428  0.37025993  1
  O  O244  1  0.01668390  0.25524500  0.86655543  1
  O  O245  1  0.00702087  0.75808871  0.37246654  1
  O  O246  1  0.01716014  0.75772763  0.88000667  1
  O  O247  1  0.51052394  0.25265319  0.36546483  1
  O  O248  1  0.49347256  0.24406199  0.85963359  1
  O  O249  1  0.50804243  0.75655534  0.37632466  1
  O  O250  1  0.50242153  0.75769836  0.86949781  1
  O  O251  1  0.24254906  0.12966385  0.49376608  1
  O  O252  1  0.24806512  0.13533117  0.98927648  1
  O  O253  1  0.24347426  0.62444038  0.49642739  1
  O  O254  1  0.24653635  0.62610445  0.99169702  1
  O  O255  1  0.73732591  0.13312905  0.50732262  1
  O  O256  1  0.75009583  0.12231211  0.99720082  1
  O  O257  1  0.74361099  0.63071330  0.49408951  1
  O  O258  1  0.73727104  0.62119826  0.98885921  1
  O  O259  1  0.25736354  0.36613440  0.00653711  1
  O  O260  1  0.25799750  0.36831626  0.50771029  1
  O  O261  1  0.26091109  0.87424142  0.00728059  1
  O  O262  1  0.25627228  0.87406751  0.50939559  1
  O  O263  1  0.76099594  0.38426909  0.01172405  1
  O  O264  1  0.74816030  0.36909886  0.50586658  1
  O  O265  1  0.74969110  0.87744487  0.01776702  1
  O  O266  1  0.74206903  0.86083763  0.50820710  1
  O  O267  1  0.13339192  0.49455176  0.24576248  1
  O  O268  1  0.13400275  0.51031422  0.74845760  1
  O  O269  1  0.11718348  0.98804806  0.24147275  1
  O  O270  1  0.14031392  0.98459027  0.74855938  1
  O  O271  1  0.63156400  0.49276932  0.24363810  1
  O  O272  1  0.62440021  0.48713468  0.74949149  1
  O  O273  1  0.62119830  0.99973222  0.23894560  1
  O  O274  1  0.62408307  0.99227416  0.75467494  1
  O  O275  1  0.37824624  -0.00526710  0.26757842  1
  O  O276  1  0.36193172  -0.00746818  0.76239289  1
  O  O277  1  0.37251348  0.50411225  0.25242783  1
  O  O278  1  0.38949923  0.51280365  0.75302498  1
  O  O279  1  0.87765630  0.01449086  0.24681374  1
  O  O280  1  0.85860372  0.00459123  0.75351363  1
  O  O281  1  0.86027153  0.49906412  0.24366184  1
  O  O282  1  0.86934073  0.51318578  0.75815755  1
  O  O283  1  0.11959829  0.36883353  0.37033722  1
  O  O284  1  0.12589482  0.37137920  0.87116466  1
  O  O285  1  0.12080252  0.87193968  0.36888563  1
  O  O286  1  0.12208134  0.86803514  0.86961807  1
  O  O287  1  0.62440132  0.36548229  0.36403486  1
  O  O288  1  0.63455221  0.37640217  0.86030606  1
  O  O289  1  0.61468115  0.86439890  0.37678091  1
  O  O290  1  0.60705683  0.86527328  0.88920350  1
  O  O291  1  0.37554208  0.11349752  0.13024036  1
  O  O292  1  0.38568601  0.13452339  0.61814373  1
  O  O293  1  0.36828438  0.63541085  0.13375460  1
  O  O294  1  0.38745089  0.62435881  0.63259774  1
  O  O295  1  0.88359857  0.13201685  0.13008459  1
  O  O296  1  0.86797975  0.13615156  0.63514203  1
  O  O297  1  0.88066854  0.63113305  0.12719097  1
  O  O298  1  0.87775512  0.63468915  0.63237150  1
  O  O299  1  0.24830190  0.25250883  0.11558301  1
  O  O300  1  0.26283289  0.25252956  0.62153858  1
  O  O301  1  0.26105323  0.76208183  0.12360054  1
  O  O302  1  0.24823478  0.76199459  0.62646091  1
  O  O303  1  0.75994157  0.26334968  0.13238162  1
  O  O304  1  0.74700674  0.26232826  0.60825924  1
  O  O305  1  0.76048413  0.75616150  0.13222300  1
  O  O306  1  0.75423154  0.75665687  0.61495863  1
  O  O307  1  0.24710577  0.24294884  0.38274072  1
  O  O308  1  0.24257408  0.24240733  0.87810152  1
  O  O309  1  0.24435605  0.74251951  0.37738485  1
  O  O310  1  0.24169278  0.74134402  0.87801055  1
  O  O311  1  0.73836790  0.25511745  0.38257019  1
  O  O312  1  0.76284976  0.26026006  0.88202774  1
  O  O313  1  0.74250362  0.74466768  0.38013042  1
  O  O314  1  0.73607067  0.74615541  0.87116509  1
  O  O315  1  0.00027931  0.11168633  0.01316971  1
  O  O316  1  0.01118925  0.11253019  0.49271437  1
  O  O317  1  0.00998847  0.62474099  0.00843808  1
  O  O318  1  0.00629514  0.61867720  0.50271451  1
  O  O319  1  0.49991794  0.11551280  -0.00398776  1
  O  O320  1  0.50546872  0.11677915  0.50517676  1
  O  O321  1  0.51118106  0.61310294  -0.00329741  1
  O  O322  1  0.50673185  0.62077512  0.50661355  1
  O  O323  1  0.49823861  0.38307094  0.50229062  1
  O  O324  1  0.49139765  0.37985739  1.00572222  1
  O  O325  1  0.49322630  0.87934644  0.49250080  1
  O  O326  1  0.48778573  0.88473628  0.99107168  1
  O  O327  1  1.00002686  0.38487239  0.49196004  1
  O  O328  1  0.98618288  0.37977400  0.99665890  1
  O  O329  1  1.00963997  0.88912017  0.49065790  1
  O  O330  1  1.00171748  0.87972625  0.99316820  1
  O  O331  1  0.49679716  0.49783400  0.38654491  1
  O  O332  1  0.50092265  0.49879063  0.88739217  1
  O  O333  1  0.49209459  0.99141810  0.38479683  1
  O  O334  1  0.48772911  0.99559775  0.88140058  1
  O  O335  1  1.00508304  0.48945815  0.38100005  1
  O  O336  1  0.98492260  0.50664982  0.87781762  1
  O  O337  1  0.99636599  0.99303697  0.38344669  1
  O  O338  1  1.00547938  0.99027213  0.88893239  1
  O  O339  1  0.00578607  0.00235817  0.12013473  1
  O  O340  1  0.00212651  -0.00710663  0.61160457  1
  O  O341  1  0.00874349  0.50726133  0.12586268  1
  O  O342  1  -0.00870942  0.51543717  0.61346688  1
  O  O343  1  0.51117335  -0.00854327  0.11257030  1
  O  O344  1  0.49006413  0.00967185  0.61502645  1
  O  O345  1  0.51446813  0.49402184  0.11747915  1
  O  O346  1  0.49900221  0.51061072  0.61253851  1
  O  O347  1  0.24645499  0.37788704  0.24627819  1
  O  O348  1  0.25737136  0.37171093  0.73582353  1
  O  O349  1  0.24089445  0.87009175  0.24262292  1
  O  O350  1  0.24667866  0.87914895  0.74434094  1
  O  O351  1  0.74166975  0.37993677  0.24364449  1
  O  O352  1  0.73970181  0.37539955  0.73576280  1
  O  O353  1  0.74455203  0.87698318  0.23877908  1
  O  O354  1  0.74278110  0.86157559  0.72473670  1
  O  O355  1  0.24566550  0.12916025  0.26708132  1
  O  O356  1  0.24186467  0.11410375  0.76031310  1
  O  O357  1  0.25997017  0.61823698  0.25568574  1
  O  O358  1  0.26353812  0.63158829  0.75846766  1
  O  O359  1  0.76706271  0.12652923  0.24251323  1
  O  O360  1  0.74043929  0.12772266  0.75504069  1
  O  O361  1  0.74910549  0.61535365  0.25887568  1
  O  O362  1  0.75450684  0.62795044  0.75988309  1
  O  O363  1  0.36567401  0.11453831  0.38555856  1
  O  O364  1  0.35978852  0.11284983  0.87879177  1
  O  O365  1  0.37061829  0.61873731  0.36721998  1
  O  O366  1  0.36821449  0.62174540  0.86920509  1
  O  O367  1  0.88222837  0.12725706  0.35687953  1
  O  O368  1  0.89473716  0.11841472  0.86743934  1
  O  O369  1  0.86039015  0.63233622  0.37383034  1
  O  O370  1  0.86805005  0.62823360  0.87039288  1
  O  O371  1  0.13028841  0.37943829  0.13135219  1
  O  O372  1  0.14751269  0.37381943  0.62284677  1
  O  O373  1  0.13116740  0.87811679  0.13433048  1
  O  O374  1  0.13299925  0.87474751  0.63314778  1
  O  O375  1  0.63376977  0.38054823  0.13053497  1
  O  O376  1  0.63764853  0.37304892  0.62940881  1
  O  O377  1  0.63065633  0.88236615  0.12480957  1
  O  O378  1  0.62506508  0.87311652  0.61944796  1
  O  O379  1  0.12056842  0.25526952  0.25470976  1
  O  O380  1  0.12186853  0.26384488  0.75610185  1
  O  O381  1  0.12096180  0.75911070  0.25652599  1
  O  O382  1  0.13200590  0.76067664  0.76016987  1
  O  O383  1  0.61988562  0.25427257  0.25430202  1
  O  O384  1  0.61703860  0.25822889  0.75098180  1
  O  O385  1  0.62197124  0.74801124  0.26142486  1
  O  O386  1  0.60912989  0.74398458  0.76503987  1
  O  O387  1  0.39170392  0.25564913  0.25090755  1
  O  O388  1  0.39261056  0.25740936  0.73918172  1
  O  O389  1  0.37753394  0.74112239  0.24389412  1
  O  O390  1  0.38854640  0.73724172  0.75712392  1
  O  O391  1  0.88122994  0.24292838  0.23877736  1
  O  O392  1  0.89671016  0.25393512  0.74949679  1
  O  O393  1  0.88366416  0.74634253  0.24067883  1
  O  O394  1  0.86786940  0.74231818  0.74093438  1
  O  O395  1  0.38668132  0.49629992  0.49413194  1
  O  O396  1  0.38599412  0.49056009  1.00155940  1
  O  O397  1  0.38432702  0.98888044  0.49273806  1
  O  O398  1  0.37763644  0.99249297  0.99197237  1
  O  O399  1  0.88662566  0.50090318  0.49539751  1
  O  O400  1  0.87440431  0.49598905  0.99211037  1
  O  O401  1  0.89126271  1.00963657  0.50067276  1
  O  O402  1  0.88668173  0.99224856  0.99983529  1
  O  O403  1  0.11506495  -0.00876425  0.01511470  1
  O  O404  1  0.11655378  0.00847358  0.50377093  1
  O  O405  1  0.12457721  0.50631493  0.00812912  1
  O  O406  1  0.11595725  0.51255811  0.49546830  1
  O  O407  1  0.61660511  0.01116831  0.00606091  1
  O  O408  1  0.61067764  0.00685015  0.49147157  1
  O  O409  1  0.61986886  0.50418441  0.00587262  1
  O  O410  1  0.61720528  0.51083970  0.49217926  1
  O  O411  1  0.36740421  0.36988008  0.11490969  1
  O  O412  1  0.37133931  0.36562726  0.61938941  1
  O  O413  1  0.36855269  0.87237379  0.11942977  1
  O  O414  1  0.36693684  0.87946804  0.61537942  1
  O  O415  1  0.87033494  0.36993702  0.11903675  1
  O  O416  1  0.85951741  0.36913751  0.62164734  1
  O  O417  1  0.86845441  0.86623018  0.12682208  1
  O  O418  1  0.87943147  0.86137346  0.62887412  1
  O  O419  1  0.13193513  0.12951690  0.38293329  1
  O  O420  1  0.12831064  0.13926026  0.87588731  1
  O  O421  1  0.13107691  0.62999595  0.38288699  1
  O  O422  1  0.13207220  0.63231143  0.88019428  1
  O  O423  1  0.61936567  0.13310646  0.38463518  1
  O  O424  1  0.62313640  0.12350202  0.89499687  1
  O  O425  1  0.63303292  0.63279307  0.38347983  1
  O  O426  1  0.63019375  0.63194622  0.88174096  1
