# generated using pymatgen
data_V85Zn86O256
_symmetry_space_group_name_H-M   'P 1'
_cell_length_a   16.97160143
_cell_length_b   16.95975633
_cell_length_c   16.96071111
_cell_angle_alpha   89.95931138
_cell_angle_beta   89.97143299
_cell_angle_gamma   90.13589946
_symmetry_Int_Tables_number   1
_chemical_formula_structural   V85Zn86O256
_chemical_formula_sum   'V85 Zn86 O256'
_cell_volume   4881.85755789
_cell_formula_units_Z   1
loop_
 _symmetry_equiv_pos_site_id
 _symmetry_equiv_pos_as_xyz
  1  'x, y, z'
loop_
 _atom_site_type_symbol
 _atom_site_label
 _atom_site_symmetry_multiplicity
 _atom_site_fract_x
 _atom_site_fract_y
 _atom_site_fract_z
 _atom_site_occupancy
  V  V0  1  0.24866740  0.62877458  0.37133899  1
  V  V1  1  0.74558637  0.12679740  0.38410206  1
  V  V2  1  0.62498966  0.50022022  0.62552852  1
  V  V3  1  0.37952494  0.37681464  0.00060247  1
  V  V4  1  0.49735684  0.75836219  0.74665758  1
  V  V5  1  0.75056452  0.49879604  0.25017203  1
  V  V6  1  0.37840033  0.24771443  0.13945738  1
  V  V7  1  0.87305364  0.12538371  0.25112675  1
  V  V8  1  0.87217504  -0.01144334  0.37757816  1
  V  V9  1  0.50342226  0.01370411  -0.00422850  1
  V  V10  1  0.50068838  0.50071371  0.49857496  1
  V  V11  1  -0.00075829  0.24695583  0.25047587  1
  V  V12  1  0.75048338  0.75447876  0.51643923  1
  V  V13  1  0.49986928  0.86889720  0.36940660  1
  V  V14  1  0.11978294  0.50603269  0.62488454  1
  V  V15  1  0.61735752  0.50430231  0.12505180  1
  V  V16  1  0.75043828  0.63104295  0.37423669  1
  V  V17  1  0.12657408  0.87900398  0.74418094  1
  V  V18  1  0.87320870  0.37162379  0.49994113  1
  V  V19  1  0.00377291  -0.00191425  0.50336329  1
  V  V20  1  0.25586214  0.74447100  -0.00318241  1
  V  V21  1  0.00589688  0.12198109  0.62727170  1
  V  V22  1  0.24741433  0.24949663  0.49922984  1
  V  V23  1  0.12654289  0.61921815  0.00423149  1
  V  V24  1  0.87448409  0.37550054  0.00120448  1
  V  V25  1  0.74683446  0.87079475  0.11758800  1
  V  V26  1  0.12585344  0.74657659  0.87213479  1
  V  V27  1  0.37773097  0.87559952  -0.00279590  1
  V  V28  1  0.62810639  -0.00767139  0.62084111  1
  V  V29  1  0.11607247  0.62684668  0.49997967  1
  V  V30  1  0.75106173  0.50232914  0.74963278  1
  V  V31  1  0.37223350  0.50326495  0.86475342  1
  V  V32  1  0.74890797  0.12624035  0.87628105  1
  V  V33  1  0.39180828  0.74615387  0.12398309  1
  V  V34  1  0.38715494  0.62962969  0.24397721  1
  V  V35  1  0.74589884  0.24696260  0.00259769  1
  V  V36  1  0.49333998  0.62871792  0.62682448  1
  V  V37  1  0.75299076  0.62737200  0.88033954  1
  V  V38  1  0.00131774  0.11274480  0.12132976  1
  V  V39  1  0.12407215  0.24477269  0.37673961  1
  V  V40  1  0.25085822  0.75139289  0.50141333  1
  V  V41  1  0.61125982  0.24890181  0.37889369  1
  V  V42  1  0.37705940  0.87285075  0.49854470  1
  V  V43  1  0.62429536  0.24872606  0.87859764  1
  V  V44  1  0.87376365  0.25010697  0.12639477  1
  V  V45  1  0.37253250  0.00044909  0.87154385  1
  V  V46  1  0.37384426  0.25119276  0.62779392  1
  V  V47  1  0.74582775  -0.01147618  0.74922462  1
  V  V48  1  0.37799068  0.49995133  0.37324527  1
  V  V49  1  0.62199932  0.62830355  0.00157383  1
  V  V50  1  0.25014710  0.00225761  0.74092610  1
  V  V51  1  0.50089979  0.25059390  0.74928879  1
  V  V52  1  -0.00102039  0.37330703  0.87209630  1
  V  V53  1  0.37508259  0.37727749  0.49590354  1
  V  V54  1  0.12039691  0.11786812  0.00229646  1
  V  V55  1  0.00238105  0.49871762  0.00636601  1
  V  V56  1  0.62816559  0.37615463  0.74982641  1
  V  V57  1  -0.00068812  0.37353847  0.37568602  1
  V  V58  1  0.11454406  0.76215581  0.35876858  1
  V  V59  1  0.63058929  0.75809343  0.87214718  1
  V  V60  1  0.87781891  0.62706909  0.73500383  1
  V  V61  1  0.24853275  0.12530513  0.87418288  1
  V  V62  1  0.24752163  -0.00225553  0.23888589  1
  V  V63  1  0.24547496  0.50118139  0.24430219  1
  V  V64  1  0.25060819  0.25038724  0.00004368  1
  V  V65  1  0.12478850  0.37451844  0.24954969  1
  V  V66  1  0.25044382  0.12461319  0.36610878  1
  V  V67  1  0.24778648  0.38287849  0.62898511  1
  V  V68  1  0.25415636  0.87694682  0.62253775  1
  V  V69  1  0.00042982  0.62785278  0.13015950  1
  V  V70  1  0.61983844  0.86834851  0.24749395  1
  V  V71  1  0.87242812  0.74950304  0.12263586  1
  V  V72  1  0.87941444  0.25018299  0.62750988  1
  V  V73  1  0.37567383  0.00154137  0.36599817  1
  V  V74  1  0.12569428  0.38245793  0.75096344  1
  V  V75  1  0.60943831  0.37087894  0.25503896  1
  V  V76  1  -0.00059290  0.87795596  0.88055512  1
  V  V77  1  -0.00196831  0.74491853  0.73556655  1
  V  V78  1  0.24514702  0.37616984  0.12507443  1
  V  V79  1  0.74355258  0.00117644  0.24908733  1
  V  V80  1  0.87632565  0.87084667  0.52347951  1
  V  V81  1  0.87506189  0.49986859  0.37501207  1
  V  V82  1  0.88005716  0.12996438  0.75207836  1
  V  V83  1  0.50033980  0.12850983  0.14115617  1
  V  V84  1  0.12206635  0.25188160  0.86970089  1
  Zn  Zn85  1  0.13096247  0.11518858  0.50568428  1
  Zn  Zn86  1  0.50820860  0.88357571  0.86721210  1
  Zn  Zn87  1  -0.00429414  0.50531921  0.50302262  1
  Zn  Zn88  1  0.62450148  0.63009662  0.50084163  1
  Zn  Zn89  1  0.49848796  0.50532493  0.00100894  1
  Zn  Zn90  1  0.74756544  0.37439345  0.12671246  1
  Zn  Zn91  1  0.25189790  0.87083448  0.12682217  1
  Zn  Zn92  1  0.88186296  0.00687135  0.88049091  1
  Zn  Zn93  1  0.62243189  0.74891217  0.37290582  1
  Zn  Zn94  1  0.36633634  0.62955897  0.74128285  1
  Zn  Zn95  1  0.51105009  0.00472339  0.49714611  1
  Zn  Zn96  1  0.87580005  0.87906324  0.00220982  1
  Zn  Zn97  1  0.09531093  -0.09571854  0.19676801  1
  Zn  Zn98  1  0.62695882  0.00738551  0.11582029  1
  Zn  Zn99  1  0.50264888  0.37848521  0.87683150  1
  Zn  Zn100  1  0.37685458  0.12595633  0.75111734  1
  Zn  Zn101  1  0.51908352  0.13150602  0.61302723  1
  Zn  Zn102  1  0.75125664  0.37346333  0.62528105  1
  Zn  Zn103  1  0.74255754  0.24411245  0.50522791  1
  Zn  Zn104  1  0.24265015  0.61232027  0.86191138  1
  Zn  Zn105  1  0.87665056  0.50449684  0.87516913  1
  Zn  Zn106  1  0.88300043  0.63214691  0.25292790  1
  Zn  Zn107  1  0.18690665  0.18553487  0.18641720  1
  Zn  Zn108  1  0.18780899  0.19187506  0.68823294  1
  Zn  Zn109  1  0.19201094  0.68961268  0.18399973  1
  Zn  Zn110  1  0.18870104  0.68891831  0.68431912  1
  Zn  Zn111  1  0.68219915  0.18731229  0.19077079  1
  Zn  Zn112  1  0.69113563  0.18307096  0.68726684  1
  Zn  Zn113  1  0.68787755  0.68793699  0.18508568  1
  Zn  Zn114  1  0.68180898  0.68413486  0.69230731  1
  Zn  Zn115  1  0.31084593  0.31382482  0.31422514  1
  Zn  Zn116  1  0.31065968  0.31782549  0.81373426  1
  Zn  Zn117  1  0.31131327  0.81297248  0.30732742  1
  Zn  Zn118  1  0.31364615  0.81255225  0.81183257  1
  Zn  Zn119  1  0.80690154  0.31108307  0.31479506  1
  Zn  Zn120  1  0.81342103  0.31309078  0.81257338  1
  Zn  Zn121  1  0.81150440  0.81108096  0.30483541  1
  Zn  Zn122  1  0.81786835  0.80713882  0.81073679  1
  Zn  Zn123  1  0.18629984  0.43885921  0.43748099  1
  Zn  Zn124  1  0.18961190  0.43762052  0.93899368  1
  Zn  Zn125  1  0.18862190  0.93914029  0.43175818  1
  Zn  Zn126  1  0.15786143  0.91237435  0.97854577  1
  Zn  Zn127  1  0.68664102  0.43469608  0.43576076  1
  Zn  Zn128  1  0.68874559  0.43902856  0.93815565  1
  Zn  Zn129  1  0.68898952  0.93306953  0.43908823  1
  Zn  Zn130  1  0.68898617  0.94299993  0.93607276  1
  Zn  Zn131  1  0.31749713  0.06911716  0.05936006  1
  Zn  Zn132  1  0.33907848  0.07469481  0.54508640  1
  Zn  Zn133  1  0.31555006  0.56366725  0.06087325  1
  Zn  Zn134  1  0.30826540  0.56480103  0.56131286  1
  Zn  Zn135  1  0.81794193  0.05878485  0.06069708  1
  Zn  Zn136  1  0.81318839  0.05952067  0.56754291  1
  Zn  Zn137  1  0.81165928  0.56263212  0.06316892  1
  Zn  Zn138  1  0.81020744  0.56222372  0.55930296  1
  Zn  Zn139  1  0.43385637  0.43862861  0.18684133  1
  Zn  Zn140  1  0.44063420  0.43648368  0.68615043  1
  Zn  Zn141  1  0.43685362  0.93850938  0.18200725  1
  Zn  Zn142  1  0.44033788  0.93898028  0.68250315  1
  Zn  Zn143  1  0.93674109  0.43764943  0.18815008  1
  Zn  Zn144  1  0.93785412  0.43963118  0.68867515  1
  Zn  Zn145  1  0.92749743  0.93275654  0.19200426  1
  Zn  Zn146  1  0.93751766  0.94256150  0.69555313  1
  Zn  Zn147  1  0.04608274  0.03315349  0.30101147  1
  Zn  Zn148  1  0.06610388  0.06236092  0.81271433  1
  Zn  Zn149  1  0.06358466  0.56182699  0.31575520  1
  Zn  Zn150  1  0.05944728  0.56083772  0.81260362  1
  Zn  Zn151  1  0.56198368  0.06139626  0.31530772  1
  Zn  Zn152  1  0.56503292  0.06547623  0.80578834  1
  Zn  Zn153  1  0.56627275  0.56265330  0.31399788  1
  Zn  Zn154  1  0.55939081  0.56574615  0.81404476  1
  Zn  Zn155  1  0.43505217  0.18427974  0.43746873  1
  Zn  Zn156  1  0.43555459  0.19111317  0.93806398  1
  Zn  Zn157  1  0.43608529  0.68655643  0.43632152  1
  Zn  Zn158  1  0.44348585  0.68721249  0.93149235  1
  Zn  Zn159  1  0.93569817  0.18190973  0.43950563  1
  Zn  Zn160  1  0.93702765  0.18933800  0.94085147  1
  Zn  Zn161  1  0.93539004  0.69600802  0.43515433  1
  Zn  Zn162  1  0.93676644  0.69158871  0.93850685  1
  Zn  Zn163  1  0.06143251  0.30552794  0.06121683  1
  Zn  Zn164  1  0.06034202  0.31110079  0.56329116  1
  Zn  Zn165  1  0.06106064  0.79873255  0.06312446  1
  Zn  Zn166  1  0.06725692  0.81546111  0.55600944  1
  Zn  Zn167  1  0.56250298  0.31168996  0.06838917  1
  Zn  Zn168  1  0.56129444  0.31650435  0.56148534  1
  Zn  Zn169  1  0.56708662  0.81805247  0.05424073  1
  Zn  Zn170  1  0.56585649  0.81760275  0.56399132  1
  O  O171  1  0.11465984  0.13394776  0.11393182  1
  O  O172  1  0.11121534  0.13284294  0.62577264  1
  O  O173  1  0.11784114  0.63333841  0.11122432  1
  O  O174  1  0.13378966  0.61683129  0.61162525  1
  O  O175  1  0.60725305  0.12518160  0.12911456  1
  O  O176  1  0.62924831  0.11021151  0.62918336  1
  O  O177  1  0.63322334  0.61708182  0.11410626  1
  O  O178  1  0.61352092  0.61780399  0.62157463  1
  O  O179  1  0.36590201  0.38738221  0.38502506  1
  O  O180  1  0.37570829  0.38322441  0.88465053  1
  O  O181  1  0.38191560  0.87939460  0.37637885  1
  O  O182  1  0.37780072  0.88551293  0.87977182  1
  O  O183  1  0.87879947  0.37807289  0.38164351  1
  O  O184  1  0.88511706  0.37405356  0.88110774  1
  O  O185  1  0.86644711  0.88715212  0.37393421  1
  O  O186  1  0.89374743  0.86633570  0.87627596  1
  O  O187  1  0.25559717  0.00548135  0.36316269  1
  O  O188  1  0.26289621  0.00594025  0.86161360  1
  O  O189  1  0.25834595  0.50927283  0.36855983  1
  O  O190  1  0.26641930  0.49678818  0.87886771  1
  O  O191  1  0.75197763  0.00647117  0.36882371  1
  O  O192  1  0.74748424  0.01259266  0.86604395  1
  O  O193  1  0.75387601  0.50905649  0.37050497  1
  O  O194  1  0.75187696  0.51021761  0.86792612  1
  O  O195  1  0.25705329  0.48968800  0.13429988  1
  O  O196  1  0.23890931  0.48923440  0.61648722  1
  O  O197  1  0.26478627  1.00310302  0.13718268  1
  O  O198  1  0.25847998  0.99317765  0.63541030  1
  O  O199  1  0.74057667  0.49899210  0.13493348  1
  O  O200  1  0.74219782  0.50037898  0.63126128  1
  O  O201  1  0.74785514  0.99630675  0.13523232  1
  O  O202  1  0.74450124  1.00308567  0.64106985  1
  O  O203  1  0.00506136  0.36904272  0.25489512  1
  O  O204  1  0.00930931  0.38103765  0.76298287  1
  O  O205  1  0.01146924  0.92396025  0.26302417  1
  O  O206  1  0.00822966  0.86431591  0.75456757  1
  O  O207  1  0.51076934  0.38059436  0.25149189  1
  O  O208  1  0.50827124  0.36481697  0.75009142  1
  O  O209  1  0.50856643  0.88411591  0.25708704  1
  O  O210  1  0.49879742  0.86246052  0.74807217  1
  O  O211  1  0.49455581  0.11819039  0.23958776  1
  O  O212  1  0.49792716  0.14199651  0.74613658  1
  O  O213  1  0.48572483  0.62144255  0.25719906  1
  O  O214  1  0.49596889  0.63269436  0.74101008  1
  O  O215  1  0.99332542  0.12762368  0.24321265  1
  O  O216  1  0.98893002  0.11548710  0.74343725  1
  O  O217  1  1.00111518  0.61057005  0.23360268  1
  O  O218  1  0.99507421  0.63756453  0.75338870  1
  O  O219  1  0.36869242  0.26100083  0.00409487  1
  O  O220  1  0.36932965  0.26120222  0.50676704  1
  O  O221  1  0.37320916  0.75402898  -0.00020905  1
  O  O222  1  0.36214450  0.76123894  0.48891005  1
  O  O223  1  0.86553849  0.25596801  0.00605970  1
  O  O224  1  0.87268001  0.25721704  0.50717893  1
  O  O225  1  0.88070037  0.75852043  0.01456207  1
  O  O226  1  0.86674901  0.76252057  0.50048933  1
  O  O227  1  0.13112560  0.24968061  0.49385570  1
  O  O228  1  0.13228707  0.24619694  0.98851848  1
  O  O229  1  0.13390611  0.74447449  0.48971749  1
  O  O230  1  0.13485083  0.73991123  0.98920743  1
  O  O231  1  0.62617703  0.26115712  0.48443201  1
  O  O232  1  0.63452002  0.25799935  0.99102543  1
  O  O233  1  0.64083510  0.75435654  0.49643913  1
  O  O234  1  0.62069156  0.74263937  0.98304124  1
  O  O235  1  0.49352623  0.23746107  0.12278050  1
  O  O236  1  0.49056896  0.25251681  0.63060253  1
  O  O237  1  0.49043883  0.75500899  0.11589896  1
  O  O238  1  0.50984467  0.74337907  0.63745396  1
  O  O239  1  0.99206862  0.24505118  0.13288193  1
  O  O240  1  0.98749037  0.23967172  0.62072532  1
  O  O241  1  0.99149904  0.73714478  0.12458050  1
  O  O242  1  1.01032214  0.75227911  0.63774084  1
  O  O243  1  0.00329198  0.25202990  0.36964725  1
  O  O244  1  0.01033645  0.26316113  0.88327491  1
  O  O245  1  0.01578611  0.74517002  0.37100201  1
  O  O246  1  0.01148207  0.75600263  0.86708710  1
  O  O247  1  0.51156906  0.24324513  0.37756029  1
  O  O248  1  0.50818432  0.25249263  0.86811360  1
  O  O249  1  0.50121298  0.76422666  0.38013531  1
  O  O250  1  0.51209625  0.75297025  0.86383577  1
  O  O251  1  0.25017557  0.13160138  0.49195068  1
  O  O252  1  0.24324088  0.13222235  0.99414275  1
  O  O253  1  0.24488083  0.63308330  0.48967826  1
  O  O254  1  0.24319609  0.62933842  0.99465020  1
  O  O255  1  0.75638082  0.12239660  0.48758108  1
  O  O256  1  0.75633344  0.13688034  0.98936410  1
  O  O257  1  0.75175931  0.63856106  0.49266627  1
  O  O258  1  0.74222749  0.62069462  0.98784366  1
  O  O259  1  0.25673462  0.37168764  0.00881185  1
  O  O260  1  0.25697072  0.37187269  0.50657537  1
  O  O261  1  0.26377099  0.86378866  -0.00502515  1
  O  O262  1  0.25389690  0.86973343  0.50406561  1
  O  O263  1  0.75576214  0.36495791  0.00097751  1
  O  O264  1  0.76345448  0.37452050  0.50088240  1
  O  O265  1  0.74543788  0.88225237  0.01543529  1
  O  O266  1  0.76189611  0.86281058  0.50003198  1
  O  O267  1  0.13954298  0.49304599  0.25758993  1
  O  O268  1  0.12268500  0.49212625  0.74220960  1
  O  O269  1  0.14539743  1.00667704  0.24488605  1
  O  O270  1  0.13735009  0.98792181  0.75663316  1
  O  O271  1  0.62992357  0.49159017  0.24682348  1
  O  O272  1  0.62943242  0.49656461  0.74582432  1
  O  O273  1  0.63374271  0.99321280  0.25016056  1
  O  O274  1  0.63988355  0.99997636  0.74797352  1
  O  O275  1  0.36780973  -0.00496560  0.26039499  1
  O  O276  1  0.37046524  0.00194153  0.75488014  1
  O  O277  1  0.36627363  0.50630594  0.25600786  1
  O  O278  1  0.37934870  0.49690926  0.76238507  1
  O  O279  1  0.85967331  0.00611240  0.25899278  1
  O  O280  1  0.86434191  0.01095653  0.75700417  1
  O  O281  1  0.86488597  0.50133690  0.25580037  1
  O  O282  1  0.87202631  0.50980233  0.75352367  1
  O  O283  1  0.12063708  0.36751306  0.37014576  1
  O  O284  1  0.12068772  0.37188349  0.86992213  1
  O  O285  1  0.12916062  0.86016507  0.37624270  1
  O  O286  1  0.12001728  0.86404976  0.86749609  1
  O  O287  1  0.62604225  0.36604432  0.36379361  1
  O  O288  1  0.62561986  0.36541201  0.86907203  1
  O  O289  1  0.61682005  0.87603484  0.36633295  1
  O  O290  1  0.62745542  0.86154266  0.87835155  1
  O  O291  1  0.38668714  0.13742269  0.11977048  1
  O  O292  1  0.36093490  0.14752474  0.63339959  1
  O  O293  1  0.37350190  0.63255507  0.13169079  1
  O  O294  1  0.38802393  0.62018964  0.62206848  1
  O  O295  1  0.88068460  0.13119943  0.13055272  1
  O  O296  1  0.88119875  0.13114909  0.63301876  1
  O  O297  1  0.88210525  0.63126550  0.12447053  1
  O  O298  1  0.87360399  0.62149460  0.63574994  1
  O  O299  1  0.25886593  0.25696438  0.12125314  1
  O  O300  1  0.25380334  0.26414153  0.62063619  1
  O  O301  1  0.26039364  0.74782744  0.10747502  1
  O  O302  1  0.24624899  0.76107613  0.61020575  1
  O  O303  1  0.75290242  0.24814273  0.11761781  1
  O  O304  1  0.76283821  0.25088699  0.62261846  1
  O  O305  1  0.75538425  0.76111661  0.12684150  1
  O  O306  1  0.74614078  0.74381310  0.61453039  1
  O  O307  1  0.24641079  0.24318254  0.37819275  1
  O  O308  1  0.24230126  0.24682007  0.87867995  1
  O  O309  1  0.24402099  0.74248339  0.37901973  1
  O  O310  1  0.24212169  0.74979822  0.88203161  1
  O  O311  1  0.74112904  0.24053608  0.37785874  1
  O  O312  1  0.74392476  0.24552631  0.88183730  1
  O  O313  1  0.75137740  0.74010492  0.37705192  1
  O  O314  1  0.73842453  0.74202145  0.86515272  1
  O  O315  1  0.00859796  0.13443076  0.00912558  1
  O  O316  1  -0.00052216  0.11606199  0.51147160  1
  O  O317  1  0.00701999  0.61801526  0.00533793  1
  O  O318  1  0.01273593  0.62762064  0.49374687  1
  O  O319  1  0.49549489  0.11698012  0.00106153  1
  O  O320  1  0.46130025  0.10766570  0.51652975  1
  O  O321  1  0.51711734  0.62286272  -0.00696032  1
  O  O322  1  0.50032742  0.61796148  0.50575661  1
  O  O323  1  0.48489208  0.38837249  0.50711592  1
  O  O324  1  0.48874044  0.37425683  1.00165382  1
  O  O325  1  0.49102827  0.87845459  0.49274675  1
  O  O326  1  0.48849063  0.88581977  0.99391428  1
  O  O327  1  0.98863373  0.37475248  0.49370547  1
  O  O328  1  0.99758399  0.38122074  0.99495017  1
  O  O329  1  0.98424168  0.88071899  0.50813697  1
  O  O330  1  1.01198921  0.87026736  0.98217240  1
  O  O331  1  0.48687933  0.50790469  0.38463672  1
  O  O332  1  0.48910481  0.49621319  0.87850669  1
  O  O333  1  0.49222456  0.99178514  0.37785841  1
  O  O334  1  0.49161625  1.00366533  0.87580837  1
  O  O335  1  0.99307520  0.49201782  0.37642372  1
  O  O336  1  0.99919649  0.49063884  0.88637244  1
  O  O337  1  0.97951781  1.01428415  0.39442244  1
  O  O338  1  1.00182015  0.98105624  0.86389122  1
  O  O339  1  -0.00710432  0.01448462  0.12453546  1
  O  O340  1  -0.00866332  0.00966870  0.61648739  1
  O  O341  1  -0.00378994  0.50599687  0.11205147  1
  O  O342  1  0.01491349  0.49586129  0.62136916  1
  O  O343  1  0.49504692  0.01457524  0.11473117  1
  O  O344  1  0.51679898  0.00355238  0.62850767  1
  O  O345  1  0.51348996  0.49753733  0.12501239  1
  O  O346  1  0.50416290  0.50730166  0.61714840  1
  O  O347  1  0.24632736  0.38239475  0.24362945  1
  O  O348  1  0.23932174  0.37377111  0.73981480  1
  O  O349  1  0.25056598  0.89008520  0.24557328  1
  O  O350  1  0.24687968  0.87950375  0.74166911  1
  O  O351  1  0.74289510  0.38759434  0.25222667  1
  O  O352  1  0.74625183  0.38365379  0.74959567  1
  O  O353  1  0.74028377  0.88432467  0.24213674  1
  O  O354  1  0.75978870  0.89086740  0.75948555  1
  O  O355  1  0.25073281  0.11787873  0.25782169  1
  O  O356  1  0.24786376  0.11768843  0.75502194  1
  O  O357  1  0.25570539  0.61755914  0.25457991  1
  O  O358  1  0.25481886  0.63260281  0.75181101  1
  O  O359  1  0.75170095  0.11779855  0.25692259  1
  O  O360  1  0.76137559  0.12168178  0.76106853  1
  O  O361  1  0.74737941  0.61418291  0.25840739  1
  O  O362  1  0.75880681  0.62184773  0.75689200  1
  O  O363  1  0.36212720  0.11378559  0.37935488  1
  O  O364  1  0.36774198  0.11877115  0.87306212  1
  O  O365  1  0.36533331  0.62053946  0.36741663  1
  O  O366  1  0.37586951  0.60933070  0.87628583  1
  O  O367  1  0.86342170  0.11857829  0.36946861  1
  O  O368  1  0.86873438  0.13052801  0.86815785  1
  O  O369  1  0.86746691  0.62050005  0.37327150  1
  O  O370  1  0.86637233  0.62909389  0.86878925  1
  O  O371  1  0.13861088  0.36549422  0.13018647  1
  O  O372  1  0.12912817  0.38086282  0.63173085  1
  O  O373  1  0.13796922  0.87555215  0.09872269  1
  O  O374  1  0.13751746  0.87250547  0.63490992  1
  O  O375  1  0.62706106  0.38117411  0.13918829  1
  O  O376  1  0.62739246  0.38200710  0.63141078  1
  O  O377  1  0.62890607  0.88047346  0.13132836  1
  O  O378  1  0.62639987  0.89103256  0.62831318  1
  O  O379  1  0.11964255  0.25469623  0.25678336  1
  O  O380  1  0.12798804  0.26286573  0.76248740  1
  O  O381  1  0.13327449  0.75295156  0.25795737  1
  O  O382  1  0.11804621  0.75696668  0.75498875  1
  O  O383  1  0.62670145  0.26468652  0.25890637  1
  O  O384  1  0.62023817  0.25605651  0.75664593  1
  O  O385  1  0.62961289  0.76449819  0.25108943  1
  O  O386  1  0.61407113  0.74364773  0.76369274  1
  O  O387  1  0.37461213  0.25916640  0.23866042  1
  O  O388  1  0.38326071  0.25789129  0.74386929  1
  O  O389  1  0.36740622  0.74157490  0.23600321  1
  O  O390  1  0.39311818  0.74749464  0.75935029  1
  O  O391  1  0.87813624  0.24510365  0.24692258  1
  O  O392  1  0.87123083  0.24120105  0.74143194  1
  O  O393  1  0.87203033  0.74725909  0.23306313  1
  O  O394  1  0.89115233  0.74419203  0.74875126  1
  O  O395  1  0.37865332  0.49666631  0.49248586  1
  O  O396  1  0.37764425  0.49034590  0.99585235  1
  O  O397  1  0.36472686  0.98149792  0.48240634  1
  O  O398  1  0.37980430  0.99477335  0.98937943  1
  O  O399  1  0.87618662  0.49141072  0.49462011  1
  O  O400  1  0.88340220  0.49390132  0.99749056  1
  O  O401  1  0.87343031  0.98362211  0.49855574  1
  O  O402  1  0.87212538  0.99204792  0.99105827  1
  O  O403  1  0.12969033  0.01966623  -0.01192314  1
  O  O404  1  0.10910089  -0.00377745  0.49414407  1
  O  O405  1  0.11733182  0.50962131  -0.00578681  1
  O  O406  1  0.12283539  0.50941954  0.50409385  1
  O  O407  1  0.60784169  -0.00469237  -0.00202516  1
  O  O408  1  0.62963330  -0.00287603  0.51335127  1
  O  O409  1  0.62487553  0.50534583  0.00900455  1
  O  O410  1  0.61349650  0.49768904  0.50312318  1
  O  O411  1  0.36711158  0.36926808  0.11868780  1
  O  O412  1  0.36617712  0.37191379  0.61824259  1
  O  O413  1  0.37376380  0.86635388  0.11288096  1
  O  O414  1  0.36582925  0.87941474  0.61236665  1
  O  O415  1  0.87188180  0.36815677  0.11970906  1
  O  O416  1  0.87752367  0.36767522  0.61863225  1
  O  O417  1  0.86412671  0.86896833  0.12599154  1
  O  O418  1  0.87271786  0.87586457  0.62155821  1
  O  O419  1  0.13737030  0.12951716  0.37896257  1
  O  O420  1  0.12677452  0.13602668  0.87853029  1
  O  O421  1  0.13477192  0.63082739  0.37961020  1
  O  O422  1  0.12331773  0.63182249  0.88238814  1
  O  O423  1  0.63106147  0.13959827  0.36748256  1
  O  O424  1  0.63584072  0.13928067  0.86753911  1
  O  O425  1  0.63520168  0.62781462  0.37960169  1
  O  O426  1  0.63454476  0.63124957  0.88040429  1
