# generated using pymatgen
data_V85Zn86O256
_symmetry_space_group_name_H-M   'P 1'
_cell_length_a   16.96564557
_cell_length_b   16.97886054
_cell_length_c   16.96590693
_cell_angle_alpha   89.87450979
_cell_angle_beta   89.97204501
_cell_angle_gamma   89.92152170
_symmetry_Int_Tables_number   1
_chemical_formula_structural   V85Zn86O256
_chemical_formula_sum   'V85 Zn86 O256'
_cell_volume   4887.13697277
_cell_formula_units_Z   1
loop_
 _symmetry_equiv_pos_site_id
 _symmetry_equiv_pos_as_xyz
  1  'x, y, z'
loop_
 _atom_site_type_symbol
 _atom_site_label
 _atom_site_symmetry_multiplicity
 _atom_site_fract_x
 _atom_site_fract_y
 _atom_site_fract_z
 _atom_site_occupancy
  V  V0  1  0.51612206  0.62468829  0.12276390  1
  V  V1  1  0.74868956  0.12651663  0.87144917  1
  V  V2  1  0.37356362  0.63284770  0.74619503  1
  V  V3  1  0.24802322  0.24958816  0.50561559  1
  V  V4  1  0.62473977  0.48463225  0.63505374  1
  V  V5  1  0.74955707  0.50036808  0.24170145  1
  V  V6  1  0.00118777  0.25279524  0.24847876  1
  V  V7  1  0.11902770  0.12500293  0.50079676  1
  V  V8  1  0.74736779  0.13282005  0.37373829  1
  V  V9  1  0.12768027  0.13174504  -0.00767919  1
  V  V10  1  0.12097994  0.74720610  0.87953618  1
  V  V11  1  0.24625210  0.74936641  0.00177711  1
  V  V12  1  0.74839498  0.25323029  0.50447866  1
  V  V13  1  0.49894561  0.00071507  -0.00069188  1
  V  V14  1  0.39147864  0.24086340  0.62082465  1
  V  V15  1  0.87839862  0.12667759  0.74373872  1
  V  V16  1  0.50069400  0.87701818  0.37189371  1
  V  V17  1  0.74728885  0.86793988  0.61607107  1
  V  V18  1  0.11766459  0.00330779  0.62505688  1
  V  V19  1  -0.00396603  0.87417877  0.37705969  1
  V  V20  1  0.38047153  0.37817977  -0.00117033  1
  V  V21  1  0.37212247  0.37157950  0.50134854  1
  V  V22  1  0.50918858  0.50039117  0.50153581  1
  V  V23  1  0.25014110  0.61984208  0.87539139  1
  V  V24  1  0.12777353  0.61687889  0.50786043  1
  V  V25  1  0.24664792  0.00345557  0.75291217  1
  V  V26  1  0.87565798  0.49773543  0.37809870  1
  V  V27  1  0.49799987  0.87632998  0.87584942  1
  V  V28  1  0.12426127  0.61570248  0.00242581  1
  V  V29  1  0.50918888  0.25109471  0.25098211  1
  V  V30  1  0.00620748  0.37347190  0.37140354  1
  V  V31  1  0.62841449  0.74549365  0.88664031  1
  V  V32  1  0.51142698  0.50439802  0.00468973  1
  V  V33  1  0.50565417  0.63309481  0.62758462  1
  V  V34  1  0.24970037  0.00074163  0.25015180  1
  V  V35  1  0.12309971  0.87391196  0.75038836  1
  V  V36  1  0.37882935  0.49972422  0.37509327  1
  V  V37  1  0.87148429  0.25970111  0.11879252  1
  V  V38  1  0.50077367  0.12635249  0.12404126  1
  V  V39  1  0.25015867  0.49463080  0.25493053  1
  V  V40  1  0.00510722  0.62201634  0.12513494  1
  V  V41  1  -0.00159158  0.00260234  -0.00097766  1
  V  V42  1  0.24466287  0.87354189  0.12449081  1
  V  V43  1  0.62564114  0.87203284  0.74922260  1
  V  V44  1  0.38672545  0.12465132  0.74352098  1
  V  V45  1  0.87148542  -0.00183895  0.87953644  1
  V  V46  1  0.38301557  0.50383870  0.87518506  1
  V  V47  1  0.63004883  0.37925649  0.23763673  1
  V  V48  1  0.62282770  0.12686629  -0.00321517  1
  V  V49  1  0.87473985  0.49529857  0.89406955  1
  V  V50  1  0.25022379  0.25155398  -0.00633250  1
  V  V51  1  0.75133510  0.25636895  -0.00206714  1
  V  V52  1  0.37511695  0.12712692  0.24902085  1
  V  V53  1  0.13035734  0.74968278  0.38191127  1
  V  V54  1  0.24833512  0.37531667  0.12640765  1
  V  V55  1  0.62258656  0.00502788  0.62382467  1
  V  V56  1  0.00881404  0.25099545  0.74773947  1
  V  V57  1  0.87066620  0.37279906  0.50699052  1
  V  V58  1  0.00296303  0.74600597  0.25456623  1
  V  V59  1  -0.00027387  0.12842248  0.12273285  1
  V  V60  1  0.25348020  0.86897209  0.62523167  1
  V  V61  1  0.50426181  0.75214401  0.24974967  1
  V  V62  1  0.51060400  0.37251679  0.37319071  1
  V  V63  1  0.74364713  0.62270489  0.87863719  1
  V  V64  1  0.37436284  0.74828356  0.12318172  1
  V  V65  1  0.75380683  0.48454168  0.74345090  1
  V  V66  1  0.37485023  0.87058407  0.50362895  1
  V  V67  1  0.12303249  0.00100585  0.12506737  1
  V  V68  1  0.00590980  0.49662281  0.50877669  1
  V  V69  1  0.62268292  0.13023853  0.49627512  1
  V  V70  1  0.25934034  0.62386287  0.37637957  1
  V  V71  1  -0.00411440  -0.00106171  0.50106042  1
  V  V72  1  0.62906095  -0.00509776  0.12458919  1
  V  V73  1  0.88153237  0.62226003  0.25129347  1
  V  V74  1  0.60993931  0.26012288  0.85896050  1
  V  V75  1  0.74871349  -0.00009199  0.24719772  1
  V  V76  1  0.12599840  0.49739292  0.12920965  1
  V  V77  1  0.87456953  0.12741092  0.24849155  1
  V  V78  1  0.74448598  0.62957102  0.38318962  1
  V  V79  1  0.87161419  0.74842609  0.61966593  1
  V  V80  1  0.00181199  0.37368983  0.88915029  1
  V  V81  1  0.12586417  0.25375003  0.36960822  1
  V  V82  1  -0.00665292  0.87486550  0.87879879  1
  V  V83  1  0.49665313  0.00594295  0.50261226  1
  V  V84  1  -0.00549827  0.74505236  0.75056175  1
  Zn  Zn85  1  0.00250405  0.61873808  0.63063446  1
  Zn  Zn86  1  0.81917669  0.80536095  0.06840504  1
  Zn  Zn87  1  0.86896255  0.62239934  0.74957033  1
  Zn  Zn88  1  0.24879734  0.12560879  0.37406739  1
  Zn  Zn89  1  0.75216284  -0.00028774  0.74680038  1
  Zn  Zn90  1  0.87418822  0.24677024  0.62578624  1
  Zn  Zn91  1  0.49455409  0.75404978  0.74908785  1
  Zn  Zn92  1  0.63000757  0.87265957  0.24727721  1
  Zn  Zn93  1  0.26065243  0.74414186  0.50726948  1
  Zn  Zn94  1  0.12746790  0.38388570  0.73638731  1
  Zn  Zn95  1  0.12528972  0.87654880  0.25287834  1
  Zn  Zn96  1  0.75402148  0.39933270  0.10451617  1
  Zn  Zn97  1  0.37896306  0.62453723  0.24966313  1
  Zn  Zn98  1  0.37156487  0.00548172  0.87672530  1
  Zn  Zn99  1  0.37703036  0.25343954  0.12470124  1
  Zn  Zn100  1  0.24590520  0.14184110  0.86388994  1
  Zn  Zn101  1  0.37167956  0.00171216  0.37685250  1
  Zn  Zn102  1  0.86553385  0.86984249  0.49432514  1
  Zn  Zn103  1  0.87382698  -0.00006696  0.37373548  1
  Zn  Zn104  1  0.37100630  0.87801717  -0.00210275  1
  Zn  Zn105  1  0.64332949  0.75798988  0.39415442  1
  Zn  Zn106  1  0.24209870  0.49730719  0.73213247  1
  Zn  Zn107  1  0.18711679  0.18875716  0.18348649  1
  Zn  Zn108  1  0.18711825  0.19085387  0.68339201  1
  Zn  Zn109  1  0.18846440  0.68533917  0.19208939  1
  Zn  Zn110  1  0.18501331  0.68606990  0.69246788  1
  Zn  Zn111  1  0.68741986  0.18781225  0.18355316  1
  Zn  Zn112  1  0.68716548  0.18919594  0.68520469  1
  Zn  Zn113  1  0.69246306  0.68751119  0.18696624  1
  Zn  Zn114  1  0.68645165  0.68197642  0.69149179  1
  Zn  Zn115  1  0.31489747  0.31255257  0.31552151  1
  Zn  Zn116  1  0.34407082  0.33546265  0.78535951  1
  Zn  Zn117  1  0.31737017  0.81349081  0.31336821  1
  Zn  Zn118  1  0.30943322  0.81255518  0.81415053  1
  Zn  Zn119  1  0.81327359  0.31388758  0.31235876  1
  Zn  Zn120  1  0.81684685  0.31125606  0.81523412  1
  Zn  Zn121  1  0.79795747  0.79471360  0.26946821  1
  Zn  Zn122  1  0.80802530  0.81219726  0.81372478  1
  Zn  Zn123  1  0.19319941  0.43545263  0.56530432  1
  Zn  Zn124  1  0.21528952  0.40082646  0.89426275  1
  Zn  Zn125  1  0.18749235  0.93694531  0.43854721  1
  Zn  Zn126  1  0.18150807  0.93687299  0.93843672  1
  Zn  Zn127  1  0.68844451  0.44022621  0.43507154  1
  Zn  Zn128  1  0.68473625  0.43528788  0.92556358  1
  Zn  Zn129  1  0.68580626  0.94328534  0.43307310  1
  Zn  Zn130  1  0.69156624  0.93211137  0.94584332  1
  Zn  Zn131  1  0.31190505  0.06349382  0.06256141  1
  Zn  Zn132  1  0.30695010  0.06115999  0.56371219  1
  Zn  Zn133  1  0.31566217  0.56230979  0.06284229  1
  Zn  Zn134  1  0.32288145  0.56591117  0.56107405  1
  Zn  Zn135  1  0.81121970  0.06753280  0.06120450  1
  Zn  Zn136  1  0.80810367  0.05964114  0.56120121  1
  Zn  Zn137  1  0.81800528  0.60266990  0.05395037  1
  Zn  Zn138  1  0.81217052  0.56355512  0.56583619  1
  Zn  Zn139  1  0.43847677  0.43967320  0.18494900  1
  Zn  Zn140  1  0.42793293  0.44425109  0.68202916  1
  Zn  Zn141  1  0.43547870  0.93748602  0.18389121  1
  Zn  Zn142  1  0.43691693  0.94021028  0.68752975  1
  Zn  Zn143  1  0.93776686  0.43787661  0.18619581  1
  Zn  Zn144  1  0.93893558  0.43134257  0.69173040  1
  Zn  Zn145  1  0.92973687  0.93703129  0.18659163  1
  Zn  Zn146  1  0.93245088  0.93436984  0.68980483  1
  Zn  Zn147  1  0.06158447  0.06565176  0.31324413  1
  Zn  Zn148  1  0.06011399  0.06485003  0.81281299  1
  Zn  Zn149  1  0.07008018  0.55814000  0.31974062  1
  Zn  Zn150  1  0.06307684  0.55279157  0.81589279  1
  Zn  Zn151  1  0.56325022  0.06289475  0.31367074  1
  Zn  Zn152  1  0.56517550  0.06195835  0.81241965  1
  Zn  Zn153  1  0.56542942  0.56293073  0.30773502  1
  Zn  Zn154  1  0.56168554  0.55976423  0.80954770  1
  Zn  Zn155  1  0.43854006  0.18786609  0.43131747  1
  Zn  Zn156  1  0.43201421  0.18863552  0.93341591  1
  Zn  Zn157  1  0.47093145  0.70201669  0.45403018  1
  Zn  Zn158  1  0.44042530  0.68783713  0.93944923  1
  Zn  Zn159  1  0.93498450  0.18684109  0.43628476  1
  Zn  Zn160  1  0.93724044  0.18997042  0.93370184  1
  Zn  Zn161  1  0.93935085  0.68416305  0.43981092  1
  Zn  Zn162  1  0.93063957  0.68598426  0.94013418  1
  Zn  Zn163  1  0.06477062  0.31432516  0.06179495  1
  Zn  Zn164  1  0.05630239  0.30875045  0.56420415  1
  Zn  Zn165  1  0.02297778  0.82824350  0.08375139  1
  Zn  Zn166  1  0.06287756  0.81177437  0.56441234  1
  Zn  Zn167  1  0.56592931  0.31313344  0.05848926  1
  Zn  Zn168  1  0.56310381  0.31148457  0.56323721  1
  Zn  Zn169  1  0.56379505  0.81322613  0.06186742  1
  Zn  Zn170  1  0.56522483  0.81539126  0.55965671  1
  O  O171  1  0.11928141  0.12093933  0.11573785  1
  O  O172  1  0.12799420  0.11351268  0.61349164  1
  O  O173  1  0.12455318  0.61603759  0.12277515  1
  O  O174  1  0.12303988  0.63321094  0.61118031  1
  O  O175  1  0.61892260  0.11840356  0.11716125  1
  O  O176  1  0.63276907  0.11252605  0.61308982  1
  O  O177  1  0.61562446  0.63020055  0.12829371  1
  O  O178  1  0.60922731  0.61295879  0.63275717  1
  O  O179  1  0.38812483  0.37986165  0.38048188  1
  O  O180  1  0.36590410  0.39122894  0.89339975  1
  O  O181  1  0.38199417  0.88182972  0.38343143  1
  O  O182  1  0.38636629  0.87734000  0.87418792  1
  O  O183  1  0.88315770  0.38201588  0.38248102  1
  O  O184  1  0.87817975  0.38960991  0.87440976  1
  O  O185  1  0.89046437  0.87538537  0.37700429  1
  O  O186  1  0.88322211  0.88548611  0.86595211  1
  O  O187  1  0.24863954  0.00227864  0.36253680  1
  O  O188  1  0.24851849  -0.00417372  0.86033527  1
  O  O189  1  0.26090919  0.50828345  0.36715522  1
  O  O190  1  0.26175707  0.51595976  0.88521491  1
  O  O191  1  0.75209989  0.01472182  0.36857587  1
  O  O192  1  0.75527495  0.01010611  0.87397407  1
  O  O193  1  0.76043588  0.50684316  0.36855382  1
  O  O194  1  0.75729034  0.49949323  0.86055103  1
  O  O195  1  0.24679780  0.49546558  0.13432701  1
  O  O196  1  0.27402533  0.48775133  0.62329918  1
  O  O197  1  0.24415845  0.99469980  0.13183226  1
  O  O198  1  0.23777516  0.99193040  0.63340976  1
  O  O199  1  0.76374801  0.50981729  0.13946456  1
  O  O200  1  0.73506069  0.50393093  0.63244722  1
  O  O201  1  0.74076302  1.01160480  0.13438302  1
  O  O202  1  0.73873058  0.98845126  0.62494814  1
  O  O203  1  -0.00638487  0.36885470  0.26301369  1
  O  O204  1  0.00105125  0.36229578  0.75669854  1
  O  O205  1  0.00479988  0.86404721  0.26172849  1
  O  O206  1  0.00329600  0.86636819  0.75915301  1
  O  O207  1  0.50881142  0.37145662  0.25206077  1
  O  O208  1  0.44799815  0.37166912  0.76181568  1
  O  O209  1  0.50027267  0.87209718  0.25565184  1
  O  O210  1  0.50647160  0.87662832  0.75738195  1
  O  O211  1  0.49561619  0.13260564  0.24675927  1
  O  O212  1  0.48484598  0.11541484  0.74803133  1
  O  O213  1  0.49849323  0.63340498  0.24231713  1
  O  O214  1  0.49254867  0.62517366  0.74119312  1
  O  O215  1  0.99441874  0.13224720  0.24332698  1
  O  O216  1  0.98950779  0.13984587  0.76318428  1
  O  O217  1  1.00041676  0.62636023  0.25267554  1
  O  O218  1  0.99858423  0.63700674  0.75275814  1
  O  O219  1  0.37016393  0.25918913  0.00406925  1
  O  O220  1  0.36976824  0.24864355  0.50368717  1
  O  O221  1  0.36725785  0.75156816  0.00811704  1
  O  O222  1  0.37978534  0.76677336  0.49858636  1
  O  O223  1  0.86384619  0.24255866  0.00788824  1
  O  O224  1  0.86873828  0.25584333  0.50120790  1
  O  O225  1  0.85680561  0.70674253  0.01923522  1
  O  O226  1  0.88527306  0.75300902  0.51458091  1
  O  O227  1  0.12869145  0.24112317  0.49278764  1
  O  O228  1  0.13563179  0.24053539  1.00804766  1
  O  O229  1  0.12712337  0.74168020  0.49188493  1
  O  O230  1  0.13043012  0.73595277  0.99527650  1
  O  O231  1  0.63170105  0.23888679  0.50469469  1
  O  O232  1  0.63199055  0.24410758  0.99083429  1
  O  O233  1  0.57950201  0.73923630  0.48192516  1
  O  O234  1  0.62416945  0.75193921  0.98568749  1
  O  O235  1  0.50008140  0.24563751  0.13382029  1
  O  O236  1  0.49014627  0.23811331  0.61474818  1
  O  O237  1  0.49432623  0.74576963  0.12903125  1
  O  O238  1  0.50463490  0.73563112  0.62797815  1
  O  O239  1  0.99262243  0.24865147  0.12842647  1
  O  O240  1  0.99272160  0.25033894  0.64244137  1
  O  O241  1  1.01883805  0.73055007  0.14557205  1
  O  O242  1  0.99226697  0.75253802  0.63686955  1
  O  O243  1  0.00492812  0.25484571  0.36995165  1
  O  O244  1  -0.01195043  0.26592047  0.86433151  1
  O  O245  1  0.01120774  0.75366888  0.37443559  1
  O  O246  1  -0.00164913  0.75539746  0.87155077  1
  O  O247  1  0.49668711  0.26100622  0.36258714  1
  O  O248  1  0.51190172  0.24457301  0.87687007  1
  O  O249  1  0.48450911  0.76405152  0.35744346  1
  O  O250  1  0.51042245  0.75892584  0.87425511  1
  O  O251  1  0.23838536  0.12936115  0.49549211  1
  O  O252  1  0.24470212  0.13455342  1.00026450  1
  O  O253  1  0.24743573  0.62561541  0.49384755  1
  O  O254  1  0.24467374  0.63050163  0.99509863  1
  O  O255  1  0.74390802  0.13111914  0.49198364  1
  O  O256  1  0.74349120  0.13300077  0.98895664  1
  O  O257  1  0.75801277  0.62028559  0.48212848  1
  O  O258  1  0.73203207  0.60356473  0.97639236  1
  O  O259  1  0.25751768  0.37005180  0.00765956  1
  O  O260  1  0.26555038  0.36322676  0.49304854  1
  O  O261  1  0.24695635  0.86755989  0.00572229  1
  O  O262  1  0.25786940  0.87561274  0.50782855  1
  O  O263  1  0.74324764  0.36196580  -0.00383643  1
  O  O264  1  0.75833078  0.36430319  0.48713937  1
  O  O265  1  0.76810851  0.87200619  -0.00700020  1
  O  O266  1  0.74529823  0.87670193  0.50998967  1
  O  O267  1  0.14009769  0.50393946  0.24400163  1
  O  O268  1  0.12652726  0.50129753  0.74225517  1
  O  O269  1  0.13420325  1.00384120  0.24429503  1
  O  O270  1  0.12676309  0.99657738  0.74332723  1
  O  O271  1  0.63723424  0.49158846  0.25130956  1
  O  O272  1  0.63312432  0.49665461  0.74204519  1
  O  O273  1  0.63164793  1.00439589  0.24032433  1
  O  O274  1  0.62401560  0.99102599  0.73996683  1
  O  O275  1  0.36599743  0.00892718  0.24766635  1
  O  O276  1  0.36424823  0.01177556  0.74561147  1
  O  O277  1  0.37004021  0.50225617  0.25704383  1
  O  O278  1  0.37151597  0.51764640  0.76324260  1
  O  O279  1  0.86668109  0.00914855  0.24857265  1
  O  O280  1  0.87551759  0.00774168  0.76150630  1
  O  O281  1  0.87255078  0.50227518  0.26265150  1
  O  O282  1  0.86044639  0.50086059  0.74183220  1
  O  O283  1  0.11201309  0.36077163  0.38225162  1
  O  O284  1  0.10204135  0.38538499  0.87656793  1
  O  O285  1  0.11935750  0.86502325  0.37660415  1
  O  O286  1  0.11531183  0.86840965  0.86859528  1
  O  O287  1  0.61467372  0.38038157  0.36498157  1
  O  O288  1  0.62417306  0.35889073  0.86889275  1
  O  O289  1  0.61242351  0.87475000  0.37305472  1
  O  O290  1  0.61913662  0.86713133  0.86813695  1
  O  O291  1  0.38166721  0.12639561  0.13515472  1
  O  O292  1  0.37307731  0.12948942  0.63027586  1
  O  O293  1  0.38153847  0.63729286  0.12557186  1
  O  O294  1  0.38911203  0.62116752  0.63701754  1
  O  O295  1  0.88079272  0.13577281  0.12910657  1
  O  O296  1  0.86813639  0.11902910  0.64033724  1
  O  O297  1  0.89234041  0.61132304  0.14566760  1
  O  O298  1  0.87869058  0.63484511  0.62848425  1
  O  O299  1  0.25249431  0.26157671  0.12008499  1
  O  O300  1  0.25813791  0.24355330  0.60854980  1
  O  O301  1  0.25503937  0.75299120  0.12312540  1
  O  O302  1  0.24278826  0.76490410  0.62592589  1
  O  O303  1  0.75733938  0.24709794  0.11340617  1
  O  O304  1  0.75312787  0.24547380  0.60874271  1
  O  O305  1  0.76253019  0.76768372  0.16353819  1
  O  O306  1  0.75751444  0.75670129  0.63223299  1
  O  O307  1  0.24217721  0.24885900  0.38236238  1
  O  O308  1  0.25371144  0.25759640  0.89227475  1
  O  O309  1  0.24657951  0.74224013  0.37688302  1
  O  O310  1  0.24227186  0.74059353  0.88029355  1
  O  O311  1  0.75473480  0.23914564  0.38282468  1
  O  O312  1  0.74616977  0.24136438  0.88003118  1
  O  O313  1  0.75309523  0.73519620  0.36472934  1
  O  O314  1  0.73565941  0.74042346  0.86760566  1
  O  O315  1  0.00840481  0.12422793  0.00210477  1
  O  O316  1  0.00839839  0.11341673  0.49343575  1
  O  O317  1  0.01158598  0.62886067  0.01579182  1
  O  O318  1  0.01078229  0.61230733  0.49842679  1
  O  O319  1  0.50230647  0.12023680  0.00370427  1
  O  O320  1  0.50837386  0.11530785  0.48858861  1
  O  O321  1  0.49871815  0.61456976  0.00891105  1
  O  O322  1  0.48722444  0.60812917  0.51857275  1
  O  O323  1  0.49700570  0.37858016  0.49013154  1
  O  O324  1  0.49005706  0.38967179  1.01240435  1
  O  O325  1  0.49204390  0.88771191  0.49289416  1
  O  O326  1  0.49932722  0.88153326  0.99028913  1
  O  O327  1  0.99101764  0.37864891  0.49101384  1
  O  O328  1  0.99478447  0.36683986  0.98894678  1
  O  O329  1  1.00334662  0.88422176  0.49314658  1
  O  O330  1  1.00874354  0.88390656  0.98282903  1
  O  O331  1  0.49879672  0.49531693  0.38136151  1
  O  O332  1  0.49091966  0.51147809  0.88966097  1
  O  O333  1  0.49854098  0.99225790  0.38181261  1
  O  O334  1  0.50065086  0.99099348  0.88005662  1
  O  O335  1  0.99531020  0.49198313  0.38352324  1
  O  O336  1  0.98159983  0.49161913  0.87366189  1
  O  O337  1  1.00166442  0.99140229  0.38242278  1
  O  O338  1  0.99199658  0.99373917  0.87770429  1
  O  O339  1  0.00357693  0.01003014  0.11925325  1
  O  O340  1  0.00958885  -0.01024798  0.61719241  1
  O  O341  1  0.01530031  0.50835758  0.13827201  1
  O  O342  1  -0.00837376  0.49938220  0.61135798  1
  O  O343  1  0.50743354  0.00661165  0.11982658  1
  O  O344  1  0.51045048  -0.00638484  0.61288354  1
  O  O345  1  0.49725724  0.51125415  0.11505703  1
  O  O346  1  0.50948815  0.50187259  0.62155762  1
  O  O347  1  0.25919639  0.38407402  0.24062759  1
  O  O348  1  0.24204640  0.38530184  0.78066675  1
  O  O349  1  0.24900478  0.88469686  0.24496760  1
  O  O350  1  0.24433501  0.88215744  0.74411147  1
  O  O351  1  0.74386999  0.38451116  0.25301278  1
  O  O352  1  0.75422615  0.38585186  0.74894419  1
  O  O353  1  0.74694628  0.89779415  0.26519438  1
  O  O354  1  0.73928809  0.87796839  0.74129774  1
  O  O355  1  0.25840419  0.11843193  0.24656983  1
  O  O356  1  0.25007704  0.11567033  0.74737048  1
  O  O357  1  0.25522833  0.61670801  0.26052016  1
  O  O358  1  0.25558431  0.62628853  0.76068221  1
  O  O359  1  0.75265978  0.12182946  0.25643082  1
  O  O360  1  0.75666990  0.12347628  0.75860168  1
  O  O361  1  0.76381695  0.61598453  0.25965854  1
  O  O362  1  0.74798430  0.61174061  0.75946535  1
  O  O363  1  0.37262623  0.12281718  0.36057299  1
  O  O364  1  0.36720194  0.12658156  0.85634606  1
  O  O365  1  0.36838783  0.61968958  0.37923541  1
  O  O366  1  0.36853382  0.62314656  0.87176351  1
  O  O367  1  0.86666130  0.12360775  0.36671055  1
  O  O368  1  0.86603437  0.11865188  0.86706905  1
  O  O369  1  0.87438479  0.61349020  0.37021210  1
  O  O370  1  0.86546755  0.60880664  0.87076724  1
  O  O371  1  0.13706254  0.38551703  0.11954529  1
  O  O372  1  0.13192495  0.36276679  0.62342553  1
  O  O373  1  0.12503855  0.88304259  0.12905235  1
  O  O374  1  0.13183006  0.88350917  0.63004896  1
  O  O375  1  0.63476526  0.37384919  0.13376763  1
  O  O376  1  0.61948147  0.38557410  0.62852546  1
  O  O377  1  0.62013602  0.89098670  0.12636311  1
  O  O378  1  0.62867264  0.88038045  0.62966363  1
  O  O379  1  0.11850539  0.24294026  0.26055396  1
  O  O380  1  0.11063751  0.24438423  0.75046767  1
  O  O381  1  0.12076899  0.74627040  0.26704318  1
  O  O382  1  0.11415910  0.75347803  0.75864551  1
  O  O383  1  0.61621107  0.25856384  0.24582150  1
  O  O384  1  0.62386770  0.24150075  0.76025362  1
  O  O385  1  0.61040024  0.75318961  0.25423581  1
  O  O386  1  0.62039664  0.76330890  0.75292718  1
  O  O387  1  0.38477610  0.24302011  0.24761649  1
  O  O388  1  0.36834612  0.23338379  0.72974319  1
  O  O389  1  0.38232584  0.75031375  0.23761580  1
  O  O390  1  0.37657880  0.73850299  0.75734548  1
  O  O391  1  0.87897933  0.24609703  0.24074790  1
  O  O392  1  0.87793336  0.24117051  0.74762275  1
  O  O393  1  0.89584642  0.73350271  0.26544334  1
  O  O394  1  0.88162551  0.74994574  0.74377917  1
  O  O395  1  0.38799981  0.48777429  0.49379874  1
  O  O396  1  0.38373022  0.49721842  0.99546858  1
  O  O397  1  0.38160397  0.99637500  0.49963517  1
  O  O398  1  0.38128900  0.99884942  0.99658223  1
  O  O399  1  0.88037343  0.49328207  0.49266321  1
  O  O400  1  0.86500484  0.50391160  0.99163559  1
  O  O401  1  0.88518978  0.99676457  0.49869849  1
  O  O402  1  0.88245282  1.01326166  0.98637014  1
  O  O403  1  0.11937320  0.01018354  0.00537472  1
  O  O404  1  0.11787791  0.00569416  0.50575192  1
  O  O405  1  0.13259438  0.51298761  0.01554488  1
  O  O406  1  0.11828002  0.50588475  0.50162494  1
  O  O407  1  0.62040598  0.00634231  0.00585330  1
  O  O408  1  0.61692050  0.00790335  0.50530434  1
  O  O409  1  0.60886363  0.49165694  -0.00690813  1
  O  O410  1  0.61589310  0.49281714  0.51194386  1
  O  O411  1  0.36461684  0.37880670  0.11630890  1
  O  O412  1  0.38516192  0.35462420  0.60831633  1
  O  O413  1  0.36693179  0.86466824  0.12178478  1
  O  O414  1  0.36411706  0.88431059  0.61742043  1
  O  O415  1  0.86945704  0.36414224  0.12873170  1
  O  O416  1  0.87648305  0.37472045  0.60885335  1
  O  O417  1  0.91451960  0.85626294  0.11503863  1
  O  O418  1  0.86308156  0.86797625  0.62439056  1
  O  O419  1  0.12469261  0.13495990  0.38362843  1
  O  O420  1  0.12924916  0.12072342  0.88795071  1
  O  O421  1  0.13784159  0.62913480  0.38635701  1
  O  O422  1  0.13049283  0.62566326  0.88409171  1
  O  O423  1  0.63431566  0.12093868  0.38546689  1
  O  O424  1  0.63351413  0.12910357  0.87746274  1
  O  O425  1  0.64307663  0.62101751  0.36994272  1
  O  O426  1  0.62426438  0.64170928  0.86438237  1
