# generated using pymatgen
data_V85Zn86O256
_symmetry_space_group_name_H-M   'P 1'
_cell_length_a   16.94490969
_cell_length_b   16.94550233
_cell_length_c   16.94629944
_cell_angle_alpha   90.21770069
_cell_angle_beta   89.89011381
_cell_angle_gamma   89.88662137
_symmetry_Int_Tables_number   1
_chemical_formula_structural   V85Zn86O256
_chemical_formula_sum   'V85 Zn86 O256'
_cell_volume   4865.90686100
_cell_formula_units_Z   1
loop_
 _symmetry_equiv_pos_site_id
 _symmetry_equiv_pos_as_xyz
  1  'x, y, z'
loop_
 _atom_site_type_symbol
 _atom_site_label
 _atom_site_symmetry_multiplicity
 _atom_site_fract_x
 _atom_site_fract_y
 _atom_site_fract_z
 _atom_site_occupancy
  V  V0  1  0.61978393  0.86875581  0.74826690  1
  V  V1  1  0.49450039  0.50339150  0.50011673  1
  V  V2  1  0.36521092  0.61950449  0.24860857  1
  V  V3  1  0.39391412  0.25316476  0.63012680  1
  V  V4  1  0.49436318  0.88092642  0.37650688  1
  V  V5  1  0.62245163  0.37203112  0.74596194  1
  V  V6  1  0.37439322  0.49902190  0.87370798  1
  V  V7  1  0.00343604  -0.00145318  0.00523544  1
  V  V8  1  -0.00554689  0.37573262  0.37683149  1
  V  V9  1  0.24792935  0.75238542  0.00282674  1
  V  V10  1  0.38906626  0.12882109  0.74565207  1
  V  V11  1  0.13685681  0.88057760  0.24768492  1
  V  V12  1  -0.00721329  -0.00032435  0.49084722  1
  V  V13  1  0.38168589  0.63784857  0.74525743  1
  V  V14  1  -0.00119898  0.12464406  0.62528572  1
  V  V15  1  0.12651031  0.87760428  0.74850571  1
  V  V16  1  0.75059827  0.12462269  0.87505610  1
  V  V17  1  0.62437741  0.62676199  -0.00101712  1
  V  V18  1  0.11058888  0.62322695  0.00819614  1
  V  V19  1  0.12310214  0.63834399  0.50304240  1
  V  V20  1  0.62545241  0.25039088  0.87156983  1
  V  V21  1  0.36970785  0.75460586  0.12548383  1
  V  V22  1  0.75003817  0.24909044  0.00097481  1
  V  V23  1  0.24285673  0.63961778  0.37928176  1
  V  V24  1  0.49018505  0.00312466  0.50255236  1
  V  V25  1  0.25407414  0.13638591  0.87881638  1
  V  V26  1  0.49601554  0.24523895  0.23643125  1
  V  V27  1  0.00146506  0.86966739  0.37303279  1
  V  V28  1  0.87192626  0.25624655  0.61766898  1
  V  V29  1  0.61809738  0.50714158  0.62401503  1
  V  V30  1  0.50008561  0.36960550  0.86944690  1
  V  V31  1  0.86847457  0.87684649  0.49759540  1
  V  V32  1  0.25389339  0.86241975  0.62376380  1
  V  V33  1  0.62939235  0.74427071  0.37391180  1
  V  V34  1  0.37203621  0.85770018  0.50383090  1
  V  V35  1  0.87594508  0.11550685  0.25639738  1
  V  V36  1  0.13352053  0.12609016  0.00850375  1
  V  V37  1  0.87388095  0.12313363  0.74759061  1
  V  V38  1  0.62044945  0.12579075  0.50587801  1
  V  V39  1  0.35416825  0.89382921  0.01452147  1
  V  V40  1  0.74774137  0.75048738  -0.00209281  1
  V  V41  1  0.26261769  0.11254912  0.37706255  1
  V  V42  1  0.74929842  0.74601961  0.49795037  1
  V  V43  1  -0.00069664  0.24733518  0.25426863  1
  V  V44  1  0.49977196  0.49992288  0.00000685  1
  V  V45  1  0.62107183  -0.00205383  0.62487131  1
  V  V46  1  0.87625145  0.24832396  0.12827846  1
  V  V47  1  0.62064178  0.25179585  0.37576060  1
  V  V48  1  0.25052168  0.25637579  0.51109218  1
  V  V49  1  0.00998283  0.74069885  0.24829930  1
  V  V50  1  0.75077598  0.12024877  0.37675943  1
  V  V51  1  0.24878237  0.00394499  0.74771452  1
  V  V52  1  0.49730077  0.86974089  0.87585804  1
  V  V53  1  0.86799775  0.62400889  0.24373561  1
  V  V54  1  0.36296391  0.49670099  0.37332973  1
  V  V55  1  0.74810732  0.50550369  0.74924474  1
  V  V56  1  0.62421416  0.12539619  0.00348395  1
  V  V57  1  0.75012808  0.87371024  0.12547478  1
  V  V58  1  0.62640812  0.49919481  0.12572002  1
  V  V59  1  0.74923647  -0.00714468  0.74279199  1
  V  V60  1  0.37939959  0.00315211  0.87185075  1
  V  V61  1  0.12669866  0.48929269  0.13377983  1
  V  V62  1  0.86886440  0.50552787  0.37944393  1
  V  V63  1  0.00597786  0.11676848  0.13092068  1
  V  V64  1  0.37130435  0.36812961  0.01086477  1
  V  V65  1  0.62343721  0.00340047  0.12575804  1
  V  V66  1  0.49717471  0.74965173  0.24986280  1
  V  V67  1  0.24911034  0.49419835  0.74198217  1
  V  V68  1  0.00022594  0.87850343  0.87288782  1
  V  V69  1  0.12795954  0.49259821  0.62155553  1
  V  V70  1  -0.00137410  0.74545527  0.74265765  1
  V  V71  1  0.62455965  0.87472916  0.25050148  1
  V  V72  1  0.00127083  0.50301303  0.50278849  1
  V  V73  1  0.24797318  0.62483935  0.87413849  1
  V  V74  1  0.87516776  0.87444523  0.00066160  1
  V  V75  1  0.37922302  0.11500040  0.24405136  1
  V  V76  1  0.12600873  0.11971060  0.49940629  1
  V  V77  1  0.87466010  0.00006831  0.87500584  1
  V  V78  1  0.50367037  0.00431423  0.00352326  1
  V  V79  1  0.75022081  -0.00218688  0.25282064  1
  V  V80  1  0.75500956  0.37641115  0.12766225  1
  V  V81  1  0.12802585  0.25059653  0.37563830  1
  V  V82  1  0.88265962  0.49491856  0.87423981  1
  V  V83  1  0.87315056  0.74839452  0.62240769  1
  V  V84  1  0.12168124  0.75013187  0.87361273  1
  Zn  Zn85  1  0.61839680  0.74644157  0.86812069  1
  Zn  Zn86  1  0.49600795  0.62377164  0.12600557  1
  Zn  Zn87  1  0.75065688  0.62693834  0.87214684  1
  Zn  Zn88  1  0.62169055  0.37514482  0.25099733  1
  Zn  Zn89  1  0.62459583  0.62505374  0.49499668  1
  Zn  Zn90  1  0.87937116  0.36654199  -0.01095624  1
  Zn  Zn91  1  0.13689473  0.37146423  0.24483595  1
  Zn  Zn92  1  0.88044119  0.74178199  0.11991440  1
  Zn  Zn93  1  0.49266555  0.37375908  0.37469886  1
  Zn  Zn94  1  0.87843884  0.62351280  0.74417656  1
  Zn  Zn95  1  0.75499606  0.38348500  0.61676469  1
  Zn  Zn96  1  0.17003038  -0.02303286  0.11688335  1
  Zn  Zn97  1  0.11515240  0.26354682  0.88429482  1
  Zn  Zn98  1  -0.00226058  0.26271666  0.76320655  1
  Zn  Zn99  1  0.12557012  -0.00020227  0.62476769  1
  Zn  Zn100  1  0.49281938  0.65406685  0.62107350  1
  Zn  Zn101  1  0.00457228  0.47888020  -0.00089296  1
  Zn  Zn102  1  0.74414427  0.50351674  0.25728101  1
  Zn  Zn103  1  0.12155204  0.37425418  0.75926776  1
  Zn  Zn104  1  0.24996634  0.26136832  0.03568786  1
  Zn  Zn105  1  0.36722030  0.38232005  0.50840602  1
  Zn  Zn106  1  0.75224442  0.25781062  0.49446967  1
  Zn  Zn107  1  0.19002610  0.17641580  0.19774837  1
  Zn  Zn108  1  0.18563618  0.18950085  0.69393430  1
  Zn  Zn109  1  0.18674284  0.68535402  0.18703655  1
  Zn  Zn110  1  0.18509852  0.68169633  0.68699444  1
  Zn  Zn111  1  0.68711369  0.18725201  0.18980079  1
  Zn  Zn112  1  0.68811964  0.18534790  0.68681622  1
  Zn  Zn113  1  0.68826345  0.68783943  0.18601382  1
  Zn  Zn114  1  0.68864898  0.69079096  0.67860756  1
  Zn  Zn115  1  0.31348594  0.30428312  0.31108333  1
  Zn  Zn116  1  0.31312386  0.31387395  0.80847847  1
  Zn  Zn117  1  0.31516213  0.81261392  0.31684250  1
  Zn  Zn118  1  0.31147461  0.81771427  0.81798268  1
  Zn  Zn119  1  0.81115104  0.31338828  0.31294359  1
  Zn  Zn120  1  0.81035368  0.31328961  0.80274559  1
  Zn  Zn121  1  0.81644004  0.81024776  0.31476889  1
  Zn  Zn122  1  0.81099036  0.81287192  0.81161453  1
  Zn  Zn123  1  0.18441399  0.43911324  0.43664045  1
  Zn  Zn124  1  0.18964938  0.43786277  0.94093237  1
  Zn  Zn125  1  0.18751494  0.92950044  0.43570435  1
  Zn  Zn126  1  0.18653497  0.94511645  0.93226417  1
  Zn  Zn127  1  0.68550872  0.43530469  0.44137321  1
  Zn  Zn128  1  0.69236594  0.43668928  0.93661715  1
  Zn  Zn129  1  0.68408182  0.93552748  0.43787385  1
  Zn  Zn130  1  0.68656225  0.93570146  0.93363002  1
  Zn  Zn131  1  0.31999247  0.07040916  0.06270911  1
  Zn  Zn132  1  0.31363177  0.06671354  0.56794072  1
  Zn  Zn133  1  0.30758936  0.56048742  0.06274716  1
  Zn  Zn134  1  0.30922290  0.57206219  0.56211240  1
  Zn  Zn135  1  0.81326487  0.06212834  0.06592505  1
  Zn  Zn136  1  0.81026268  0.06318008  0.56140890  1
  Zn  Zn137  1  0.81457775  0.56140696  0.05958309  1
  Zn  Zn138  1  0.81053941  0.56719562  0.56113802  1
  Zn  Zn139  1  0.43969172  0.43583342  0.19244909  1
  Zn  Zn140  1  0.43500025  0.43944961  0.68614415  1
  Zn  Zn141  1  0.43776938  0.93875462  0.18769425  1
  Zn  Zn142  1  0.43946830  0.93248925  0.68460376  1
  Zn  Zn143  1  0.94735195  0.44102000  0.18666447  1
  Zn  Zn144  1  0.94152555  0.43923870  0.68775817  1
  Zn  Zn145  1  0.93943571  0.93125034  0.18845614  1
  Zn  Zn146  1  0.93734257  0.93601363  0.68090107  1
  Zn  Zn147  1  0.07147514  0.05516584  0.31132621  1
  Zn  Zn148  1  0.05199870  0.09178897  0.82990672  1
  Zn  Zn149  1  0.06367299  0.56057855  0.31400071  1
  Zn  Zn150  1  0.06379907  0.56050725  0.81044556  1
  Zn  Zn151  1  0.56165998  0.06423326  0.31528756  1
  Zn  Zn152  1  0.56594225  0.05917507  0.81568879  1
  Zn  Zn153  1  0.55356843  0.56187876  0.31144324  1
  Zn  Zn154  1  0.56054280  0.56246209  0.81257176  1
  Zn  Zn155  1  0.43799052  0.18917498  0.44044187  1
  Zn  Zn156  1  0.43766815  0.18953280  0.93953647  1
  Zn  Zn157  1  0.43820663  0.68485535  0.43206686  1
  Zn  Zn158  1  0.43315913  0.68860362  0.94124848  1
  Zn  Zn159  1  0.93747666  0.18653002  0.43747748  1
  Zn  Zn160  1  0.93967758  0.18659712  0.94353625  1
  Zn  Zn161  1  0.93856153  0.68730596  0.43304878  1
  Zn  Zn162  1  0.93235572  0.68646410  0.92750450  1
  Zn  Zn163  1  0.05842686  0.30987283  0.06341190  1
  Zn  Zn164  1  0.05830219  0.31389067  0.56457958  1
  Zn  Zn165  1  0.06147870  0.81063258  0.06694506  1
  Zn  Zn166  1  0.06051966  0.81854930  0.56541377  1
  Zn  Zn167  1  0.56190489  0.31480741  0.05934456  1
  Zn  Zn168  1  0.56372966  0.31991759  0.55699449  1
  Zn  Zn169  1  0.55639891  0.81537871  0.06243471  1
  Zn  Zn170  1  0.56436928  0.81489247  0.56276581  1
  O  O171  1  0.13007536  0.11451297  0.12068553  1
  O  O172  1  0.11753068  0.12482617  0.61400292  1
  O  O173  1  0.12239077  0.62466469  0.11077990  1
  O  O174  1  0.12940605  0.61660897  0.60826697  1
  O  O175  1  0.63387683  0.11651728  0.11606487  1
  O  O176  1  0.62980085  0.11616525  0.61443153  1
  O  O177  1  0.62441530  0.61603776  0.11615407  1
  O  O178  1  0.61667882  0.61551570  0.62429728  1
  O  O179  1  0.36939961  0.38397951  0.37590849  1
  O  O180  1  0.38242061  0.38253678  0.87747922  1
  O  O181  1  0.38366562  0.87185205  0.38913485  1
  O  O182  1  0.37847817  0.88549639  0.88540623  1
  O  O183  1  0.88530609  0.38820588  0.36619044  1
  O  O184  1  0.86530950  0.39048770  0.86955448  1
  O  O185  1  0.88734329  0.87141834  0.38504945  1
  O  O186  1  0.88022815  0.88103841  0.88044801  1
  O  O187  1  0.24803303  0.01472965  0.38495767  1
  O  O188  1  0.26052539  0.00980915  0.86784083  1
  O  O189  1  0.25840224  0.50773256  0.37853334  1
  O  O190  1  0.25700586  0.50942012  0.86872846  1
  O  O191  1  0.73983401  0.01198022  0.36866651  1
  O  O192  1  0.75475246  0.00499005  0.86702752  1
  O  O193  1  0.76545661  0.49406952  0.37491613  1
  O  O194  1  0.75390409  0.50277509  0.86349434  1
  O  O195  1  0.22640167  0.50789807  0.11836932  1
  O  O196  1  0.24309531  0.50651448  0.63212721  1
  O  O197  1  0.27713825  0.96780872  0.07835353  1
  O  O198  1  0.24989368  0.99576064  0.63513819  1
  O  O199  1  0.74292661  0.49248288  0.12453222  1
  O  O200  1  0.73901262  0.50403157  0.63031254  1
  O  O201  1  0.74393347  0.99311531  0.13211676  1
  O  O202  1  0.74134016  1.00438630  0.63560297  1
  O  O203  1  0.00478805  0.36457009  0.26038352  1
  O  O204  1  0.00700648  0.37371234  0.74623730  1
  O  O205  1  0.00524188  0.86653314  0.25781815  1
  O  O206  1  0.00623998  0.87161235  0.75338238  1
  O  O207  1  0.50138178  0.35966346  0.25434847  1
  O  O208  1  0.50953706  0.38412182  0.76013012  1
  O  O209  1  0.50318759  0.87059450  0.25846861  1
  O  O210  1  0.50778989  0.88423602  0.76376767  1
  O  O211  1  0.49174497  0.13355093  0.25578290  1
  O  O212  1  0.48811039  0.11915744  0.75630519  1
  O  O213  1  0.48377124  0.63233441  0.24929683  1
  O  O214  1  0.48396187  0.62219211  0.75312133  1
  O  O215  1  0.99423260  0.12447595  0.25184474  1
  O  O216  1  0.99265194  0.11272884  0.73244787  1
  O  O217  1  0.99659697  0.63703964  0.25604703  1
  O  O218  1  1.00061196  0.64197504  0.75459860  1
  O  O219  1  0.37531967  0.26362068  0.00266142  1
  O  O220  1  0.36383791  0.24802911  0.51243607  1
  O  O221  1  0.36471899  0.75827989  0.00822098  1
  O  O222  1  0.37740575  0.75927219  0.50087529  1
  O  O223  1  0.86705482  0.24382112  0.00978879  1
  O  O224  1  0.87340070  0.24308896  0.51342980  1
  O  O225  1  0.86540225  0.75388173  -0.00117546  1
  O  O226  1  0.86959331  0.75462312  0.50144073  1
  O  O227  1  0.13122840  0.24149915  0.49435404  1
  O  O228  1  0.13385925  0.23790250  1.00717867  1
  O  O229  1  0.11531027  0.73717506  0.50359836  1
  O  O230  1  0.12834906  0.74021633  0.99534404  1
  O  O231  1  0.62399507  0.24109691  0.49349570  1
  O  O232  1  0.63084474  0.24581181  0.99318377  1
  O  O233  1  0.63260664  0.75309065  0.49098998  1
  O  O234  1  0.63057962  0.74249895  1.00291343  1
  O  O235  1  0.50633916  0.25039652  0.13723882  1
  O  O236  1  0.49208205  0.24982926  0.61835987  1
  O  O237  1  0.48868193  0.74700888  0.13033366  1
  O  O238  1  0.50179919  0.76275383  0.63428702  1
  O  O239  1  0.99706896  0.23690772  0.13548978  1
  O  O240  1  0.98979595  0.23739363  0.62017315  1
  O  O241  1  0.99416296  0.75536448  0.14325330  1
  O  O242  1  0.99128489  0.75763339  0.63466080  1
  O  O243  1  0.00755796  0.25580973  0.37607760  1
  O  O244  1  0.01475285  0.20489052  0.86403059  1
  O  O245  1  -0.00251685  0.75885626  0.36203146  1
  O  O246  1  0.00225146  0.75954556  0.86485417  1
  O  O247  1  0.50981390  0.25075045  0.37353499  1
  O  O248  1  0.50726948  0.26265714  0.87910555  1
  O  O249  1  0.50523886  0.76073204  0.37028898  1
  O  O250  1  0.49884852  0.76529057  0.88639367  1
  O  O251  1  0.24400247  0.13263654  0.49436592  1
  O  O252  1  0.25121447  0.13797759  0.99883986  1
  O  O253  1  0.23768187  0.62577895  0.48902666  1
  O  O254  1  0.24350317  0.63371191  0.98932079  1
  O  O255  1  0.74022210  0.12592656  0.49103123  1
  O  O256  1  0.74504669  0.12905350  0.99472542  1
  O  O257  1  0.74533349  0.64020536  0.49821426  1
  O  O258  1  0.74092376  0.63329902  1.00047025  1
  O  O259  1  0.26748354  0.37460189  -0.00176465  1
  O  O260  1  0.24744531  0.35889618  0.49556016  1
  O  O261  1  0.24620707  0.85624750  -0.01699837  1
  O  O262  1  0.26455295  0.87926813  0.50608539  1
  O  O263  1  0.75513471  0.36837390  0.01003179  1
  O  O264  1  0.74621440  0.36988875  0.50624029  1
  O  O265  1  0.75307723  0.86869145  0.00401640  1
  O  O266  1  0.76059218  0.86727575  0.49055482  1
  O  O267  1  0.12135540  0.49451091  0.23916620  1
  O  O268  1  0.13359405  0.50627033  0.73750578  1
  O  O269  1  0.13073460  0.98645689  0.24027510  1
  O  O270  1  0.13904725  0.99777337  0.75292947  1
  O  O271  1  0.62405394  0.50073620  0.24005819  1
  O  O272  1  0.62866310  0.49470854  0.74359126  1
  O  O273  1  0.62863767  0.99453420  0.24566098  1
  O  O274  1  0.63067870  0.99509001  0.74337215  1
  O  O275  1  0.38616636  0.01490742  0.25310443  1
  O  O276  1  0.36822142  0.00740923  0.75152804  1
  O  O277  1  0.37913158  0.51019321  0.25836442  1
  O  O278  1  0.36825152  0.50705481  0.75857174  1
  O  O279  1  0.86894501  0.00922046  0.24683092  1
  O  O280  1  0.86709351  0.00067473  0.75227888  1
  O  O281  1  0.87951610  0.51130355  0.25820107  1
  O  O282  1  0.86505983  0.50182009  0.75284039  1
  O  O283  1  0.12224865  0.36429532  0.36902710  1
  O  O284  1  0.12859734  0.37451770  0.87597955  1
  O  O285  1  0.11368978  0.87902556  0.36245473  1
  O  O286  1  0.11982337  0.87059786  0.86796707  1
  O  O287  1  0.62402647  0.36310565  0.37216599  1
  O  O288  1  0.61904741  0.37257045  0.86754077  1
  O  O289  1  0.61515310  0.86600174  0.36974930  1
  O  O290  1  0.61475470  0.87350036  0.86800539  1
  O  O291  1  0.36601851  0.13058144  0.14572919  1
  O  O292  1  0.37138923  0.14124985  0.63368830  1
  O  O293  1  0.37238519  0.63161074  0.13179750  1
  O  O294  1  0.37372705  0.62544013  0.64148885  1
  O  O295  1  0.88067448  0.12835782  0.13729645  1
  O  O296  1  0.88133322  0.12954293  0.62762797  1
  O  O297  1  0.87626350  0.62083878  0.13868394  1
  O  O298  1  0.87399823  0.64183643  0.62463016  1
  O  O299  1  0.25082654  0.26722429  0.15885833  1
  O  O300  1  0.24522559  0.24695548  0.61148700  1
  O  O301  1  0.25744270  0.74331390  0.11422683  1
  O  O302  1  0.24674862  0.76362133  0.63229638  1
  O  O303  1  0.75426400  0.25728982  0.12247167  1
  O  O304  1  0.76501695  0.24667703  0.62512270  1
  O  O305  1  0.75188550  0.75528094  0.11378328  1
  O  O306  1  0.75863786  0.75391157  0.61132650  1
  O  O307  1  0.24291804  0.24005175  0.38641948  1
  O  O308  1  0.25197421  0.23816633  0.87088133  1
  O  O309  1  0.25113979  0.73827089  0.37893306  1
  O  O310  1  0.24288524  0.74040840  0.87964303  1
  O  O311  1  0.73990295  0.23894258  0.37204960  1
  O  O312  1  0.74599385  0.24549858  0.87920481  1
  O  O313  1  0.73825189  0.75555275  0.38051231  1
  O  O314  1  0.74561431  0.75013577  0.88770818  1
  O  O315  1  0.01379354  0.11860457  0.01206770  1
  O  O316  1  0.00636698  0.11810501  0.50306770  1
  O  O317  1  0.01123835  0.63047788  -0.00720220  1
  O  O318  1  0.01537337  0.61551311  0.48583033  1
  O  O319  1  0.50936379  0.11414177  -0.00863540  1
  O  O320  1  0.51237486  0.11576660  0.49181090  1
  O  O321  1  0.50712209  0.61948522  0.00175277  1
  O  O322  1  0.49778167  0.61581995  0.50340016  1
  O  O323  1  0.49285340  0.38982770  0.49603679  1
  O  O324  1  0.49206020  0.38058395  0.98913927  1
  O  O325  1  0.48814058  0.88236591  0.49521422  1
  O  O326  1  0.49153469  0.88746752  0.99522108  1
  O  O327  1  1.00724185  0.38509052  0.48574156  1
  O  O328  1  0.99168210  0.36552582  0.99417553  1
  O  O329  1  0.99564252  0.88175425  0.49155189  1
  O  O330  1  0.99604998  0.87767338  0.99388742  1
  O  O331  1  0.48606071  0.50064809  0.38345322  1
  O  O332  1  0.49215767  0.49187878  0.87966066  1
  O  O333  1  0.50938143  0.98724158  0.38625457  1
  O  O334  1  0.49909317  0.99094866  0.88402684  1
  O  O335  1  0.99416024  0.49249514  0.38053900  1
  O  O336  1  0.98490243  0.50315267  0.87130826  1
  O  O337  1  1.00381519  0.99321235  0.38480750  1
  O  O338  1  0.99518764  0.99866597  0.88347825  1
  O  O339  1  -0.00363142  0.00409304  0.11919785  1
  O  O340  1  0.00253179  0.00715394  0.61056885  1
  O  O341  1  0.01638723  0.49942335  0.11600821  1
  O  O342  1  0.00602377  0.49983604  0.60944542  1
  O  O343  1  0.50768328  -0.00561276  0.11260641  1
  O  O344  1  0.51024323  -0.00197392  0.61606029  1
  O  O345  1  0.51140424  0.49978956  0.11933575  1
  O  O346  1  0.50434770  0.50143550  0.61653592  1
  O  O347  1  0.24939388  0.33317656  0.21582646  1
  O  O348  1  0.24920904  0.39200841  0.75370046  1
  O  O349  1  0.23503824  0.86626356  0.25903835  1
  O  O350  1  0.24851355  0.88433719  0.74488838  1
  O  O351  1  0.74518818  0.37795173  0.23930297  1
  O  O352  1  0.73889281  0.38721646  0.74214490  1
  O  O353  1  0.74568655  0.87781378  0.24677556  1
  O  O354  1  0.73872712  0.88744893  0.75866741  1
  O  O355  1  0.26465156  0.12651407  0.26902971  1
  O  O356  1  0.25816615  0.11886908  0.75758140  1
  O  O357  1  0.25639426  0.63005569  0.26225379  1
  O  O358  1  0.25691807  0.61804313  0.75886938  1
  O  O359  1  0.75701428  0.11922247  0.25698886  1
  O  O360  1  0.75361111  0.11444237  0.75569088  1
  O  O361  1  0.76301728  0.62341187  0.24884758  1
  O  O362  1  0.74648772  0.61544444  0.74868407  1
  O  O363  1  0.36564893  0.12586006  0.37654681  1
  O  O364  1  0.37102454  0.12333428  0.86771884  1
  O  O365  1  0.36189172  0.61983067  0.36927025  1
  O  O366  1  0.36744788  0.61713505  0.87169283  1
  O  O367  1  0.86448628  0.12995733  0.36717112  1
  O  O368  1  0.86870590  0.11765675  0.86917183  1
  O  O369  1  0.87991361  0.61172032  0.36372226  1
  O  O370  1  0.86878586  0.61266032  0.86607229  1
  O  O371  1  0.12526035  0.38463902  0.12345509  1
  O  O372  1  0.12446131  0.39021462  0.62085338  1
  O  O373  1  0.12528118  0.87015934  0.14094897  1
  O  O374  1  0.13515951  0.88050547  0.62948332  1
  O  O375  1  0.63446293  0.38449374  0.12272705  1
  O  O376  1  0.62045498  0.38775884  0.63344752  1
  O  O377  1  0.62961118  0.88065284  0.13127445  1
  O  O378  1  0.62431835  0.88929655  0.63432289  1
  O  O379  1  0.11701479  0.24071385  0.26518259  1
  O  O380  1  0.12053419  0.25320056  0.75693821  1
  O  O381  1  0.11374730  0.75409928  0.24815849  1
  O  O382  1  0.11818960  0.75575223  0.75306371  1
  O  O383  1  0.61278730  0.24497836  0.25875346  1
  O  O384  1  0.63332469  0.26348278  0.75403912  1
  O  O385  1  0.61935208  0.75476090  0.25398678  1
  O  O386  1  0.63531068  0.76474281  0.75079601  1
  O  O387  1  0.39314312  0.23937168  0.25883382  1
  O  O388  1  0.37470155  0.24517529  0.73759215  1
  O  O389  1  0.37619647  0.74285689  0.24337496  1
  O  O390  1  0.36843422  0.73544600  0.76241619  1
  O  O391  1  0.88022155  0.23818565  0.24836813  1
  O  O392  1  0.87763523  0.24018721  0.73939952  1
  O  O393  1  0.88114880  0.73490935  0.25132832  1
  O  O394  1  0.88003672  0.75370663  0.74048972  1
  O  O395  1  0.37677789  0.50212839  0.49390764  1
  O  O396  1  0.37739833  0.49512808  0.98925285  1
  O  O397  1  0.38784797  1.00265375  0.50586556  1
  O  O398  1  0.39011279  1.00648482  0.99004909  1
  O  O399  1  0.88402895  0.51150951  0.48633667  1
  O  O400  1  0.87505948  0.49969827  0.98279451  1
  O  O401  1  0.88271447  0.99203814  0.50379229  1
  O  O402  1  0.88019561  0.99510796  0.99501088  1
  O  O403  1  0.12246625  0.00524860  0.00710682  1
  O  O404  1  0.11779413  0.00874736  0.49869521  1
  O  O405  1  0.12213321  0.51548045  -0.00023184  1
  O  O406  1  0.11920282  0.50686866  0.50395245  1
  O  O407  1  0.62120860  0.00431114  0.00426248  1
  O  O408  1  0.61910647  0.00461123  0.50802390  1
  O  O409  1  0.62242271  0.50702206  0.00559584  1
  O  O410  1  0.61420602  0.50351274  0.50626866  1
  O  O411  1  0.38276334  0.38479182  0.10820840  1
  O  O412  1  0.37630545  0.35890144  0.62639132  1
  O  O413  1  0.37890867  0.86102562  0.12540238  1
  O  O414  1  0.36864194  0.87825684  0.61166052  1
  O  O415  1  0.86707340  0.36828740  0.13043862  1
  O  O416  1  0.87660031  0.35861614  0.62865842  1
  O  O417  1  0.86699349  0.87168225  0.11781776  1
  O  O418  1  0.88026964  0.86476050  0.60822108  1
  O  O419  1  0.13292444  0.13058550  0.38301650  1
  O  O420  1  0.14361014  0.11614103  0.89623913  1
  O  O421  1  0.13740868  0.62084800  0.38210347  1
  O  O422  1  0.13220543  0.62892458  0.88113379  1
  O  O423  1  0.63212034  0.13213536  0.38304841  1
  O  O424  1  0.63169816  0.13060814  0.88044652  1
  O  O425  1  0.61400968  0.64038733  0.37345450  1
  O  O426  1  0.62456931  0.62679644  0.88683173  1
