# generated using pymatgen
data_V85Zn86O256
_symmetry_space_group_name_H-M   'P 1'
_cell_length_a   16.99968639
_cell_length_b   16.97647434
_cell_length_c   16.98039084
_cell_angle_alpha   89.85975615
_cell_angle_beta   89.97996916
_cell_angle_gamma   90.38099671
_symmetry_Int_Tables_number   1
_chemical_formula_structural   V85Zn86O256
_chemical_formula_sum   'V85 Zn86 O256'
_cell_volume   4900.32812715
_cell_formula_units_Z   1
loop_
 _symmetry_equiv_pos_site_id
 _symmetry_equiv_pos_as_xyz
  1  'x, y, z'
loop_
 _atom_site_type_symbol
 _atom_site_label
 _atom_site_symmetry_multiplicity
 _atom_site_fract_x
 _atom_site_fract_y
 _atom_site_fract_z
 _atom_site_occupancy
  V  V0  1  0.50185269  0.49691625  0.50560092  1
  V  V1  1  0.87108017  0.37543177  0.49916062  1
  V  V2  1  0.74065661  0.37932098  0.62637385  1
  V  V3  1  0.74170574  0.12327568  0.38023321  1
  V  V4  1  0.75964825  0.87159725  0.62227942  1
  V  V5  1  0.87669903  0.12396298  0.74962609  1
  V  V6  1  0.74117350  0.24524557  0.50233317  1
  V  V7  1  0.12724468  0.62483250  -0.00484514  1
  V  V8  1  0.12623263  0.75396127  0.86889685  1
  V  V9  1  -0.00069095  0.74907882  0.25060914  1
  V  V10  1  0.24906902  0.62352646  0.37778167  1
  V  V11  1  0.87425508  0.24729074  0.12588344  1
  V  V12  1  0.24842285  0.74710751  -0.00357550  1
  V  V13  1  0.38035561  0.12729944  0.23638334  1
  V  V14  1  0.87669447  0.74821610  0.12615288  1
  V  V15  1  0.50071858  0.24334228  0.22070965  1
  V  V16  1  0.61416592  -0.00489453  0.11210316  1
  V  V17  1  0.74675266  0.49756786  0.25312695  1
  V  V18  1  0.74155271  0.50040156  0.74580470  1
  V  V19  1  0.75227304  0.74697923  0.00006210  1
  V  V20  1  0.37955091  0.49458389  0.37892307  1
  V  V21  1  0.61755401  0.37163203  0.25574640  1
  V  V22  1  0.37309401  -0.02497983  0.87901469  1
  V  V23  1  0.49636956  0.75016227  0.75125208  1
  V  V24  1  0.12686131  0.62623402  0.49999567  1
  V  V25  1  0.50190409  0.12542405  0.62351618  1
  V  V26  1  0.12573744  0.49502519  0.12850199  1
  V  V27  1  0.01030787  0.12894659  0.61916318  1
  V  V28  1  -0.00085377  0.37662980  0.87861922  1
  V  V29  1  0.37736353  0.12931704  0.75347355  1
  V  V30  1  0.75100984  0.62402516  0.87381775  1
  V  V31  1  -0.00065428  0.62435740  0.12645415  1
  V  V32  1  0.87232338  0.25038838  0.62563197  1
  V  V33  1  0.62508649  0.62219120  0.50633176  1
  V  V34  1  0.00712742  0.00720278  0.49767670  1
  V  V35  1  0.37730476  0.62436389  0.25276984  1
  V  V36  1  0.74930435  0.12696750  0.88179448  1
  V  V37  1  0.87177418  0.49813247  0.37441616  1
  V  V38  1  0.74944178  0.62447889  0.37723745  1
  V  V39  1  0.62265823  0.00253611  0.62067440  1
  V  V40  1  0.61252399  0.24637041  0.37611802  1
  V  V41  1  0.24598988  0.49310895  0.25227844  1
  V  V42  1  0.24982886  0.00089117  0.24405695  1
  V  V43  1  0.62241011  0.49825578  0.12529264  1
  V  V44  1  0.12595622  0.37757133  0.75379404  1
  V  V45  1  0.87210230  -0.00365138  0.38216636  1
  V  V46  1  0.37413495  0.76199104  0.61716964  1
  V  V47  1  -0.00433988  0.87534633  0.38180260  1
  V  V48  1  -0.00633751  0.62787965  0.62710516  1
  V  V49  1  0.49611440  0.37781996  0.87155386  1
  V  V50  1  0.25016836  0.12954629  0.86737562  1
  V  V51  1  0.49977932  0.87438206  0.37751819  1
  V  V52  1  0.12648281  0.25470340  0.88391205  1
  V  V53  1  0.73933254  -0.00465839  0.25116570  1
  V  V54  1  0.49875450  0.62129114  0.12161795  1
  V  V55  1  0.00157052  0.25256534  0.75221586  1
  V  V56  1  -0.00124608  0.49839851  0.00098162  1
  V  V57  1  0.76134745  0.75285691  0.50353747  1
  V  V58  1  0.87947988  0.87498413  -0.00111240  1
  V  V59  1  0.37288016  0.75174235  0.12654087  1
  V  V60  1  0.24229439  -0.01064038  0.74699124  1
  V  V61  1  0.12328759  0.87890166  0.24514510  1
  V  V62  1  0.87293555  0.37351805  -0.00000149  1
  V  V63  1  0.74694322  0.87281199  0.13091487  1
  V  V64  1  0.24303087  0.13763878  0.37826265  1
  V  V65  1  0.25058768  0.87385129  0.12285559  1
  V  V66  1  0.62569488  0.75573366  0.37154845  1
  V  V67  1  0.87413840  0.12713850  0.25208151  1
  V  V68  1  0.37746570  0.52511814  0.87933407  1
  V  V69  1  0.37396772  0.37076318  0.50235910  1
  V  V70  1  -0.00087244  0.49971690  0.50083439  1
  V  V71  1  0.00264618  0.11604017  0.12616473  1
  V  V72  1  0.88167301  -0.00071581  0.87574268  1
  V  V73  1  0.12654348  0.11589859  0.00348351  1
  V  V74  1  0.37923340  0.25246074  0.63261369  1
  V  V75  1  0.26081903  0.37250800  0.12038571  1
  V  V76  1  0.00883258  0.37235027  0.36742343  1
  V  V77  1  0.12508612  0.74952079  0.37618312  1
  V  V78  1  0.62209310  0.87748886  0.75026403  1
  V  V79  1  0.12837930  0.50147546  0.62879144  1
  V  V80  1  0.62339729  0.62102140  -0.00038953  1
  V  V81  1  0.49309669  0.62490250  0.62621718  1
  V  V82  1  0.24836531  0.36679417  0.62657739  1
  V  V83  1  0.37245659  -0.00451966  0.38208963  1
  V  V84  1  -0.00409977  0.75910555  0.74489336  1
  Zn  Zn85  1  0.62422680  0.75826511  0.87802132  1
  Zn  Zn86  1  0.49709786  -0.00460501  0.50488857  1
  Zn  Zn87  1  0.61257241  0.25139150  0.87422183  1
  Zn  Zn88  1  0.00897890  0.87887450  0.86839115  1
  Zn  Zn89  1  0.87138987  0.62740152  0.74571925  1
  Zn  Zn90  1  0.61425547  0.36837793  0.74670957  1
  Zn  Zn91  1  0.87436674  0.49937971  0.87190697  1
  Zn  Zn92  1  0.26264499  0.24402429  0.00714559  1
  Zn  Zn93  1  0.25353978  0.52034409  0.75785702  1
  Zn  Zn94  1  0.74965618  -0.00163567  0.74901172  1
  Zn  Zn95  1  0.74750494  0.37052574  0.12509290  1
  Zn  Zn96  1  0.25742836  0.76373814  0.49280905  1
  Zn  Zn97  1  0.52973006  0.91410666  0.93102606  1
  Zn  Zn98  1  0.12200780  -0.00373802  0.63117956  1
  Zn  Zn99  1  0.00819253  -0.00540468  0.00525519  1
  Zn  Zn100  1  0.74436359  0.24816431  0.00156864  1
  Zn  Zn101  1  0.24196288  0.87855438  0.61574686  1
  Zn  Zn102  1  0.38486242  0.38012536  -0.00068491  1
  Zn  Zn103  1  0.58642853  0.14417892  0.02326466  1
  Zn  Zn104  1  0.50745984  0.75513367  0.25128483  1
  Zn  Zn105  1  0.03060555  0.23586243  0.27498284  1
  Zn  Zn106  1  0.87385920  0.62246547  0.25048267  1
  Zn  Zn107  1  0.19264391  0.18602215  0.19427028  1
  Zn  Zn108  1  0.18685725  0.19547591  0.54769239  1
  Zn  Zn109  1  0.18639287  0.68406577  0.18964868  1
  Zn  Zn110  1  0.18331200  0.69661025  0.68322192  1
  Zn  Zn111  1  0.68522129  0.18045216  0.18781234  1
  Zn  Zn112  1  0.68282421  0.18741418  0.69531061  1
  Zn  Zn113  1  0.68958810  0.68452619  0.18930058  1
  Zn  Zn114  1  0.68435829  0.69038834  0.68852546  1
  Zn  Zn115  1  0.32236246  0.31192384  0.30661186  1
  Zn  Zn116  1  0.31393878  0.32006527  0.81420938  1
  Zn  Zn117  1  0.31174878  0.81368988  0.31228168  1
  Zn  Zn118  1  0.31564320  0.68834368  0.81145406  1
  Zn  Zn119  1  0.80825365  0.31196850  0.31363017  1
  Zn  Zn120  1  0.80907950  0.31266352  0.81011911  1
  Zn  Zn121  1  0.81266239  0.80953810  0.31420311  1
  Zn  Zn122  1  0.81240729  0.81090754  0.80995926  1
  Zn  Zn123  1  0.18668246  0.42783587  0.44339128  1
  Zn  Zn124  1  0.19439428  0.44479115  0.93848782  1
  Zn  Zn125  1  0.18639981  0.93867412  0.43652942  1
  Zn  Zn126  1  0.19516626  0.93444437  0.93466636  1
  Zn  Zn127  1  0.68272042  0.43366567  0.43830781  1
  Zn  Zn128  1  0.68512036  0.43854731  0.93509769  1
  Zn  Zn129  1  0.68377856  0.93502637  0.44252283  1
  Zn  Zn130  1  0.69905418  0.93940893  0.93691491  1
  Zn  Zn131  1  0.31652198  0.05873148  0.05408997  1
  Zn  Zn132  1  0.31262818  0.06451802  0.56400141  1
  Zn  Zn133  1  0.31318669  0.56123905  0.05939848  1
  Zn  Zn134  1  0.31268180  0.56525211  0.56535500  1
  Zn  Zn135  1  0.81213366  0.05763192  0.06455975  1
  Zn  Zn136  1  0.81295173  0.06049473  0.56439495  1
  Zn  Zn137  1  0.81091395  0.55945841  0.06366008  1
  Zn  Zn138  1  0.81081537  0.56148360  0.56111831  1
  Zn  Zn139  1  0.43972603  0.43719741  0.19225037  1
  Zn  Zn140  1  0.43021575  0.44858503  0.69660391  1
  Zn  Zn141  1  0.43563832  0.93512947  0.19600988  1
  Zn  Zn142  1  0.43714597  0.94072554  0.69954204  1
  Zn  Zn143  1  0.93549544  0.43601032  0.18759719  1
  Zn  Zn144  1  0.93196123  0.44022022  0.68990561  1
  Zn  Zn145  1  0.93124189  0.93673209  0.19352545  1
  Zn  Zn146  1  0.94045119  0.94132380  0.68351910  1
  Zn  Zn147  1  0.06412683  0.05965159  0.31243105  1
  Zn  Zn148  1  0.06442264  0.06792661  0.81297534  1
  Zn  Zn149  1  0.06110121  0.56002256  0.31319854  1
  Zn  Zn150  1  0.06182077  0.56650468  0.81162041  1
  Zn  Zn151  1  0.55723472  0.06136199  0.30866612  1
  Zn  Zn152  1  0.53977969  0.08123382  0.84375490  1
  Zn  Zn153  1  0.56281432  0.56428105  0.31704598  1
  Zn  Zn154  1  0.55915210  0.56118538  0.81150038  1
  Zn  Zn155  1  0.42671983  0.18046901  0.44067092  1
  Zn  Zn156  1  0.43264486  0.19837896  0.94007026  1
  Zn  Zn157  1  0.43975331  0.68690155  0.43964584  1
  Zn  Zn158  1  0.44939588  0.72416811  0.95055954  1
  Zn  Zn159  1  0.93203477  0.19000996  0.43977140  1
  Zn  Zn160  1  0.93938495  0.18816147  0.94348924  1
  Zn  Zn161  1  0.93856562  0.68470261  0.43785679  1
  Zn  Zn162  1  0.94060276  0.68804349  0.93485327  1
  Zn  Zn163  1  0.08608339  0.28673365  0.10171102  1
  Zn  Zn164  1  0.05801746  0.31533450  0.56035117  1
  Zn  Zn165  1  0.06446125  0.81099469  0.06207630  1
  Zn  Zn166  1  0.06593103  0.81598084  0.56238549  1
  Zn  Zn167  1  0.56415321  0.32319960  0.04825538  1
  Zn  Zn168  1  0.55785993  0.31041567  0.56295537  1
  Zn  Zn169  1  0.56531983  0.80628943  0.07090437  1
  Zn  Zn170  1  0.56577881  0.81323825  0.55991591  1
  O  O171  1  0.11618156  0.12903507  0.11355633  1
  O  O172  1  0.11133290  0.12807939  0.61884195  1
  O  O173  1  0.11837954  0.61713424  0.11882599  1
  O  O174  1  0.11543925  0.61868465  0.61946324  1
  O  O175  1  0.63129846  0.10220459  0.11814276  1
  O  O176  1  0.61317465  0.11568468  0.63741454  1
  O  O177  1  0.61834102  0.61854307  0.12218694  1
  O  O178  1  0.61732088  0.63265325  0.61037743  1
  O  O179  1  0.36736255  0.38605037  0.38646096  1
  O  O180  1  0.38487680  0.38774755  0.87295866  1
  O  O181  1  0.37793325  0.88927813  0.36999157  1
  O  O182  1  0.35936209  0.87995046  0.87365677  1
  O  O183  1  0.87461089  0.38060093  0.38136456  1
  O  O184  1  0.87955875  0.37403960  0.88430188  1
  O  O185  1  0.88519491  0.88545264  0.36526239  1
  O  O186  1  0.87463115  0.88184388  0.88358278  1
  O  O187  1  0.25948778  0.00404946  0.36367525  1
  O  O188  1  0.25601665  0.00658567  0.86506645  1
  O  O189  1  0.25640984  0.50320726  0.37011424  1
  O  O190  1  0.26555030  0.50293042  0.87425075  1
  O  O191  1  0.75252428  0.00272244  0.37191261  1
  O  O192  1  0.76711334  0.00739137  0.87087610  1
  O  O193  1  0.75153349  0.50355961  0.37278512  1
  O  O194  1  0.75109103  0.50909108  0.86678687  1
  O  O195  1  0.24418363  0.49678743  0.13387730  1
  O  O196  1  0.23782943  0.49688599  0.62800515  1
  O  O197  1  0.25910790  0.98796318  0.13542336  1
  O  O198  1  0.24812420  1.00672152  0.63813175  1
  O  O199  1  0.73683049  0.50112831  0.13468503  1
  O  O200  1  0.75433036  0.48957245  0.63058231  1
  O  O201  1  0.74397313  0.98966615  0.13169479  1
  O  O202  1  0.74288850  0.99034166  0.62564281  1
  O  O203  1  -0.00752697  0.37596906  0.26650926  1
  O  O204  1  0.00336402  0.37234572  0.75796214  1
  O  O205  1  0.00619267  0.87174728  0.25637726  1
  O  O206  1  -0.00424096  0.86297553  0.74772985  1
  O  O207  1  0.51024684  0.36046356  0.24220357  1
  O  O208  1  0.50252745  0.39281250  0.76193354  1
  O  O209  1  0.49593882  0.87055690  0.26916148  1
  O  O210  1  0.50927773  0.85941877  0.74317003  1
  O  O211  1  0.49289525  0.13286684  0.24835861  1
  O  O212  1  0.48277427  0.12034257  0.74517418  1
  O  O213  1  0.48957373  0.62404094  0.24510442  1
  O  O214  1  0.51763131  0.63861057  0.73298165  1
  O  O215  1  0.99065042  0.12418567  0.24736658  1
  O  O216  1  0.99354979  0.13115274  0.74196878  1
  O  O217  1  0.99827877  0.63079538  0.24493661  1
  O  O218  1  0.99758405  0.63280531  0.74148108  1
  O  O219  1  0.37168148  0.26455022  0.00073157  1
  O  O220  1  0.37992540  0.26374353  0.50984183  1
  O  O221  1  0.35900529  0.73801223  0.01982448  1
  O  O222  1  0.37707167  0.74887470  0.51274683  1
  O  O223  1  0.87147309  0.25689805  0.00881435  1
  O  O224  1  0.86021955  0.25549277  0.50510781  1
  O  O225  1  0.87246379  0.75704078  0.00525135  1
  O  O226  1  0.86057857  0.74612254  0.49495817  1
  O  O227  1  0.13430699  0.27496273  0.49482201  1
  O  O228  1  0.12735982  0.24283210  0.99431061  1
  O  O229  1  0.12400436  0.74243634  0.49184586  1
  O  O230  1  0.12949392  0.74212712  0.99570770  1
  O  O231  1  0.63525896  0.25554620  0.49255650  1
  O  O232  1  0.62955701  0.24782776  0.98990444  1
  O  O233  1  0.63385391  0.74141535  0.49102860  1
  O  O234  1  0.63616793  0.73547673  1.00253909  1
  O  O235  1  0.51417372  0.24313138  0.12216982  1
  O  O236  1  0.48887555  0.24198395  0.62493394  1
  O  O237  1  0.49069314  0.73866125  0.13541598  1
  O  O238  1  0.49310843  0.74539835  0.62696111  1
  O  O239  1  0.98175524  0.23296260  0.12251386  1
  O  O240  1  0.99212927  0.24620675  0.63005759  1
  O  O241  1  0.99577227  0.74490780  0.13090069  1
  O  O242  1  1.00765613  0.74241653  0.63732141  1
  O  O243  1  -0.00788417  0.26543244  0.37749658  1
  O  O244  1  0.00685365  0.25603721  0.87471852  1
  O  O245  1  0.00279191  0.75789988  0.37113147  1
  O  O246  1  0.00722531  0.75252913  0.86424302  1
  O  O247  1  0.51337616  0.23706455  0.38403200  1
  O  O248  1  0.49349246  0.27439228  0.86773861  1
  O  O249  1  0.50800512  0.75464756  0.37580734  1
  O  O250  1  0.50707408  0.73769874  0.85266608  1
  O  O251  1  0.25316977  0.12528047  0.48473703  1
  O  O252  1  0.24302249  0.12537317  0.99009503  1
  O  O253  1  0.24305380  0.62626726  0.49397335  1
  O  O254  1  0.23501661  0.63473571  1.01276510  1
  O  O255  1  0.75512055  0.13338090  0.49155321  1
  O  O256  1  0.75512504  0.11931843  0.98589837  1
  O  O257  1  0.74258849  0.63087859  0.49778583  1
  O  O258  1  0.74382113  0.62700654  0.99437319  1
  O  O259  1  0.25027468  0.37862560  0.01579514  1
  O  O260  1  0.26472475  0.38815102  0.51563540  1
  O  O261  1  0.24193492  0.86317822  0.01576970  1
  O  O262  1  0.25058375  0.87659593  0.50084650  1
  O  O263  1  0.76122457  0.37537187  0.00196782  1
  O  O264  1  0.75173088  0.36767997  0.50680328  1
  O  O265  1  0.76152527  0.86882007  0.00907348  1
  O  O266  1  0.74560272  0.86747719  0.51355644  1
  O  O267  1  0.13611812  0.50821937  0.24144562  1
  O  O268  1  0.12340503  0.49562566  0.74289755  1
  O  O269  1  0.13637869  0.98910404  0.25436535  1
  O  O270  1  0.13836061  1.00733472  0.75313706  1
  O  O271  1  0.62533550  0.49065418  0.24833011  1
  O  O272  1  0.63968424  0.50088723  0.75124329  1
  O  O273  1  0.63648997  1.00229730  0.24221360  1
  O  O274  1  0.62804416  0.98644531  0.73880168  1
  O  O275  1  0.36761864  0.00728757  0.25763472  1
  O  O276  1  0.36148613  0.00889386  0.75903102  1
  O  O277  1  0.37020185  0.50618940  0.26016307  1
  O  O278  1  0.37088381  0.51357245  0.76737637  1
  O  O279  1  0.86442556  0.00936043  0.25993588  1
  O  O280  1  0.87877617  0.00829899  0.75778730  1
  O  O281  1  0.86435585  0.49930025  0.25543841  1
  O  O282  1  0.86258106  0.50677385  0.75277690  1
  O  O283  1  0.10746708  0.38569880  0.37416826  1
  O  O284  1  0.12067954  0.37236725  0.87631892  1
  O  O285  1  0.11461803  0.87087119  0.36426866  1
  O  O286  1  0.12395856  0.85943063  0.88381443  1
  O  O287  1  0.62703226  0.36180291  0.36399519  1
  O  O288  1  0.61043952  0.38259464  0.87227083  1
  O  O289  1  0.61872960  0.86461347  0.37886585  1
  O  O290  1  0.62851247  0.87803132  0.86622669  1
  O  O291  1  0.36872313  0.11791298  0.13740683  1
  O  O292  1  0.37852802  0.13379281  0.63388235  1
  O  O293  1  0.38089276  0.62697744  0.13442586  1
  O  O294  1  0.38705208  0.63551723  0.62143497  1
  O  O295  1  0.87806490  0.12591757  0.13434744  1
  O  O296  1  0.88047568  0.12972784  0.63360897  1
  O  O297  1  0.88096102  0.63037268  0.12550965  1
  O  O298  1  0.89059316  0.62062965  0.62149327  1
  O  O299  1  0.24919580  0.27019103  0.12764587  1
  O  O300  1  0.26135373  0.26128671  0.61980266  1
  O  O301  1  0.25370721  0.75498208  0.12378086  1
  O  O302  1  0.26646702  0.75318219  0.62320317  1
  O  O303  1  0.76027408  0.24548784  0.12342179  1
  O  O304  1  0.75276945  0.25412198  0.61839035  1
  O  O305  1  0.75578642  0.75477178  0.12227139  1
  O  O306  1  0.74554572  0.76302967  0.61854938  1
  O  O307  1  0.25923204  0.23541249  0.36462081  1
  O  O308  1  0.23951872  0.24641030  0.87485651  1
  O  O309  1  0.24355334  0.74172907  0.37326507  1
  O  O310  1  0.24325332  0.74761140  0.89095153  1
  O  O311  1  0.74105473  0.24069575  0.38220353  1
  O  O312  1  0.76171007  0.23182572  0.87846794  1
  O  O313  1  0.74425293  0.74662589  0.38294535  1
  O  O314  1  0.74723807  0.74122711  0.88069834  1
  O  O315  1  0.00732641  0.11954217  0.00816359  1
  O  O316  1  -0.01093962  0.11964248  0.50852154  1
  O  O317  1  0.00684384  0.61988414  0.00689983  1
  O  O318  1  0.00648283  0.61963880  0.50628758  1
  O  O319  1  0.51175483  0.12217252  -0.05246708  1
  O  O320  1  0.48910668  0.11922943  0.51994575  1
  O  O321  1  0.51090028  0.63597717  0.01492307  1
  O  O322  1  0.50687565  0.61816339  0.50680522  1
  O  O323  1  0.48857907  0.38679594  0.50950785  1
  O  O324  1  0.50127977  0.38721499  0.98199118  1
  O  O325  1  0.50271557  0.87730848  0.48514948  1
  O  O326  1  0.49426780  0.82818602  0.98918520  1
  O  O327  1  0.98911490  0.38232504  0.49172946  1
  O  O328  1  0.98696572  0.38061896  0.99616933  1
  O  O329  1  1.00158139  0.88456479  0.48602905  1
  O  O330  1  0.98962608  0.87545861  1.00073013  1
  O  O331  1  0.48709709  0.50647795  0.38660344  1
  O  O332  1  0.48431843  0.50371027  0.87420197  1
  O  O333  1  0.48765182  0.99608387  0.37507224  1
  O  O334  1  0.47985517  0.98268875  0.85726242  1
  O  O335  1  0.99203467  0.49251335  0.38040151  1
  O  O336  1  0.99819450  0.49523607  0.88286906  1
  O  O337  1  0.99104220  0.99601516  0.37845930  1
  O  O338  1  0.99200986  0.99791002  0.87592849  1
  O  O339  1  -0.00778543  0.01169277  0.12717919  1
  O  O340  1  -0.00044790  0.01133039  0.61444317  1
  O  O341  1  0.00726003  0.50306603  0.12221581  1
  O  O342  1  0.00853692  0.50537470  0.62219103  1
  O  O343  1  0.51756821  -0.01605320  0.13185357  1
  O  O344  1  0.50455754  0.00605281  0.62795410  1
  O  O345  1  0.51088150  0.51046648  0.13345745  1
  O  O346  1  0.49092503  0.51142401  0.61458624  1
  O  O347  1  0.25912098  0.38800208  0.24135765  1
  O  O348  1  0.24234116  0.37765174  0.73882979  1
  O  O349  1  0.24186126  0.88071021  0.24451873  1
  O  O350  1  0.25012131  0.89193465  0.74457346  1
  O  O351  1  0.73566434  0.37759486  0.24748070  1
  O  O352  1  0.75243089  0.38432648  0.74077957  1
  O  O353  1  0.75954138  0.88330502  0.24062651  1
  O  O354  1  0.74259889  0.87294593  0.73869865  1
  O  O355  1  0.25895037  0.11694687  0.25504613  1
  O  O356  1  0.25772607  0.11957584  0.76228700  1
  O  O357  1  0.25919512  0.61422049  0.25512515  1
  O  O358  1  0.24069191  0.63272712  0.75227036  1
  O  O359  1  0.75559256  0.11492207  0.25926661  1
  O  O360  1  0.76749624  0.12249546  0.75576405  1
  O  O361  1  0.75016037  0.61606662  0.25970567  1
  O  O362  1  0.74895691  0.62197557  0.75638734  1
  O  O363  1  0.36651684  0.11397877  0.36476795  1
  O  O364  1  0.36265390  0.13104651  0.86660545  1
  O  O365  1  0.37023559  0.61733292  0.37022938  1
  O  O366  1  0.38135288  0.62939917  0.88676767  1
  O  O367  1  0.86403783  0.11809644  0.36892031  1
  O  O368  1  0.87510251  0.11739684  0.86878092  1
  O  O369  1  0.86760634  0.61614941  0.37466498  1
  O  O370  1  0.86024323  0.62413032  0.87854741  1
  O  O371  1  0.13592077  0.39250266  0.11884199  1
  O  O372  1  0.12943685  0.38440085  0.63288071  1
  O  O373  1  0.13334222  0.86821303  0.13752606  1
  O  O374  1  0.12693484  0.88299210  0.62480136  1
  O  O375  1  0.62535332  0.38475754  0.13169862  1
  O  O376  1  0.63778507  0.36879370  0.62497813  1
  O  O377  1  0.63948700  0.87881511  0.12364223  1
  O  O378  1  0.63084803  0.88199814  0.63123094  1
  O  O379  1  0.11469618  0.26132666  0.21213895  1
  O  O380  1  0.11557032  0.26129475  0.76949374  1
  O  O381  1  0.11920694  0.75694154  0.25624665  1
  O  O382  1  0.11087616  0.74709327  0.76063080  1
  O  O383  1  0.61601446  0.25088954  0.25516398  1
  O  O384  1  0.63676873  0.25794084  0.76468079  1
  O  O385  1  0.62625601  0.74067559  0.26641976  1
  O  O386  1  0.61840195  0.76220287  0.74900390  1
  O  O387  1  0.39227983  0.24192134  0.24909929  1
  O  O388  1  0.36714880  0.24379646  0.73987493  1
  O  O389  1  0.37033009  0.73624585  0.24428288  1
  O  O390  1  0.39236790  0.74517218  0.73845377  1
  O  O391  1  0.86769033  0.23602804  0.24498426  1
  O  O392  1  0.88182542  0.24284678  0.74640780  1
  O  O393  1  0.88130465  0.74732331  0.24404657  1
  O  O394  1  0.89119774  0.74522680  0.75593125  1
  O  O395  1  0.38196322  0.49569964  0.49567930  1
  O  O396  1  0.37141128  0.50073908  0.98558625  1
  O  O397  1  0.37360518  1.00517594  0.48407696  1
  O  O398  1  0.36958273  0.99701742  0.97857523  1
  O  O399  1  0.87885929  0.49494556  0.49402665  1
  O  O400  1  0.87993988  0.49007499  1.00201114  1
  O  O401  1  0.88069952  1.00351100  0.48639634  1
  O  O402  1  0.87737396  0.98999478  0.99321185  1
  O  O403  1  0.12616379  0.01136432  -0.00890133  1
  O  O404  1  0.10821680  0.00575736  0.49222757  1
  O  O405  1  0.12002339  0.50882484  0.00756170  1
  O  O406  1  0.11947013  0.50433756  0.51049651  1
  O  O407  1  0.61709714  -0.01581107  0.00778099  1
  O  O408  1  0.62169623  -0.00162250  0.51590662  1
  O  O409  1  0.63189705  0.51164026  0.01335996  1
  O  O410  1  0.61292931  0.50862854  0.49179398  1
  O  O411  1  0.36308019  0.38924381  0.12272999  1
  O  O412  1  0.36828567  0.37103125  0.62455886  1
  O  O413  1  0.36393777  0.86066616  0.13868561  1
  O  O414  1  0.37931010  0.86281763  0.62974731  1
  O  O415  1  0.87307508  0.36423709  0.11930953  1
  O  O416  1  0.86610362  0.36890438  0.61941241  1
  O  O417  1  0.86804906  0.87013650  0.11826250  1
  O  O418  1  0.85794434  0.88218620  0.62869465  1
  O  O419  1  0.14342940  0.12469776  0.36259884  1
  O  O420  1  0.13022423  0.13601754  0.88302085  1
  O  O421  1  0.12879348  0.62870573  0.37997435  1
  O  O422  1  0.11756686  0.63473847  0.88888038  1
  O  O423  1  0.63639830  0.12866798  0.36840160  1
  O  O424  1  0.65130000  0.11429396  0.86164673  1
  O  O425  1  0.62978842  0.63204142  0.38635336  1
  O  O426  1  0.63415629  0.62339486  0.88567143  1
