# generated using pymatgen
data_V85Zn86O256
_symmetry_space_group_name_H-M   'P 1'
_cell_length_a   16.95395506
_cell_length_b   16.95983814
_cell_length_c   16.94684853
_cell_angle_alpha   89.96170217
_cell_angle_beta   89.91033306
_cell_angle_gamma   89.84930328
_symmetry_Int_Tables_number   1
_chemical_formula_structural   V85Zn86O256
_chemical_formula_sum   'V85 Zn86 O256'
_cell_volume   4872.81079562
_cell_formula_units_Z   1
loop_
 _symmetry_equiv_pos_site_id
 _symmetry_equiv_pos_as_xyz
  1  'x, y, z'
loop_
 _atom_site_type_symbol
 _atom_site_label
 _atom_site_symmetry_multiplicity
 _atom_site_fract_x
 _atom_site_fract_y
 _atom_site_fract_z
 _atom_site_occupancy
  V  V0  1  0.37489777  0.13203430  0.24568694  1
  V  V1  1  0.87766923  0.50109719  0.37924654  1
  V  V2  1  0.00256538  0.74571811  0.25674197  1
  V  V3  1  0.76678289  0.00308102  0.74958953  1
  V  V4  1  0.25043484  0.12491911  0.37415896  1
  V  V5  1  0.86935062  0.49964508  0.87923273  1
  V  V6  1  0.75244236  0.50160704  0.25339384  1
  V  V7  1  0.37452537  0.24844948  0.63041870  1
  V  V8  1  0.37716604  0.36651937  0.00439894  1
  V  V9  1  0.63591541  0.74678664  0.88033878  1
  V  V10  1  0.62511205  0.12301760  -0.00212929  1
  V  V11  1  0.75379670  0.87110242  0.11982943  1
  V  V12  1  0.37518902  0.74168478  0.62847257  1
  V  V13  1  0.50199703  0.50538232  -0.00078542  1
  V  V14  1  0.12084901  0.49938150  0.62358043  1
  V  V15  1  0.50059170  0.50625317  0.49985222  1
  V  V16  1  0.12846675  0.00043067  0.62547143  1
  V  V17  1  0.49714315  0.74254648  0.75321290  1
  V  V18  1  0.24470247  0.74895379  0.49605783  1
  V  V19  1  0.25202035  -0.00549049  0.24207964  1
  V  V20  1  -0.00261953  0.62398129  0.62497961  1
  V  V21  1  0.50594965  0.11860876  0.62335958  1
  V  V22  1  0.25011775  0.87842643  0.62747682  1
  V  V23  1  0.86685279  0.62541791  0.75578609  1
  V  V24  1  0.23228545  0.24946039  -0.00491409  1
  V  V25  1  0.25054364  0.24967572  0.50124678  1
  V  V26  1  -0.00307115  0.37439981  0.88044806  1
  V  V27  1  0.87233449  0.37765369  0.50487525  1
  V  V28  1  0.37554912  0.50576118  0.87057613  1
  V  V29  1  -0.00323324  0.50765745  0.00375226  1
  V  V30  1  -0.00367379  0.12703712  0.63059649  1
  V  V31  1  0.62091714  0.88527178  0.74662282  1
  V  V32  1  0.88057348  0.24850134  0.12876905  1
  V  V33  1  -0.00299297  0.88121005  0.87476780  1
  V  V34  1  0.25673067  0.75439804  0.01592737  1
  V  V35  1  0.75735423  0.25124533  -0.00129032  1
  V  V36  1  0.50423293  -0.00276294  0.50281866  1
  V  V37  1  0.50115004  0.37349689  0.37382498  1
  V  V38  1  0.62473555  0.37384393  0.25063568  1
  V  V39  1  0.88384421  0.12747070  0.25090172  1
  V  V40  1  0.75286971  0.00803187  0.25129754  1
  V  V41  1  0.88491554  0.74517611  0.11899744  1
  V  V42  1  -0.00099509  0.74971292  0.75532328  1
  V  V43  1  0.87403475  0.87357483  0.50244382  1
  V  V44  1  0.87440326  0.88112825  -0.00289652  1
  V  V45  1  0.37384123  0.62571623  0.24390885  1
  V  V46  1  0.00438355  0.00571584  0.00093946  1
  V  V47  1  0.00111424  0.24918759  0.75389501  1
  V  V48  1  0.48796770  -0.00119729  -0.00254801  1
  V  V49  1  0.48706399  0.87673049  0.87917554  1
  V  V50  1  0.38069179  -0.00300069  0.37385446  1
  V  V51  1  0.00005380  0.37585408  0.37947421  1
  V  V52  1  0.50268632  0.37574244  0.87078686  1
  V  V53  1  0.12760448  0.87765506  0.75043486  1
  V  V54  1  0.12625816  0.12589032  0.50136141  1
  V  V55  1  0.12105831  0.37164690  0.24802128  1
  V  V56  1  0.62699506  0.50122813  0.12382740  1
  V  V57  1  0.62875537  0.00127677  0.12268351  1
  V  V58  1  0.00091192  0.00115594  0.49984771  1
  V  V59  1  0.24638185  0.62747805  0.87690463  1
  V  V60  1  0.23834361  0.11795173  0.87604045  1
  V  V61  1  0.37313463  0.49854013  0.37485903  1
  V  V62  1  0.12457454  0.87510283  0.25327484  1
  V  V63  1  0.37520032  0.37265040  0.50073279  1
  V  V64  1  0.37190967  0.10691901  0.75698881  1
  V  V65  1  0.49751783  0.13310832  0.12236232  1
  V  V66  1  0.37870602  0.87176744  0.49397210  1
  V  V67  1  0.11981962  0.62405279  0.49775980  1
  V  V68  1  0.49876244  0.25182957  0.24775107  1
  V  V69  1  0.62623801  0.87090236  0.25574941  1
  V  V70  1  0.12263841  0.50307886  0.12288647  1
  V  V71  1  0.24596048  0.62313730  0.37383008  1
  V  V72  1  0.12628436  0.00278166  0.12210462  1
  V  V73  1  0.12540301  0.37255263  0.75688566  1
  V  V74  1  0.76310834  0.11995423  0.87207649  1
  V  V75  1  0.87017822  0.25331479  0.62866669  1
  V  V76  1  0.74847729  0.24536955  0.49326791  1
  V  V77  1  0.62887081  0.49627551  0.62454371  1
  V  V78  1  0.75103337  0.49207817  0.74702019  1
  V  V79  1  0.25168784  0.50557295  0.75020897  1
  V  V80  1  0.75623790  0.37382784  0.12116202  1
  V  V81  1  0.11926039  0.24861949  0.37002112  1
  V  V82  1  0.62701386  0.25016936  0.87189612  1
  V  V83  1  0.49641148  0.63179471  0.12689647  1
  V  V84  1  0.87328232  0.00560814  0.37640647  1
  Zn  Zn85  1  0.11899810  0.63525999  0.00712478  1
  Zn  Zn86  1  0.88155602  0.62328658  0.24815046  1
  Zn  Zn87  1  0.62893475  0.24044786  0.37116882  1
  Zn  Zn88  1  0.50096651  0.24629001  0.74884511  1
  Zn  Zn89  1  0.63014418  0.62822148  0.49875617  1
  Zn  Zn90  1  0.24820388  0.49722650  0.24334921  1
  Zn  Zn91  1  0.61057175  0.74702184  0.37402503  1
  Zn  Zn92  1  0.12653760  0.75215660  0.88089940  1
  Zn  Zn93  1  0.63299489  0.36955682  0.74304113  1
  Zn  Zn94  1  0.24939319  0.37452766  0.62765412  1
  Zn  Zn95  1  0.00484728  0.87335171  0.37894953  1
  Zn  Zn96  1  0.00735033  0.13189125  0.12177252  1
  Zn  Zn97  1  0.63581399  0.11146228  0.49688527  1
  Zn  Zn98  1  0.37497201  0.86332574  0.04475753  1
  Zn  Zn99  1  0.49791308  0.62247938  0.63083584  1
  Zn  Zn100  1  0.74219898  0.75283266  0.49833344  1
  Zn  Zn101  1  0.74967912  0.63562338  0.37557918  1
  Zn  Zn102  1  0.86672282  0.75018118  0.62522654  1
  Zn  Zn103  1  0.25551452  0.36706202  0.12760176  1
  Zn  Zn104  1  0.74250835  0.87929833  0.62222814  1
  Zn  Zn105  1  0.64206142  0.63031788  0.00122430  1
  Zn  Zn106  1  0.46682890  0.78475231  0.23606738  1
  Zn  Zn107  1  0.19091033  0.18782961  0.18186742  1
  Zn  Zn108  1  0.18891558  0.18548363  0.69274006  1
  Zn  Zn109  1  0.18300699  0.68556301  0.19054961  1
  Zn  Zn110  1  0.18622694  0.68935127  0.68619347  1
  Zn  Zn111  1  0.68825166  0.18755634  0.18694052  1
  Zn  Zn112  1  0.68986776  0.18178420  0.68550929  1
  Zn  Zn113  1  0.69063106  0.68704085  0.18273279  1
  Zn  Zn114  1  0.68441134  0.68905642  0.68308572  1
  Zn  Zn115  1  0.30929038  0.31333813  0.31339610  1
  Zn  Zn116  1  0.31115687  0.31158689  0.81731845  1
  Zn  Zn117  1  0.30770638  0.81161723  0.31018398  1
  Zn  Zn118  1  0.31123858  0.81003731  0.81287067  1
  Zn  Zn119  1  0.81410431  0.31302726  0.31240030  1
  Zn  Zn120  1  0.81686456  0.31224479  0.81290030  1
  Zn  Zn121  1  0.81324060  0.81490476  0.31327931  1
  Zn  Zn122  1  0.81245571  0.81922937  0.80793095  1
  Zn  Zn123  1  0.18697914  0.43680226  0.43948764  1
  Zn  Zn124  1  0.18730023  0.43615521  0.93928917  1
  Zn  Zn125  1  0.19040163  0.93862627  0.43529529  1
  Zn  Zn126  1  0.19277596  0.93366144  0.94051212  1
  Zn  Zn127  1  0.68798935  0.43309048  0.43980460  1
  Zn  Zn128  1  0.68936587  0.43890295  0.93709348  1
  Zn  Zn129  1  0.69121256  0.93687279  0.43445271  1
  Zn  Zn130  1  0.68428580  0.93664751  0.93318851  1
  Zn  Zn131  1  0.30947125  0.06901338  0.05959378  1
  Zn  Zn132  1  0.31700114  0.06266118  0.56322590  1
  Zn  Zn133  1  0.30909044  0.55958372  0.05971786  1
  Zn  Zn134  1  0.30999714  0.56047006  0.56115976  1
  Zn  Zn135  1  0.81608992  0.06355056  0.06174828  1
  Zn  Zn136  1  0.81340587  0.06212116  0.56813094  1
  Zn  Zn137  1  0.81730717  0.56019376  0.06664960  1
  Zn  Zn138  1  0.80935300  0.56447817  0.56280313  1
  Zn  Zn139  1  0.43692945  0.44233562  0.18633955  1
  Zn  Zn140  1  0.43858405  0.43688734  0.68582327  1
  Zn  Zn141  1  0.44159511  0.95037366  0.18492839  1
  Zn  Zn142  1  0.43766089  0.93106613  0.68523186  1
  Zn  Zn143  1  0.94017983  0.43287688  0.19079476  1
  Zn  Zn144  1  0.93787302  0.43724700  0.69059946  1
  Zn  Zn145  1  0.94150024  0.93588388  0.18666636  1
  Zn  Zn146  1  0.94014526  0.93802117  0.68452832  1
  Zn  Zn147  1  0.06218008  0.06091692  0.31151648  1
  Zn  Zn148  1  0.06293235  0.06082865  0.81253135  1
  Zn  Zn149  1  0.06166986  0.55931787  0.31148816  1
  Zn  Zn150  1  0.06137220  0.56289182  0.81588132  1
  Zn  Zn151  1  0.56604840  0.06239580  0.31364921  1
  Zn  Zn152  1  0.55896518  0.06403951  0.81570377  1
  Zn  Zn153  1  0.56251624  0.56638414  0.31228703  1
  Zn  Zn154  1  0.57021932  0.56446660  0.81301156  1
  Zn  Zn155  1  0.44111573  0.18507700  0.43601967  1
  Zn  Zn156  1  0.43619417  0.18665306  0.93423160  1
  Zn  Zn157  1  0.43869478  0.69380953  0.42281621  1
  Zn  Zn158  1  0.43620906  0.68984778  0.93684466  1
  Zn  Zn159  1  0.93654360  0.18769311  0.44001964  1
  Zn  Zn160  1  0.94130904  0.18851667  0.93709634  1
  Zn  Zn161  1  0.93456288  0.68713341  0.43631801  1
  Zn  Zn162  1  0.81713278  0.68956161  0.93855044  1
  Zn  Zn163  1  0.06213876  0.31697462  0.06135317  1
  Zn  Zn164  1  0.06096056  0.31342236  0.56321084  1
  Zn  Zn165  1  0.06755745  0.81811957  0.06540217  1
  Zn  Zn166  1  0.05944930  0.81038258  0.56462706  1
  Zn  Zn167  1  0.56702653  0.31495405  0.05921050  1
  Zn  Zn168  1  0.56100645  0.31256807  0.56282028  1
  Zn  Zn169  1  0.56345013  0.81573683  0.06293416  1
  Zn  Zn170  1  0.56082249  0.80967304  0.56362380  1
  O  O171  1  0.12227602  0.11031555  0.13215187  1
  O  O172  1  0.12019325  0.12082542  0.62133219  1
  O  O173  1  0.12465322  0.60760373  0.12600337  1
  O  O174  1  0.11808486  0.61863583  0.62001423  1
  O  O175  1  0.61876311  0.12181446  0.11778310  1
  O  O176  1  0.60997754  0.12906104  0.61892828  1
  O  O177  1  0.61712795  0.61817425  0.12254965  1
  O  O178  1  0.61853874  0.61112176  0.62267126  1
  O  O179  1  0.37938911  0.37910021  0.38003264  1
  O  O180  1  0.38541553  0.38369973  0.88132414  1
  O  O181  1  0.36556151  0.88344736  0.38389787  1
  O  O182  1  0.38735297  0.87400497  0.86979174  1
  O  O183  1  0.88290490  0.37899541  0.38119931  1
  O  O184  1  0.88561830  0.38755094  0.86876938  1
  O  O185  1  0.87882932  0.88887336  0.38403527  1
  O  O186  1  0.88532891  0.86835216  0.88488138  1
  O  O187  1  0.25992675  0.00664547  0.36641104  1
  O  O188  1  0.25031799  0.01855559  0.88877626  1
  O  O189  1  0.25466303  0.50921469  0.37816752  1
  O  O190  1  0.25605264  0.50601660  0.87055121  1
  O  O191  1  0.76215320  -0.00146745  0.36393660  1
  O  O192  1  0.74297493  0.00861109  0.86321175  1
  O  O193  1  0.76030610  0.49172339  0.36465376  1
  O  O194  1  0.76063946  0.49509257  0.86663979  1
  O  O195  1  0.23632690  0.49051386  0.12071618  1
  O  O196  1  0.24157431  0.49966657  0.63425155  1
  O  O197  1  0.24507939  1.00682385  0.13508718  1
  O  O198  1  0.24638025  0.98574186  0.61653144  1
  O  O199  1  0.74951287  0.49043040  0.13239542  1
  O  O200  1  0.74113063  0.50144854  0.63384253  1
  O  O201  1  0.74883633  0.99396690  0.13058092  1
  O  O202  1  0.75169857  0.99990059  0.64373368  1
  O  O203  1  0.01092776  0.37366882  0.26336357  1
  O  O204  1  0.00738963  0.37001271  0.75758626  1
  O  O205  1  0.00711269  0.86832066  0.25431937  1
  O  O206  1  0.00542591  0.87008143  0.75429014  1
  O  O207  1  0.50405406  0.37138894  0.25205937  1
  O  O208  1  0.50269568  0.37411468  0.76309840  1
  O  O209  1  0.52571983  0.88890712  0.24321331  1
  O  O210  1  0.50735294  0.86861217  0.75760518  1
  O  O211  1  0.49381757  0.12967309  0.24099426  1
  O  O212  1  0.48858640  0.12404417  0.74275685  1
  O  O213  1  0.48748409  0.61385148  0.23794079  1
  O  O214  1  0.50234034  0.63857347  0.75352723  1
  O  O215  1  0.98801575  0.12079962  0.24521980  1
  O  O216  1  1.00952169  0.13533990  0.74095044  1
  O  O217  1  1.00285241  0.64077357  0.25253726  1
  O  O218  1  0.99344437  0.63180328  0.74593311  1
  O  O219  1  0.38049219  0.26414324  -0.00399075  1
  O  O220  1  0.37092275  0.25154740  0.50875643  1
  O  O221  1  0.36178437  0.74759952  0.00128230  1
  O  O222  1  0.36760452  0.75572272  0.50436727  1
  O  O223  1  0.86218093  0.24363416  0.00805540  1
  O  O224  1  0.86788073  0.25573164  0.50736769  1
  O  O225  1  0.87686580  0.76251659  0.01275686  1
  O  O226  1  0.87802260  0.76489735  0.50035291  1
  O  O227  1  0.13038743  0.24577361  0.49300702  1
  O  O228  1  0.13305337  0.25503542  0.99347215  1
  O  O229  1  0.13529845  0.73926342  0.50838400  1
  O  O230  1  0.13691448  0.75182876  0.99986275  1
  O  O231  1  0.64405323  0.25659456  0.50440398  1
  O  O232  1  0.63568689  0.24479291  0.99091528  1
  O  O233  1  0.62105526  0.74820045  0.49358486  1
  O  O234  1  0.62210582  0.75350037  0.98398971  1
  O  O235  1  0.50737075  0.23940394  0.12729265  1
  O  O236  1  0.49024948  0.23983283  0.62413574  1
  O  O237  1  0.50756789  0.73438290  0.12710838  1
  O  O238  1  0.49122193  0.74738381  0.63478378  1
  O  O239  1  0.98477016  0.25078684  0.11445800  1
  O  O240  1  0.99467296  0.24400498  0.63144125  1
  O  O241  1  0.98946654  0.75866863  0.13253869  1
  O  O242  1  0.99807231  0.74051955  0.63734780  1
  O  O243  1  0.01221359  0.25628580  0.38018813  1
  O  O244  1  -0.00771634  0.25939921  0.86412632  1
  O  O245  1  -0.00518612  0.75379658  0.36068888  1
  O  O246  1  0.00612038  0.76356882  0.86132306  1
  O  O247  1  0.49916983  0.25792182  0.36706098  1
  O  O248  1  0.51121872  0.25814151  0.87510002  1
  O  O249  1  0.49714666  0.75043004  0.34715322  1
  O  O250  1  0.50381126  0.75796106  0.86966421  1
  O  O251  1  0.24620807  0.12884669  0.49486254  1
  O  O252  1  0.25581119  0.13942235  0.98823043  1
  O  O253  1  0.24169455  0.63060165  0.49452390  1
  O  O254  1  0.24632653  0.63311967  0.99225166  1
  O  O255  1  0.75166750  0.13975799  0.50822055  1
  O  O256  1  0.74495667  0.13030776  0.99236940  1
  O  O257  1  0.74992474  0.63132932  0.49559001  1
  O  O258  1  0.75372884  0.62424111  1.00287957  1
  O  O259  1  0.25861218  0.36185237  -0.00697232  1
  O  O260  1  0.25655338  0.36802891  0.50314402  1
  O  O261  1  0.25782558  0.85965858  0.00058897  1
  O  O262  1  0.25524294  0.86640218  0.50564794  1
  O  O263  1  0.74467091  0.36487165  0.01044451  1
  O  O264  1  0.76391796  0.36321901  0.49897871  1
  O  O265  1  0.76019004  0.88526504  0.00848437  1
  O  O266  1  0.76182616  0.88044056  0.50365850  1
  O  O267  1  0.12316766  0.48969346  0.24164039  1
  O  O268  1  0.13131821  0.49373645  0.74330893  1
  O  O269  1  0.13450421  0.99620014  0.24549446  1
  O  O270  1  0.11905709  0.98550823  0.74119620  1
  O  O271  1  0.63399270  0.49334814  0.24414360  1
  O  O272  1  0.63525513  0.49885004  0.74520643  1
  O  O273  1  0.63614556  0.99789844  0.24298990  1
  O  O274  1  0.61914910  0.98643641  0.75446562  1
  O  O275  1  0.37007397  0.01039925  0.25632700  1
  O  O276  1  0.37468887  0.00841651  0.74610514  1
  O  O277  1  0.36859879  0.50582232  0.25697858  1
  O  O278  1  0.36401600  0.49195993  0.75898438  1
  O  O279  1  0.87170101  0.00604694  0.25598875  1
  O  O280  1  0.86549293  -0.00746920  0.75495212  1
  O  O281  1  0.86949590  0.49844862  0.25763888  1
  O  O282  1  0.87009285  0.50635422  0.75680222  1
  O  O283  1  0.11908854  0.36922111  0.37143317  1
  O  O284  1  0.11479695  0.38415528  0.86294606  1
  O  O285  1  0.12444939  0.88133606  0.36124089  1
  O  O286  1  0.12024105  0.87470454  0.86478808  1
  O  O287  1  0.61899533  0.37050007  0.36787893  1
  O  O288  1  0.61935635  0.36620209  0.87531304  1
  O  O289  1  0.63324534  0.87692634  0.35712544  1
  O  O290  1  0.61585073  0.86491564  0.86726504  1
  O  O291  1  0.38560712  0.12042497  0.13500380  1
  O  O292  1  0.37893411  0.13039886  0.63657493  1
  O  O293  1  0.38276326  0.61267191  0.13242073  1
  O  O294  1  0.37359421  0.63801094  0.61941109  1
  O  O295  1  0.87787902  0.13294078  0.13200093  1
  O  O296  1  0.89001339  0.13481945  0.62184916  1
  O  O297  1  0.87563803  0.64213158  0.12782050  1
  O  O298  1  0.88531785  0.62346768  0.63391534  1
  O  O299  1  0.24740185  0.25017007  0.10400528  1
  O  O300  1  0.25881225  0.24928772  0.62083738  1
  O  O301  1  0.24733484  0.74181259  0.11429092  1
  O  O302  1  0.25579087  0.75629259  0.61654862  1
  O  O303  1  0.75588153  0.25514412  0.11714275  1
  O  O304  1  0.76487297  0.24625785  0.62268434  1
  O  O305  1  0.76670348  0.76383738  0.13370956  1
  O  O306  1  0.75068794  0.75977984  0.62213635  1
  O  O307  1  0.24120165  0.24416304  0.38138267  1
  O  O308  1  0.25539785  0.24034321  0.88649543  1
  O  O309  1  0.25351672  0.73730470  0.38644345  1
  O  O310  1  0.24952406  0.73881522  0.87847012  1
  O  O311  1  0.75303267  0.25044374  0.38947140  1
  O  O312  1  0.74574539  0.24524790  0.87969488  1
  O  O313  1  0.74420324  0.75246177  0.37621472  1
  O  O314  1  0.74056790  0.75483380  0.87314732  1
  O  O315  1  -0.00297542  0.11016875  -0.00204918  1
  O  O316  1  0.00718165  0.12221581  0.51018548  1
  O  O317  1  0.00385239  0.60612394  -0.00141884  1
  O  O318  1  0.00893893  0.63421296  0.51151946  1
  O  O319  1  0.50281216  0.11950006  0.00404264  1
  O  O320  1  0.49224519  0.11262175  0.50995827  1
  O  O321  1  0.49681596  0.61450853  0.00620324  1
  O  O322  1  0.49442916  0.61037549  0.49492666  1
  O  O323  1  0.49389688  0.38261771  0.49414031  1
  O  O324  1  0.49798383  0.38465890  0.99142591  1
  O  O325  1  0.48441070  0.88160857  0.50840252  1
  O  O326  1  0.49430623  0.88131822  0.99623818  1
  O  O327  1  0.99075690  0.37033410  0.48855078  1
  O  O328  1  1.00453114  0.38112397  0.98485050  1
  O  O329  1  0.99462832  0.88274814  0.50067334  1
  O  O330  1  0.99503501  0.88158488  0.99210594  1
  O  O331  1  0.49369136  0.49276524  0.38107547  1
  O  O332  1  0.49658856  0.49616912  0.87926989  1
  O  O333  1  0.48524521  1.00400148  0.38186201  1
  O  O334  1  0.50534038  0.99135959  0.88893584  1
  O  O335  1  0.98893146  0.48967162  0.37119745  1
  O  O336  1  0.99213470  0.49446714  0.88279063  1
  O  O337  1  0.99196561  1.00056477  0.38295234  1
  O  O338  1  1.00719778  0.98826925  0.88258874  1
  O  O339  1  0.00787343  0.00151710  0.11672938  1
  O  O340  1  0.00646249  0.00994476  0.62082899  1
  O  O341  1  0.00438434  0.48739719  0.11078469  1
  O  O342  1  0.01002048  0.51232096  0.63481333  1
  O  O343  1  0.50948968  0.01493596  0.11659738  1
  O  O344  1  0.49036555  0.00671119  0.61466082  1
  O  O345  1  0.50734622  0.50510152  0.11484142  1
  O  O346  1  0.50309623  0.50302936  0.61675182  1
  O  O347  1  0.23722945  0.37666914  0.24970627  1
  O  O348  1  0.24133103  0.38427766  0.75220839  1
  O  O349  1  0.24328077  0.88774476  0.25424842  1
  O  O350  1  0.24064132  0.86598271  0.73789187  1
  O  O351  1  0.74544148  0.38082036  0.24205021  1
  O  O352  1  0.75220325  0.38675896  0.75074856  1
  O  O353  1  0.74723740  0.88889542  0.23887310  1
  O  O354  1  0.73709186  0.88927887  0.75456503  1
  O  O355  1  0.25834212  0.11864383  0.25345002  1
  O  O356  1  0.26290413  0.12819613  0.76173378  1
  O  O357  1  0.25045743  0.61941692  0.25981467  1
  O  O358  1  0.24184767  0.61347111  0.75848808  1
  O  O359  1  0.76097723  0.11398663  0.24163817  1
  O  O360  1  0.74652641  0.11066933  0.75662200  1
  O  O361  1  0.75390685  0.60951941  0.24701592  1
  O  O362  1  0.76194018  0.61626110  0.74340874  1
  O  O363  1  0.37078011  0.11785285  0.36623570  1
  O  O364  1  0.37668757  0.12455308  0.85939013  1
  O  O365  1  0.36435866  0.61661283  0.36783329  1
  O  O366  1  0.36577626  0.61237322  0.87869517  1
  O  O367  1  0.88065966  0.11562275  0.36775051  1
  O  O368  1  0.86184016  0.12923404  0.87665361  1
  O  O369  1  0.87446963  0.61214284  0.37135814  1
  O  O370  1  0.87559236  0.61507561  0.86502463  1
  O  O371  1  0.12388530  0.37875145  0.13586273  1
  O  O372  1  0.12355774  0.38474538  0.63294480  1
  O  O373  1  0.12186629  0.89009662  0.14067917  1
  O  O374  1  0.13164281  0.87885336  0.62924363  1
  O  O375  1  0.63512067  0.38009417  0.12968236  1
  O  O376  1  0.61447540  0.39019285  0.62907908  1
  O  O377  1  0.63732961  0.88200739  0.12664217  1
  O  O378  1  0.62061416  0.87111187  0.64423986  1
  O  O379  1  0.13258181  0.25593106  0.26128221  1
  O  O380  1  0.11485107  0.26273932  0.74143380  1
  O  O381  1  0.11118871  0.75980313  0.24102136  1
  O  O382  1  0.11641104  0.76088669  0.74733464  1
  O  O383  1  0.61897518  0.25606684  0.24957488  1
  O  O384  1  0.62594838  0.25009314  0.75939331  1
  O  O385  1  0.63322828  0.76896179  0.24217415  1
  O  O386  1  0.61756731  0.75824625  0.76122009  1
  O  O387  1  0.37902260  0.23868465  0.25439898  1
  O  O388  1  0.37680125  0.24780254  0.74013775  1
  O  O389  1  0.36257635  0.72843024  0.25284171  1
  O  O390  1  0.38438133  0.75770534  0.73901088  1
  O  O391  1  0.86697401  0.23942071  0.24090580  1
  O  O392  1  0.88929417  0.25802046  0.74008665  1
  O  O393  1  0.88818687  0.75398504  0.24010517  1
  O  O394  1  0.88156364  0.74279751  0.75092472  1
  O  O395  1  0.38088240  0.49319390  0.49641256  1
  O  O396  1  0.38373574  0.49246353  0.98862255  1
  O  O397  1  0.37851365  0.99121275  0.49179196  1
  O  O398  1  0.38652194  0.99336654  1.01541150  1
  O  O399  1  0.86762069  0.48976396  0.49013863  1
  O  O400  1  0.88684632  0.50026121  0.99303955  1
  O  O401  1  0.87992432  0.99732386  0.49471454  1
  O  O402  1  0.88766257  0.98883589  1.00667844  1
  O  O403  1  0.11712046  -0.01121009  0.01143815  1
  O  O404  1  0.12174839  0.00616643  0.50476708  1
  O  O405  1  0.11371718  0.49583995  0.00691790  1
  O  O406  1  0.13042493  0.50975332  0.51330744  1
  O  O407  1  0.61736920  0.00489385  0.00440381  1
  O  O408  1  0.60836159  -0.00727272  0.49399890  1
  O  O409  1  0.61602208  0.50203386  0.00251783  1
  O  O410  1  0.61611141  0.49733673  0.50673901  1
  O  O411  1  0.37320814  0.38553653  0.11005252  1
  O  O412  1  0.37452685  0.36432601  0.62036747  1
  O  O413  1  0.39639160  0.85500078  0.15502350  1
  O  O414  1  0.36613298  0.86560313  0.61593030  1
  O  O415  1  0.86316160  0.36479535  0.13386723  1
  O  O416  1  0.88740948  0.36687335  0.61459489  1
  O  O417  1  0.87154120  0.87023535  0.11732997  1
  O  O418  1  0.87571284  0.87597297  0.61351390  1
  O  O419  1  0.12902910  0.13121790  0.37926427  1
  O  O420  1  0.13939702  0.12740497  0.86469712  1
  O  O421  1  0.13226824  0.61513035  0.38666401  1
  O  O422  1  0.13425527  0.62594162  0.87998771  1
  O  O423  1  0.61614679  0.12955257  0.38625729  1
  O  O424  1  0.63003773  0.13528762  0.87847240  1
  O  O425  1  0.63037433  0.62629729  0.37681665  1
  O  O426  1  0.62330113  0.64304213  0.87749408  1
