# generated using pymatgen
data_V85Zn86O256
_symmetry_space_group_name_H-M   'P 1'
_cell_length_a   16.94504410
_cell_length_b   16.95432040
_cell_length_c   16.95012949
_cell_angle_alpha   90.01931660
_cell_angle_beta   89.96725515
_cell_angle_gamma   89.90196993
_symmetry_Int_Tables_number   1
_chemical_formula_structural   V85Zn86O256
_chemical_formula_sum   'V85 Zn86 O256'
_cell_volume   4869.62343099
_cell_formula_units_Z   1
loop_
 _symmetry_equiv_pos_site_id
 _symmetry_equiv_pos_as_xyz
  1  'x, y, z'
loop_
 _atom_site_type_symbol
 _atom_site_label
 _atom_site_symmetry_multiplicity
 _atom_site_fract_x
 _atom_site_fract_y
 _atom_site_fract_z
 _atom_site_occupancy
  V  V0  1  -0.00023403  0.00312283  0.50134787  1
  V  V1  1  0.62255643  0.24961838  0.87445493  1
  V  V2  1  0.50067760  0.00440089  0.50274422  1
  V  V3  1  0.12431975  0.37154120  0.25731441  1
  V  V4  1  0.88438541  -0.00094209  0.88119317  1
  V  V5  1  0.49834413  0.74296742  0.74489663  1
  V  V6  1  0.61768371  0.11923894  -0.00027890  1
  V  V7  1  0.63190171  0.49641411  0.62676731  1
  V  V8  1  0.50207629  0.24710671  0.74418966  1
  V  V9  1  0.24238515  0.62803366  0.38717988  1
  V  V10  1  0.62603348  0.87463109  0.74937378  1
  V  V11  1  0.00616949  0.62577878  0.62313174  1
  V  V12  1  0.62223650  0.00833681  0.62434004  1
  V  V13  1  0.50150148  0.88019480  0.87691615  1
  V  V14  1  0.24186306  0.13227919  0.37506167  1
  V  V15  1  0.24470642  0.75006821  -0.00795887  1
  V  V16  1  0.62427308  0.75089987  0.37587392  1
  V  V17  1  0.24792684  -0.00132153  0.24775129  1
  V  V18  1  0.75020469  -0.00842632  0.24656842  1
  V  V19  1  0.75452136  0.60956738  0.37251366  1
  V  V20  1  0.13193478  0.24748289  0.89432502  1
  V  V21  1  0.63396405  0.49271039  0.12733297  1
  V  V22  1  0.26787000  0.62167280  0.87446419  1
  V  V23  1  0.87176041  0.37550773  0.00091815  1
  V  V24  1  0.87628366  0.12573210  0.75154570  1
  V  V25  1  0.37969978  0.87868655  -0.00206087  1
  V  V26  1  0.12443338  0.74773209  0.39080307  1
  V  V27  1  0.49652967  0.50063107  -0.00324646  1
  V  V28  1  0.12423125  0.62711909  -0.00962217  1
  V  V29  1  0.74843108  0.74837028  0.50037675  1
  V  V30  1  0.00451760  0.12621436  0.62444439  1
  V  V31  1  0.37457196  -0.00208550  0.37501044  1
  V  V32  1  0.00333233  0.75204058  0.76588277  1
  V  V33  1  0.00031260  0.50622594  0.49539212  1
  V  V34  1  -0.00414428  0.49909428  -0.00451539  1
  V  V35  1  0.38116935  0.50383642  0.37694465  1
  V  V36  1  0.49927172  0.11831803  0.12386740  1
  V  V37  1  0.36018065  0.74958560  0.62751337  1
  V  V38  1  0.00420936  0.24687280  0.25787764  1
  V  V39  1  0.26528022  0.50472822  0.75463223  1
  V  V40  1  0.86496825  0.75302483  0.12936961  1
  V  V41  1  0.24803466  0.37160635  0.11976272  1
  V  V42  1  0.37355386  0.74602300  0.12473146  1
  V  V43  1  0.87452441  0.87578987  0.50162888  1
  V  V44  1  0.74769133  0.25112167  0.00554848  1
  V  V45  1  0.86963021  0.12409770  0.25479807  1
  V  V46  1  0.87332820  0.87718686  0.00482773  1
  V  V47  1  0.24805454  0.87500974  0.12297895  1
  V  V48  1  0.63307776  0.74671495  0.87285676  1
  V  V49  1  0.12484173  0.49968623  0.12520789  1
  V  V50  1  0.75070379  0.25007120  0.50052054  1
  V  V51  1  0.49560686  0.37587577  0.87108938  1
  V  V52  1  0.36001622  0.87305795  0.50580540  1
  V  V53  1  0.86945818  0.61563245  0.75993979  1
  V  V54  1  0.00687395  0.25179598  0.74903053  1
  V  V55  1  0.61489258  0.61876290  0.50222267  1
  V  V56  1  0.12354950  0.00173684  0.10958763  1
  V  V57  1  0.87621811  0.74861605  0.62825648  1
  V  V58  1  0.00406660  0.11929988  0.11422534  1
  V  V59  1  -0.00084226  0.37654777  0.87564331  1
  V  V60  1  0.63974392  0.37921542  0.74847213  1
  V  V61  1  0.25145511  -0.00376085  0.74401549  1
  V  V62  1  0.37495785  0.12433476  0.25053740  1
  V  V63  1  0.38098575  0.38168985  0.49804213  1
  V  V64  1  0.63712096  0.37593334  0.24587837  1
  V  V65  1  0.86739006  0.00369400  0.37617510  1
  V  V66  1  0.49801183  0.74965155  0.24996427  1
  V  V67  1  0.63130736  0.62204844  -0.00151626  1
  V  V68  1  0.37812139  0.24967655  0.62133747  1
  V  V69  1  0.87071410  0.25998163  0.62575957  1
  V  V70  1  -0.00291127  0.62438556  0.12639860  1
  V  V71  1  0.75022066  0.87586333  0.62573723  1
  V  V72  1  0.87193861  0.24893397  0.12586046  1
  V  V73  1  -0.00177309  0.74712159  0.25126395  1
  V  V74  1  0.24835252  0.37783822  0.62566435  1
  V  V75  1  0.75221912  0.00045617  0.74998688  1
  V  V76  1  -0.00895304  0.37766844  0.37682160  1
  V  V77  1  0.37335631  0.37743784  -0.00286646  1
  V  V78  1  0.37876911  0.12432465  0.74580188  1
  V  V79  1  0.50113146  0.25406150  0.25284813  1
  V  V80  1  0.74966816  0.12420209  0.87602231  1
  V  V81  1  0.62831109  -0.00675917  0.12387785  1
  V  V82  1  0.37178527  0.25138583  0.12327137  1
  V  V83  1  0.63269267  0.24410088  0.37324270  1
  V  V84  1  0.00003280  0.87424578  0.37555309  1
  Zn  Zn85  1  0.37875455  0.00408021  0.87893794  1
  Zn  Zn86  1  0.49089431  0.61825078  0.62508907  1
  Zn  Zn87  1  0.11923623  0.13483556  0.49105924  1
  Zn  Zn88  1  0.87114294  0.60042093  0.25344483  1
  Zn  Zn89  1  0.62875512  0.86972441  0.24400565  1
  Zn  Zn90  1  0.12758678  0.38140795  0.75256413  1
  Zn  Zn91  1  0.86326885  0.38555183  0.50172649  1
  Zn  Zn92  1  0.12898368  0.50671698  0.62425518  1
  Zn  Zn93  1  0.01356013  0.88039478  0.88777638  1
  Zn  Zn94  1  0.24383844  0.12348116  0.88292447  1
  Zn  Zn95  1  0.49880382  0.87460395  0.37631380  1
  Zn  Zn96  1  0.12378585  0.87420748  0.24795364  1
  Zn  Zn97  1  0.74699538  0.75307706  0.00669373  1
  Zn  Zn98  1  0.74306536  0.58546902  0.85802879  1
  Zn  Zn99  1  0.62760971  0.12470213  0.49537798  1
  Zn  Zn100  1  0.50343855  0.38284906  0.37619220  1
  Zn  Zn101  1  0.13262705  0.86913524  0.75270002  1
  Zn  Zn102  1  0.36967403  0.62396278  0.25122523  1
  Zn  Zn103  1  0.49953502  0.62163257  0.12579468  1
  Zn  Zn104  1  0.13626735  -0.00548035  0.61823439  1
  Zn  Zn105  1  0.25077006  0.50264794  0.25083219  1
  Zn  Zn106  1  0.24311241  0.25967242  0.49203805  1
  Zn  Zn107  1  0.18662284  0.18579564  0.18589965  1
  Zn  Zn108  1  0.19268495  0.18587671  0.68851338  1
  Zn  Zn109  1  0.18629054  0.68608946  0.19087527  1
  Zn  Zn110  1  0.18668871  0.68544614  0.69379432  1
  Zn  Zn111  1  0.68671136  0.18251835  0.18987313  1
  Zn  Zn112  1  0.68963533  0.19045247  0.68707266  1
  Zn  Zn113  1  0.68487559  0.67811868  0.19085002  1
  Zn  Zn114  1  0.68678231  0.68356421  0.68589671  1
  Zn  Zn115  1  0.31280098  0.31772426  0.30945611  1
  Zn  Zn116  1  0.31282804  0.31229528  0.80959446  1
  Zn  Zn117  1  0.30872392  0.81183424  0.31484427  1
  Zn  Zn118  1  0.31398713  0.81253900  0.81177016  1
  Zn  Zn119  1  0.81289890  0.31648459  0.31257859  1
  Zn  Zn120  1  0.81471594  0.31267822  0.81725137  1
  Zn  Zn121  1  0.81243350  0.80973288  0.31493521  1
  Zn  Zn122  1  0.81833156  0.81507735  0.81426300  1
  Zn  Zn123  1  0.18693696  0.44509203  0.44076424  1
  Zn  Zn124  1  0.18699350  0.43832104  0.93402867  1
  Zn  Zn125  1  0.18389005  0.94007180  0.43300344  1
  Zn  Zn126  1  0.19366626  0.93901415  0.92705038  1
  Zn  Zn127  1  0.68102132  0.43189810  0.44083847  1
  Zn  Zn128  1  0.68378917  0.43389205  0.93810789  1
  Zn  Zn129  1  0.68652422  0.93609409  0.43795687  1
  Zn  Zn130  1  0.69293645  0.93529162  0.93781940  1
  Zn  Zn131  1  0.30662797  0.06308939  0.05925486  1
  Zn  Zn132  1  0.31582058  0.06518513  0.55989660  1
  Zn  Zn133  1  0.31027431  0.56121008  0.06082032  1
  Zn  Zn134  1  0.31290718  0.56401362  0.56237388  1
  Zn  Zn135  1  0.81135515  0.06262262  0.06329268  1
  Zn  Zn136  1  0.81160391  0.07006656  0.56386588  1
  Zn  Zn137  1  0.81305306  0.56260461  0.06513071  1
  Zn  Zn138  1  0.81226723  0.56250482  0.56285465  1
  Zn  Zn139  1  0.43941886  0.44079055  0.18800121  1
  Zn  Zn140  1  0.44415339  0.43859024  0.68164432  1
  Zn  Zn141  1  0.43699998  0.93375906  0.18731944  1
  Zn  Zn142  1  0.43894621  0.93304578  0.68591177  1
  Zn  Zn143  1  0.93672158  0.43511883  0.18582139  1
  Zn  Zn144  1  0.93918679  0.44094661  0.68598448  1
  Zn  Zn145  1  0.93897008  0.93545471  0.18633068  1
  Zn  Zn146  1  0.94379878  0.93572951  0.68984288  1
  Zn  Zn147  1  0.06042909  0.05839766  0.30566825  1
  Zn  Zn148  1  0.06817995  0.06636611  0.81598774  1
  Zn  Zn149  1  0.06180204  0.56289331  0.31280384  1
  Zn  Zn150  1  0.06543462  0.56288416  0.80628711  1
  Zn  Zn151  1  0.56176096  0.06078958  0.31172918  1
  Zn  Zn152  1  0.56038403  0.06506909  0.80856422  1
  Zn  Zn153  1  0.56430320  0.56586106  0.31049319  1
  Zn  Zn154  1  0.56027508  0.55945097  0.80976954  1
  Zn  Zn155  1  0.43479020  0.18859801  0.43779718  1
  Zn  Zn156  1  0.41131061  0.17401102  0.94978088  1
  Zn  Zn157  1  0.43168459  0.69028840  0.43944632  1
  Zn  Zn158  1  0.44398160  0.69280060  0.93701390  1
  Zn  Zn159  1  0.93306573  0.19095086  0.43919019  1
  Zn  Zn160  1  0.93892228  0.18959921  0.93475464  1
  Zn  Zn161  1  0.93506978  0.68614257  0.43771647  1
  Zn  Zn162  1  0.92979376  0.68644819  0.94295585  1
  Zn  Zn163  1  0.05748717  0.31066108  0.06828751  1
  Zn  Zn164  1  0.06467585  0.31491367  0.55692532  1
  Zn  Zn165  1  0.05876262  0.81283145  0.06339243  1
  Zn  Zn166  1  0.06537814  0.81747661  0.57193708  1
  Zn  Zn167  1  0.55843855  0.31118928  0.06251213  1
  Zn  Zn168  1  0.56614561  0.31672520  0.56051067  1
  Zn  Zn169  1  0.56132355  0.80898061  0.06050467  1
  Zn  Zn170  1  0.55718312  0.81567952  0.56171264  1
  O  O171  1  0.11151433  0.11917596  0.12896466  1
  O  O172  1  0.11096608  0.12204144  0.62668039  1
  O  O173  1  0.12003936  0.61575839  0.11634705  1
  O  O174  1  0.10957810  0.63040974  0.62763404  1
  O  O175  1  0.61740937  0.11793633  0.11896812  1
  O  O176  1  0.63172558  0.11125171  0.62380733  1
  O  O177  1  0.62121603  0.61240772  0.11726811  1
  O  O178  1  0.62264264  0.61718054  0.61763899  1
  O  O179  1  0.37317526  0.38573713  0.38084966  1
  O  O180  1  0.38403881  0.36581865  0.88553165  1
  O  O181  1  0.37294121  0.87845532  0.38755422  1
  O  O182  1  0.38518258  0.87235028  0.88191111  1
  O  O183  1  0.88798684  0.37329563  0.37696239  1
  O  O184  1  0.88919036  0.36173214  0.89032518  1
  O  O185  1  0.87968112  0.88293349  0.38205159  1
  O  O186  1  0.87815018  0.88520752  0.88360673  1
  O  O187  1  0.25491299  0.00817960  0.36670001  1
  O  O188  1  0.26235016  0.00651401  0.86121321  1
  O  O189  1  0.25472931  0.51264417  0.37288376  1
  O  O190  1  0.25045003  0.50460540  0.86329238  1
  O  O191  1  0.76123133  -0.00373271  0.36844383  1
  O  O192  1  0.75802604  0.00609318  0.86866116  1
  O  O193  1  0.74258449  0.51150676  0.38405181  1
  O  O194  1  0.76653915  0.48468685  0.89061167  1
  O  O195  1  0.23931973  0.49136381  0.12409324  1
  O  O196  1  0.25139511  0.49688398  0.63519403  1
  O  O197  1  0.24367072  0.99713122  0.12803314  1
  O  O198  1  0.25089287  1.01226539  0.63759829  1
  O  O199  1  0.73239782  0.49898704  0.11821348  1
  O  O200  1  0.73276968  0.50538264  0.62267230  1
  O  O201  1  0.73978461  1.00616487  0.13444675  1
  O  O202  1  0.74582151  0.99545905  0.62964837  1
  O  O203  1  0.00621388  0.36580308  0.25524415  1
  O  O204  1  -0.00113362  0.36886299  0.76028131  1
  O  O205  1  -0.00060509  0.86570361  0.25782982  1
  O  O206  1  -0.01146979  0.85664506  0.75991834  1
  O  O207  1  0.50694628  0.36403832  0.24802607  1
  O  O208  1  0.50444943  0.36856006  0.75766381  1
  O  O209  1  0.50218885  0.86172424  0.25225963  1
  O  O210  1  0.50689863  0.86538100  0.75687608  1
  O  O211  1  0.49547170  0.13371283  0.24257792  1
  O  O212  1  0.50190475  0.14076216  0.74174893  1
  O  O213  1  0.49528249  0.63828154  0.24740957  1
  O  O214  1  0.50181493  0.63966074  0.75235317  1
  O  O215  1  0.99033587  0.13093013  0.24484587  1
  O  O216  1  0.99646522  0.13381859  0.74392051  1
  O  O217  1  0.99590485  0.63157096  0.24608125  1
  O  O218  1  0.99028991  0.63442535  0.74463311  1
  O  O219  1  0.38972378  0.26759417  0.01642148  1
  O  O220  1  0.36840855  0.25865098  0.50578858  1
  O  O221  1  0.36736258  0.75497865  0.00730368  1
  O  O222  1  0.37480504  0.76571583  0.50875318  1
  O  O223  1  0.86759621  0.25213002  0.00673832  1
  O  O224  1  0.86883768  0.25457043  0.50884309  1
  O  O225  1  0.86910182  0.75435568  0.01221933  1
  O  O226  1  0.87073312  0.75515095  0.50967561  1
  O  O227  1  0.13192058  0.24576846  0.50163028  1
  O  O228  1  0.12494249  0.25583960  0.99373340  1
  O  O229  1  0.11555135  0.75529286  0.48970819  1
  O  O230  1  0.13521628  0.73946289  1.00826653  1
  O  O231  1  0.62955153  0.24913448  0.49172581  1
  O  O232  1  0.62939820  0.24165353  0.99785199  1
  O  O233  1  0.62818360  0.74396827  0.49386013  1
  O  O234  1  0.62524772  0.73947505  0.99227953  1
  O  O235  1  0.49463066  0.24152511  0.13463948  1
  O  O236  1  0.48875648  0.26437071  0.63292729  1
  O  O237  1  0.49066001  0.74785884  0.13084576  1
  O  O238  1  0.49595383  0.74925092  0.63359476  1
  O  O239  1  0.99228663  0.23796677  0.13488754  1
  O  O240  1  0.99402889  0.24501731  0.63169027  1
  O  O241  1  0.99267438  0.74342738  0.13436287  1
  O  O242  1  0.98870754  0.74463139  0.62966606  1
  O  O243  1  -0.00379958  0.25673839  0.36408409  1
  O  O244  1  0.01109434  0.25592514  0.86962798  1
  O  O245  1  0.00406116  0.75238774  0.37025301  1
  O  O246  1  -0.00339059  0.74389313  0.86671661  1
  O  O247  1  0.50465417  0.25049878  0.36311852  1
  O  O248  1  0.50558541  0.25945486  0.86415904  1
  O  O249  1  0.50701888  0.74889041  0.36761413  1
  O  O250  1  0.51126714  0.75751513  0.86647288  1
  O  O251  1  0.25004219  0.12290036  0.48145688  1
  O  O252  1  0.30338680  0.13621989  0.97789735  1
  O  O253  1  0.24657268  0.62265324  0.48638503  1
  O  O254  1  0.24353828  0.62928390  0.99295709  1
  O  O255  1  0.74873389  0.14120012  0.49995260  1
  O  O256  1  0.74033329  0.13335100  0.99647330  1
  O  O257  1  0.74015169  0.63053302  0.49254059  1
  O  O258  1  0.73699166  0.62527373  0.99911007  1
  O  O259  1  0.25866706  0.38210112  0.00973846  1
  O  O260  1  0.25906721  0.37892443  0.50850069  1
  O  O261  1  0.25798255  0.86540775  0.00186507  1
  O  O262  1  0.26085083  0.88603253  0.50103134  1
  O  O263  1  0.75637348  0.35757898  0.00055044  1
  O  O264  1  0.74952463  0.35916882  0.49707063  1
  O  O265  1  0.76434496  0.87007159  -0.00190471  1
  O  O266  1  0.75573795  0.86936924  0.50596472  1
  O  O267  1  0.12045046  0.49057182  0.23772782  1
  O  O268  1  0.13674155  0.49844431  0.74436446  1
  O  O269  1  0.13118853  0.99624985  0.23789174  1
  O  O270  1  0.14710092  1.01273188  0.75179608  1
  O  O271  1  0.61640070  0.49253216  0.23481272  1
  O  O272  1  0.62589792  0.49246970  0.74174131  1
  O  O273  1  0.63355123  0.99891385  0.24292798  1
  O  O274  1  0.63101144  0.99555389  0.74310121  1
  O  O275  1  0.36912225  0.00385164  0.25312069  1
  O  O276  1  0.37039886  0.00900629  0.74121616  1
  O  O277  1  0.37185825  0.50188908  0.25910305  1
  O  O278  1  0.36432651  0.49884579  0.74543212  1
  O  O279  1  0.87015209  0.00455466  0.25615942  1
  O  O280  1  0.87102099  0.00569749  0.75741537  1
  O  O281  1  0.86772239  0.49090798  0.24583101  1
  O  O282  1  0.88201175  0.51734765  0.74682868  1
  O  O283  1  0.11823860  0.38246805  0.36156765  1
  O  O284  1  0.11472779  0.36533908  0.87549600  1
  O  O285  1  0.11854183  0.86608086  0.37180768  1
  O  O286  1  0.12308456  0.88008002  0.86531347  1
  O  O287  1  0.62010414  0.36607124  0.36402325  1
  O  O288  1  0.61522381  0.36856389  0.86826760  1
  O  O289  1  0.62432794  0.86067796  0.37330559  1
  O  O290  1  0.62030955  0.86805660  0.87107558  1
  O  O291  1  0.38175167  0.13219352  0.13045811  1
  O  O292  1  0.37285377  0.14018767  0.63004812  1
  O  O293  1  0.37459304  0.63621180  0.12286364  1
  O  O294  1  0.37686337  0.64555223  0.61226160  1
  O  O295  1  0.88544880  0.12862033  0.13328777  1
  O  O296  1  0.88465151  0.13577273  0.63212317  1
  O  O297  1  0.88092481  0.63392319  0.12706190  1
  O  O298  1  0.88115414  0.63499110  0.63229186  1
  O  O299  1  0.26068918  0.25844111  0.13062290  1
  O  O300  1  0.26298799  0.26218610  0.63042379  1
  O  O301  1  0.25585493  0.75364532  0.11602533  1
  O  O302  1  0.26089982  0.75060852  0.63511651  1
  O  O303  1  0.76175458  0.23737351  0.11824378  1
  O  O304  1  0.76180118  0.24653139  0.61901854  1
  O  O305  1  0.76101854  0.74302950  0.13166937  1
  O  O306  1  0.75840556  0.75453544  0.62168956  1
  O  O307  1  0.25554053  0.23532835  0.36870964  1
  O  O308  1  0.23220357  0.25663828  0.86926289  1
  O  O309  1  0.23915432  0.73820764  0.37146408  1
  O  O310  1  0.25549331  0.74103893  0.88517276  1
  O  O311  1  0.74052992  0.25362628  0.37991536  1
  O  O312  1  0.74344965  0.24332626  0.88474232  1
  O  O313  1  0.74018144  0.74516960  0.38118976  1
  O  O314  1  0.73593151  0.75375992  0.87279935  1
  O  O315  1  -0.00515377  0.13005149  0.01616272  1
  O  O316  1  -0.00316920  0.11964425  0.50667199  1
  O  O317  1  0.00523143  0.61727901  0.00389771  1
  O  O318  1  -0.00590161  0.61453499  0.50696301  1
  O  O319  1  0.50786541  0.13226292  0.01080215  1
  O  O320  1  0.49871926  0.10930175  0.49537601  1
  O  O321  1  0.51115453  0.61654874  -0.00318395  1
  O  O322  1  0.51250298  0.63254639  0.49935563  1
  O  O323  1  0.48524377  0.36999442  0.49542212  1
  O  O324  1  0.49503993  0.38162603  0.99177759  1
  O  O325  1  0.49170611  0.88705868  0.49647817  1
  O  O326  1  0.49129656  0.86381124  0.98817462  1
  O  O327  1  0.99764264  0.38403104  0.49090096  1
  O  O328  1  0.99403750  0.38008427  0.99530928  1
  O  O329  1  0.99306253  0.88578646  0.49683365  1
  O  O330  1  0.98287803  0.86708416  0.99851916  1
  O  O331  1  0.48657066  0.50300380  0.36965931  1
  O  O332  1  0.50530908  0.48795042  0.88421862  1
  O  O333  1  0.49298504  0.99694644  0.38031306  1
  O  O334  1  0.50079463  0.98433696  0.86675624  1
  O  O335  1  1.00281983  0.49561642  0.38757961  1
  O  O336  1  1.00771952  0.49001255  0.88583966  1
  O  O337  1  0.99043880  0.99598984  0.38168211  1
  O  O338  1  0.98724726  1.00420562  0.86957494  1
  O  O339  1  0.00636064  0.01199200  0.12865862  1
  O  O340  1  -0.01066804  0.01243638  0.61469251  1
  O  O341  1  0.00933012  0.50172833  0.11458920  1
  O  O342  1  0.00377622  0.51002966  0.61872607  1
  O  O343  1  0.50785405  0.01241967  0.13379384  1
  O  O344  1  0.51271459  -0.00743883  0.61738474  1
  O  O345  1  0.50521608  0.50108140  0.11214003  1
  O  O346  1  0.51589299  0.50704588  0.63051639  1
  O  O347  1  0.24024114  0.37735326  0.23864398  1
  O  O348  1  0.25238509  0.38800125  0.74372166  1
  O  O349  1  0.24906249  0.88016340  0.24069026  1
  O  O350  1  0.25548623  0.89237789  0.75067129  1
  O  O351  1  0.73632566  0.36895885  0.24645688  1
  O  O352  1  0.73840247  0.36721145  0.75440824  1
  O  O353  1  0.75013971  0.88712196  0.25225656  1
  O  O354  1  0.74649917  0.88063000  0.74530866  1
  O  O355  1  0.25534794  0.11986048  0.25526989  1
  O  O356  1  0.26543578  0.12368298  0.75658452  1
  O  O357  1  0.25087830  0.62180879  0.25902427  1
  O  O358  1  0.24883186  0.61404784  0.76024916  1
  O  O359  1  0.76352835  0.11492741  0.24713907  1
  O  O360  1  0.75571235  0.12161713  0.75689828  1
  O  O361  1  0.74798459  0.62415764  0.26888060  1
  O  O362  1  0.76426170  0.62850100  0.74987657  1
  O  O363  1  0.36643561  0.11839785  0.36833695  1
  O  O364  1  0.39862348  0.11933276  0.85037344  1
  O  O365  1  0.36194875  0.62156110  0.37660226  1
  O  O366  1  0.36703688  0.62467982  0.88343095  1
  O  O367  1  0.88197627  0.11493921  0.36582381  1
  O  O368  1  0.87003573  0.12019087  0.87199575  1
  O  O369  1  0.85792149  0.62723395  0.37742390  1
  O  O370  1  0.87143192  0.62813810  0.86275848  1
  O  O371  1  0.12972798  0.38069400  0.12962978  1
  O  O372  1  0.14049724  0.37514834  0.62672776  1
  O  O373  1  0.12980576  0.88341647  0.12361684  1
  O  O374  1  0.10408957  0.89020661  0.64452126  1
  O  O375  1  0.61913079  0.38509613  0.12830989  1
  O  O376  1  0.62164105  0.38719027  0.63335149  1
  O  O377  1  0.61696789  0.88918979  0.12229600  1
  O  O378  1  0.63243112  0.88258768  0.62936493  1
  O  O379  1  0.11425272  0.25913846  0.24095223  1
  O  O380  1  0.11330044  0.25354434  0.74997208  1
  O  O381  1  0.11009429  0.75078122  0.25472324  1
  O  O382  1  0.10577575  0.74754403  0.74794486  1
  O  O383  1  0.61982350  0.25493271  0.25247921  1
  O  O384  1  0.61915708  0.25774632  0.75187373  1
  O  O385  1  0.61689091  0.74856387  0.25674864  1
  O  O386  1  0.61990546  0.75433466  0.75454693  1
  O  O387  1  0.38307939  0.24829445  0.24140956  1
  O  O388  1  0.38392772  0.24601068  0.74251587  1
  O  O389  1  0.38006925  0.75165022  0.24047901  1
  O  O390  1  0.38345715  0.75958325  0.73489422  1
  O  O391  1  0.88075290  0.24323250  0.24418633  1
  O  O392  1  0.88555360  0.24645797  0.74739718  1
  O  O393  1  0.88554155  0.74991754  0.24645068  1
  O  O394  1  0.88214419  0.74234047  0.74376090  1
  O  O395  1  0.37061412  0.49317082  0.49014902  1
  O  O396  1  0.38419953  0.48893096  1.00626071  1
  O  O397  1  0.38135678  0.99106151  0.49781865  1
  O  O398  1  0.37394867  0.98100228  1.00182986  1
  O  O399  1  0.89148540  0.49679248  0.51120649  1
  O  O400  1  0.88748594  0.48864726  1.01245591  1
  O  O401  1  0.87908251  0.99837256  0.49345824  1
  O  O402  1  0.86838657  0.99379487  0.99173368  1
  O  O403  1  0.13618171  0.00112427  0.01061549  1
  O  O404  1  0.11021503  0.00637568  0.49840244  1
  O  O405  1  0.11764088  0.50520829  0.00696278  1
  O  O406  1  0.10755637  0.49650343  0.50687467  1
  O  O407  1  0.63309396  0.01240398  0.00677594  1
  O  O408  1  0.61958658  0.00124914  0.50578765  1
  O  O409  1  0.61550304  0.50231949  0.00870411  1
  O  O410  1  0.62368074  0.50613380  0.51174066  1
  O  O411  1  0.36695149  0.37043321  0.12115607  1
  O  O412  1  0.36800847  0.37217495  0.61728827  1
  O  O413  1  0.37045023  0.86511605  0.11741794  1
  O  O414  1  0.37636780  0.86693694  0.61302168  1
  O  O415  1  0.88622870  0.35728227  0.11234178  1
  O  O416  1  0.88243894  0.36250816  0.62616747  1
  O  O417  1  0.87914463  0.86439363  0.11971662  1
  O  O418  1  0.87093213  0.86735128  0.62228493  1
  O  O419  1  0.13859365  0.12006032  0.36792829  1
  O  O420  1  0.12533939  0.14310092  0.87843539  1
  O  O421  1  0.13392437  0.63150747  0.37274692  1
  O  O422  1  0.13122340  0.61924116  0.88815509  1
  O  O423  1  0.62063432  0.13951591  0.37240273  1
  O  O424  1  0.62708083  0.12875658  0.88215299  1
  O  O425  1  0.63184860  0.63200535  0.38183928  1
  O  O426  1  0.62892386  0.62898772  0.87949803  1
