# generated using pymatgen
data_V85Zn86O256
_symmetry_space_group_name_H-M   'P 1'
_cell_length_a   16.99125029
_cell_length_b   16.97221143
_cell_length_c   16.97972759
_cell_angle_alpha   90.18886141
_cell_angle_beta   89.97779699
_cell_angle_gamma   89.99197056
_symmetry_Int_Tables_number   1
_chemical_formula_structural   V85Zn86O256
_chemical_formula_sum   'V85 Zn86 O256'
_cell_volume   4896.57141252
_cell_formula_units_Z   1
loop_
 _symmetry_equiv_pos_site_id
 _symmetry_equiv_pos_as_xyz
  1  'x, y, z'
loop_
 _atom_site_type_symbol
 _atom_site_label
 _atom_site_symmetry_multiplicity
 _atom_site_fract_x
 _atom_site_fract_y
 _atom_site_fract_z
 _atom_site_occupancy
  V  V0  1  0.24853306  0.13319408  0.37795985  1
  V  V1  1  0.14301360  0.37907086  0.74790227  1
  V  V2  1  0.25190503  0.63102705  0.38059503  1
  V  V3  1  0.50341859  0.49703596  0.49715702  1
  V  V4  1  0.87529810  0.49996992  0.87627910  1
  V  V5  1  0.87714348  0.51591135  0.37076609  1
  V  V6  1  0.13754212  0.24044104  0.88502594  1
  V  V7  1  0.86872380  0.12257304  0.25247205  1
  V  V8  1  0.12158625  0.75162997  0.37654355  1
  V  V9  1  0.50354794  0.61896565  0.62380201  1
  V  V10  1  -0.00314597  0.12394837  0.12074110  1
  V  V11  1  0.00851724  0.74414658  0.75023603  1
  V  V12  1  0.87476455  -0.00049750  0.87030929  1
  V  V13  1  0.37828294  0.49286493  0.37546100  1
  V  V14  1  0.63673980  0.62254569  0.49810506  1
  V  V15  1  0.00478795  0.86617278  0.87609217  1
  V  V16  1  0.12507928  0.50124010  0.12387356  1
  V  V17  1  0.49920038  0.37623331  0.87342216  1
  V  V18  1  0.37526259  0.37629232  0.51002040  1
  V  V19  1  0.62210266  0.62415524  -0.00092263  1
  V  V20  1  0.24827556  0.64296431  0.87874432  1
  V  V21  1  0.50143093  0.87849288  0.87450578  1
  V  V22  1  0.24931925  0.50013364  0.24997306  1
  V  V23  1  0.12787152  0.62967126  0.50292724  1
  V  V24  1  0.63909247  0.74395528  0.37659768  1
  V  V25  1  0.36377014  0.49994221  0.87291841  1
  V  V26  1  0.37039022  0.74956341  0.12147179  1
  V  V27  1  0.49858024  0.49987812  -0.00088931  1
  V  V28  1  0.12022966  0.87577225  0.25428218  1
  V  V29  1  0.88134706  0.24501308  0.62575051  1
  V  V30  1  0.87323972  0.87522119  -0.00119076  1
  V  V31  1  0.62182547  0.11874583  0.00033574  1
  V  V32  1  0.87991233  0.37239187  0.49122096  1
  V  V33  1  0.74931210  0.12356056  0.87107382  1
  V  V34  1  0.37351748  0.62509488  0.25016730  1
  V  V35  1  0.00150600  0.25512981  0.25510271  1
  V  V36  1  0.61997438  0.25282025  0.37691130  1
  V  V37  1  0.75005928  0.62363534  0.87642808  1
  V  V38  1  0.12925881  0.64213341  -0.00405024  1
  V  V39  1  0.00031752  0.50124000  -0.00022699  1
  V  V40  1  0.00579576  0.49306233  0.49616894  1
  V  V41  1  0.87557341  0.74851231  0.13197144  1
  V  V42  1  0.74974461  0.49947324  0.74891808  1
  V  V43  1  0.87602893  0.62852184  0.74449159  1
  V  V44  1  0.61603324  0.12531670  0.51129855  1
  V  V45  1  0.37754849  0.87416702  0.00000429  1
  V  V46  1  0.36825368  0.61971233  0.75001110  1
  V  V47  1  0.74844889  0.75075695  -0.00179440  1
  V  V48  1  0.50028336  0.24610932  0.74528372  1
  V  V49  1  0.17340835  0.05452563  0.06830706  1
  V  V50  1  0.62504268  0.37693474  0.25396375  1
  V  V51  1  0.37258883  0.37358104  -0.00063769  1
  V  V52  1  0.50089718  0.75165190  0.74745675  1
  V  V53  1  0.13761764  0.49718545  0.62787558  1
  V  V54  1  -0.00077354  0.00378384  0.00029113  1
  V  V55  1  0.00019637  0.37263632  0.86699551  1
  V  V56  1  0.00118312  0.62864448  0.13100144  1
  V  V57  1  0.24402926  0.00382117  0.25458366  1
  V  V58  1  0.88068807  0.12456262  0.74547916  1
  V  V59  1  0.37132828  0.12502261  0.75275995  1
  V  V60  1  0.37407489  -0.00138672  0.37679517  1
  V  V61  1  0.25106689  0.25443304  0.50552856  1
  V  V62  1  0.37225986  0.86638187  0.50147531  1
  V  V63  1  0.49778781  0.74966605  0.25196091  1
  V  V64  1  0.74850376  0.37909666  0.62441037  1
  V  V65  1  0.62420680  0.87675616  0.25207289  1
  V  V66  1  0.75076966  0.24960230  -0.00234183  1
  V  V67  1  0.24294743  0.86394952  0.62256638  1
  V  V68  1  0.50245911  0.12151121  0.12360005  1
  V  V69  1  0.37498768  0.00248180  0.87692340  1
  V  V70  1  0.49886597  0.25445390  0.25336935  1
  V  V71  1  0.62223377  0.50004418  0.12497105  1
  V  V72  1  0.37516484  0.24022582  0.62545444  1
  V  V73  1  0.37194167  0.25218291  0.12091324  1
  V  V74  1  0.24973907  -0.00086413  0.75079029  1
  V  V75  1  0.74734121  0.85338920  0.61765435  1
  V  V76  1  0.87494935  0.37741093  -0.00103361  1
  V  V77  1  0.74763916  0.24684728  0.49942478  1
  V  V78  1  0.74823480  0.37564501  0.12577527  1
  V  V79  1  0.49629521  0.00462401  0.51089223  1
  V  V80  1  0.62444052  0.75360760  0.87015664  1
  V  V81  1  0.24434028  0.87137543  0.12185350  1
  V  V82  1  0.24768145  0.37408383  0.12196581  1
  V  V83  1  0.62441351  0.38001717  0.74665443  1
  V  V84  1  0.74768617  0.87783123  0.12490675  1
  Zn  Zn85  1  0.37677132  0.12582763  0.25078369  1
  Zn  Zn86  1  0.87658928  0.25216500  0.12386835  1
  Zn  Zn87  1  0.88021112  -0.00643954  0.38301481  1
  Zn  Zn88  1  0.61866644  -0.01440727  0.63677161  1
  Zn  Zn89  1  0.11453898  0.01216432  0.62825274  1
  Zn  Zn90  1  0.01051985  0.24218089  0.74405563  1
  Zn  Zn91  1  0.87359209  0.87458054  0.49633297  1
  Zn  Zn92  1  -0.00698146  0.75760502  0.25405851  1
  Zn  Zn93  1  0.49603560  0.62443730  0.12239540  1
  Zn  Zn94  1  0.11789512  0.38057693  0.25621021  1
  Zn  Zn95  1  0.37277413  0.74383817  0.61776454  1
  Zn  Zn96  1  0.61644649  -0.00435779  0.12266087  1
  Zn  Zn97  1  0.50240232  0.87495963  0.37945208  1
  Zn  Zn98  1  0.62229400  0.24995610  0.87452110  1
  Zn  Zn99  1  0.74738403  -0.00071481  0.25394244  1
  Zn  Zn100  1  -0.00198841  0.62507820  0.62075705  1
  Zn  Zn101  1  0.12777498  0.87028289  0.75315656  1
  Zn  Zn102  1  0.74504839  0.11669024  0.38103430  1
  Zn  Zn103  1  0.11811059  0.26145718  0.38534032  1
  Zn  Zn104  1  0.11086552  0.12570084  0.51203484  1
  Zn  Zn105  1  0.74481562  0.53130022  0.26968099  1
  Zn  Zn106  1  0.73603040  -0.01902731  0.74825618  1
  Zn  Zn107  1  0.18851171  0.19302539  0.19192386  1
  Zn  Zn108  1  0.18635677  0.18773979  0.68760213  1
  Zn  Zn109  1  0.18505213  0.68731035  0.18964361  1
  Zn  Zn110  1  0.18589499  0.68521127  0.68990942  1
  Zn  Zn111  1  0.68452667  0.19112703  0.18460094  1
  Zn  Zn112  1  0.68955743  0.18870337  0.68831623  1
  Zn  Zn113  1  0.68489228  0.68907666  0.18670185  1
  Zn  Zn114  1  0.68604551  0.68489886  0.68601591  1
  Zn  Zn115  1  0.31130564  0.31660263  0.31176857  1
  Zn  Zn116  1  0.31237157  0.31009253  0.81473789  1
  Zn  Zn117  1  0.30776267  0.81465954  0.31142202  1
  Zn  Zn118  1  0.31807151  0.81219525  0.80785667  1
  Zn  Zn119  1  0.81106948  0.30948205  0.31108071  1
  Zn  Zn120  1  0.81396524  0.31048934  0.81048337  1
  Zn  Zn121  1  0.81446893  0.81956010  0.31907319  1
  Zn  Zn122  1  0.81392775  0.80992508  0.80586928  1
  Zn  Zn123  1  0.19078163  0.43692355  0.43621593  1
  Zn  Zn124  1  0.18364375  0.43717210  0.93891221  1
  Zn  Zn125  1  0.17469616  0.93742691  0.44408756  1
  Zn  Zn126  1  0.19300585  0.92610857  0.93237884  1
  Zn  Zn127  1  0.69270087  0.43896112  0.43603133  1
  Zn  Zn128  1  0.68568313  0.43716170  0.93618678  1
  Zn  Zn129  1  0.69404977  0.94030392  0.44513007  1
  Zn  Zn130  1  0.68570821  0.93829488  0.93504743  1
  Zn  Zn131  1  0.33506398  0.06177375  0.06151890  1
  Zn  Zn132  1  0.27891377  0.04416396  0.54764920  1
  Zn  Zn133  1  0.30905393  0.56318682  0.05897227  1
  Zn  Zn134  1  0.31412505  0.56286322  0.56199003  1
  Zn  Zn135  1  0.81223642  0.06193819  0.06270329  1
  Zn  Zn136  1  0.80844947  0.05015452  0.56910765  1
  Zn  Zn137  1  0.79927318  0.57668071  0.08962214  1
  Zn  Zn138  1  0.81739435  0.55949330  0.56057085  1
  Zn  Zn139  1  0.43771281  0.43668332  0.18793783  1
  Zn  Zn140  1  0.43722930  0.43816089  0.68658536  1
  Zn  Zn141  1  0.43481602  0.93597803  0.19091686  1
  Zn  Zn142  1  0.43218951  0.93451630  0.68715567  1
  Zn  Zn143  1  0.93521832  0.44082480  0.18581440  1
  Zn  Zn144  1  0.93919125  0.43952395  0.68262159  1
  Zn  Zn145  1  0.93655607  0.93968170  0.18649607  1
  Zn  Zn146  1  0.92406866  0.92172427  0.68886840  1
  Zn  Zn147  1  0.06446770  0.07336250  0.31355312  1
  Zn  Zn148  1  0.06568658  0.06028817  0.81210646  1
  Zn  Zn149  1  0.06240116  0.56267291  0.31502285  1
  Zn  Zn150  1  0.06761295  0.56098038  0.81562212  1
  Zn  Zn151  1  0.56067104  0.06551301  0.31683355  1
  Zn  Zn152  1  0.55899202  0.06445802  0.81269139  1
  Zn  Zn153  1  0.56043746  0.56369324  0.31250935  1
  Zn  Zn154  1  0.55998932  0.56198910  0.81276094  1
  Zn  Zn155  1  0.43491907  0.18675323  0.43747705  1
  Zn  Zn156  1  0.43783924  0.18814788  0.93591000  1
  Zn  Zn157  1  0.44322573  0.68377093  0.43477208  1
  Zn  Zn158  1  0.43582054  0.68803348  0.93571098  1
  Zn  Zn159  1  0.93293739  0.18586767  0.43512395  1
  Zn  Zn160  1  0.94113846  0.19020993  0.93358920  1
  Zn  Zn161  1  0.93865725  0.69174577  0.43916162  1
  Zn  Zn162  1  0.93679502  0.68494987  0.94137080  1
  Zn  Zn163  1  0.06317021  0.31194733  0.06195941  1
  Zn  Zn164  1  0.06635995  0.31368297  0.56575866  1
  Zn  Zn165  1  0.06042043  0.81697665  0.06505146  1
  Zn  Zn166  1  0.03353210  0.80609996  0.55174726  1
  Zn  Zn167  1  0.56108569  0.31044285  0.06215173  1
  Zn  Zn168  1  0.56002913  0.31494296  0.56468156  1
  Zn  Zn169  1  0.55939003  0.81108213  0.06043709  1
  Zn  Zn170  1  0.56288800  0.81138217  0.56001947  1
  O  O171  1  0.11761640  0.12026855  0.12676316  1
  O  O172  1  0.11242938  0.12804733  0.62873976  1
  O  O173  1  0.12111661  0.62235213  0.11544412  1
  O  O174  1  0.12481833  0.61700983  0.61814466  1
  O  O175  1  0.61829000  0.12351003  0.11861349  1
  O  O176  1  0.62396121  0.13296657  0.61175014  1
  O  O177  1  0.61737011  0.61917844  0.11560926  1
  O  O178  1  0.61515745  0.62990700  0.60788133  1
  O  O179  1  0.37246229  0.38797236  0.38399351  1
  O  O180  1  0.37868509  0.38204496  0.87864617  1
  O  O181  1  0.36980899  0.88412934  0.38208836  1
  O  O182  1  0.38203413  0.87836678  0.88244095  1
  O  O183  1  0.87014060  0.37290225  0.38916288  1
  O  O184  1  0.88130496  0.37913777  0.87834341  1
  O  O185  1  0.88619490  0.87827219  0.37662031  1
  O  O186  1  0.88121084  0.88291565  0.87884476  1
  O  O187  1  0.25747535  0.00983594  0.37080746  1
  O  O188  1  0.26344609  -0.01295262  0.86269751  1
  O  O189  1  0.26035540  0.51028813  0.37064554  1
  O  O190  1  0.26231501  0.50276388  0.87890496  1
  O  O191  1  0.75116102  0.00306363  0.36852672  1
  O  O192  1  0.75925570  0.00725940  0.87505319  1
  O  O193  1  0.76885461  0.49936745  0.37592665  1
  O  O194  1  0.75464637  0.50437860  0.86976720  1
  O  O195  1  0.24578996  0.49436680  0.13032963  1
  O  O196  1  0.23716403  0.50121578  0.61992004  1
  O  O197  1  0.24329696  0.99794224  0.13018023  1
  O  O198  1  0.25993017  0.98252679  0.64297802  1
  O  O199  1  0.73927816  0.48069628  0.11367766  1
  O  O200  1  0.75748129  0.48529493  0.63003127  1
  O  O201  1  0.74881489  0.98675056  0.12778900  1
  O  O202  1  0.73719477  0.98998974  0.63033318  1
  O  O203  1  -0.00336905  0.35714343  0.23801723  1
  O  O204  1  -0.00053976  0.37425993  0.76011784  1
  O  O205  1  0.01670900  0.87992731  0.24315771  1
  O  O206  1  -0.00280238  0.85921694  0.75864312  1
  O  O207  1  0.51310937  0.36616097  0.24399942  1
  O  O208  1  0.50695540  0.37018781  0.75258332  1
  O  O209  1  0.50710700  0.86675565  0.25123922  1
  O  O210  1  0.48885804  0.86094159  0.76041759  1
  O  O211  1  0.50118111  0.13756822  0.24250980  1
  O  O212  1  0.48767284  0.13865195  0.75715923  1
  O  O213  1  0.49250923  0.63393191  0.24744517  1
  O  O214  1  0.49428529  0.62876420  0.74212615  1
  O  O215  1  0.99017326  0.13166366  0.23970769  1
  O  O216  1  0.98439385  0.12515628  0.75639143  1
  O  O217  1  1.00968396  0.62884626  0.23344090  1
  O  O218  1  0.99469301  0.63192977  0.75753037  1
  O  O219  1  0.38136204  0.25610753  0.01307431  1
  O  O220  1  0.37564122  0.25835894  0.50810189  1
  O  O221  1  0.38021670  0.75857167  0.01214191  1
  O  O222  1  0.38331958  0.76183594  0.49607166  1
  O  O223  1  0.86537823  0.25542226  -0.00037778  1
  O  O224  1  0.86751072  0.25217948  0.50487198  1
  O  O225  1  0.86799725  0.75718518  0.00669065  1
  O  O226  1  0.93120019  0.77586893  0.50771848  1
  O  O227  1  0.13655437  0.24781408  0.50269743  1
  O  O228  1  0.12214238  0.25530919  0.98417542  1
  O  O229  1  0.11662698  0.73790696  0.49350128  1
  O  O230  1  0.12134310  0.74132425  1.00261978  1
  O  O231  1  0.62651747  0.24826754  0.49460228  1
  O  O232  1  0.63542267  0.24176846  0.99898955  1
  O  O233  1  0.61779354  0.73661991  0.48320492  1
  O  O234  1  0.62755707  0.74495602  0.99037171  1
  O  O235  1  0.49356302  0.24418427  0.13400715  1
  O  O236  1  0.49015864  0.25724117  0.63743516  1
  O  O237  1  0.48945063  0.75067973  0.13534932  1
  O  O238  1  0.49861848  0.73854811  0.63212831  1
  O  O239  1  0.99891344  0.23752246  0.12843217  1
  O  O240  1  0.98467639  0.25387657  0.62442383  1
  O  O241  1  0.99207283  0.74726897  0.12763507  1
  O  O242  1  1.00518265  0.74325475  0.64786562  1
  O  O243  1  -0.00081365  0.24466392  0.35846838  1
  O  O244  1  0.00718429  0.26140367  0.87116125  1
  O  O245  1  0.01911405  0.73715337  0.36453752  1
  O  O246  1  -0.00702954  0.75941224  0.87174646  1
  O  O247  1  0.50745818  0.24698178  0.36518400  1
  O  O248  1  0.49789373  0.25862632  0.86362451  1
  O  O249  1  0.50518862  0.75116388  0.36185990  1
  O  O250  1  0.50588443  0.75563833  0.86836631  1
  O  O251  1  0.26265570  0.14301826  0.49049209  1
  O  O252  1  0.23673643  0.10835619  1.01546290  1
  O  O253  1  0.24113968  0.62008047  0.49108304  1
  O  O254  1  0.24127331  0.62387010  0.99152489  1
  O  O255  1  0.73871998  0.13800022  0.50229023  1
  O  O256  1  0.74555185  0.13125079  0.99284859  1
  O  O257  1  0.73489090  0.61785252  0.50555950  1
  O  O258  1  0.74258675  0.63105488  0.99651164  1
  O  O259  1  0.25583495  0.38204218  0.01455153  1
  O  O260  1  0.26329196  0.36486110  0.49651526  1
  O  O261  1  0.26041264  0.87845639  0.01245490  1
  O  O262  1  0.25870661  0.87861156  0.51540375  1
  O  O263  1  0.75247193  0.36572100  0.00288191  1
  O  O264  1  0.75521485  0.36674423  0.50677020  1
  O  O265  1  0.75239836  0.87142635  0.00591608  1
  O  O266  1  0.74795025  0.86644763  0.50973523  1
  O  O267  1  0.13088384  0.50170631  0.24210144  1
  O  O268  1  0.12099161  0.48758649  0.74321339  1
  O  O269  1  0.13646074  0.99433222  0.26200443  1
  O  O270  1  0.13533040  0.99453195  0.74797293  1
  O  O271  1  0.62768264  0.49280124  0.24774376  1
  O  O272  1  0.63089621  0.48831894  0.75426742  1
  O  O273  1  0.62096991  0.98700204  0.24970129  1
  O  O274  1  0.62545837  1.00726898  0.74874599  1
  O  O275  1  0.36202197  -0.00122601  0.25828577  1
  O  O276  1  0.37197764  0.00700868  0.75754157  1
  O  O277  1  0.37221129  0.50415055  0.25758156  1
  O  O278  1  0.38278252  0.51037488  0.75986512  1
  O  O279  1  0.87785686  0.01489288  0.25249432  1
  O  O280  1  0.87555944  0.00606716  0.75997655  1
  O  O281  1  0.88195809  0.49565754  0.26987833  1
  O  O282  1  0.87012962  0.50579009  0.75702160  1
  O  O283  1  0.13297468  0.37156803  0.36741872  1
  O  O284  1  0.11914838  0.37402959  0.86328953  1
  O  O285  1  0.13485294  0.86388113  0.36923571  1
  O  O286  1  0.10904368  0.88025475  0.87315857  1
  O  O287  1  0.63230241  0.36546702  0.36563703  1
  O  O288  1  0.61928157  0.37213345  0.86446594  1
  O  O289  1  0.62441177  0.86031016  0.36675629  1
  O  O290  1  0.61481769  0.86417364  0.88147217  1
  O  O291  1  0.38387940  0.13570129  0.12905983  1
  O  O292  1  0.37625635  0.13650599  0.63670217  1
  O  O293  1  0.37281754  0.63367654  0.13019176  1
  O  O294  1  0.38205978  0.62472118  0.63234663  1
  O  O295  1  0.88133677  0.12683393  0.13192136  1
  O  O296  1  0.86283085  0.13392207  0.63578033  1
  O  O297  1  0.89276239  0.63912787  0.10928635  1
  O  O298  1  0.87996465  0.61425341  0.63970158  1
  O  O299  1  0.26187740  0.25949090  0.13340844  1
  O  O300  1  0.26211488  0.24753780  0.61575187  1
  O  O301  1  0.26199949  0.75980151  0.13558904  1
  O  O302  1  0.25474766  0.75971480  0.63286311  1
  O  O303  1  0.74967259  0.25940320  0.11410446  1
  O  O304  1  0.75787951  0.25906962  0.61708996  1
  O  O305  1  0.75479815  0.76177919  0.11735380  1
  O  O306  1  0.74769927  0.75209968  0.62290865  1
  O  O307  1  0.25889225  0.24509465  0.38385867  1
  O  O308  1  0.23777235  0.25220352  0.87491780  1
  O  O309  1  0.24256083  0.73736426  0.36967885  1
  O  O310  1  0.25631986  0.74232400  0.87604803  1
  O  O311  1  0.73963592  0.24880521  0.38545208  1
  O  O312  1  0.75021137  0.24149444  0.88298056  1
  O  O313  1  0.73702139  0.74631638  0.36579192  1
  O  O314  1  0.74224762  0.74542622  0.87853578  1
  O  O315  1  -0.00647631  0.11521825  0.00607360  1
  O  O316  1  0.00301082  0.09984862  0.46587600  1
  O  O317  1  0.01110267  0.62037901  0.00452466  1
  O  O318  1  0.01412550  0.61271931  0.50075841  1
  O  O319  1  0.51105523  0.13526933  0.01035859  1
  O  O320  1  0.50379047  0.11640597  0.49588168  1
  O  O321  1  0.50384713  0.61854160  -0.00146728  1
  O  O322  1  0.50342599  0.61575242  0.50666259  1
  O  O323  1  0.49343383  0.38832920  0.50442783  1
  O  O324  1  0.49411329  0.37906480  0.99395327  1
  O  O325  1  0.49053937  0.88494857  0.49700118  1
  O  O326  1  0.48978337  0.87085436  0.98910075  1
  O  O327  1  0.99190556  0.38154700  0.50521073  1
  O  O328  1  0.99459302  0.38053354  0.99164129  1
  O  O329  1  1.00955530  0.92132516  0.54107200  1
  O  O330  1  0.99407148  0.88436146  0.99573300  1
  O  O331  1  0.48767552  0.50895321  0.38418051  1
  O  O332  1  0.49004717  0.49509735  0.88006480  1
  O  O333  1  0.48619362  0.99904543  0.38029631  1
  O  O334  1  0.48833649  0.98762694  0.86817537  1
  O  O335  1  0.99270748  0.50257036  0.38672194  1
  O  O336  1  0.99579103  0.49137735  0.87977126  1
  O  O337  1  1.00148399  1.03931878  0.40415968  1
  O  O338  1  0.99222769  0.99397487  0.88265652  1
  O  O339  1  -0.00443107  0.00918186  0.11189040  1
  O  O340  1  0.00793896  -0.03758254  0.61218154  1
  O  O341  1  0.00388050  0.50913830  0.12007284  1
  O  O342  1  0.01012641  0.50123568  0.61322533  1
  O  O343  1  0.49506025  0.01648086  0.13223178  1
  O  O344  1  0.49802742  -0.00443218  0.61393624  1
  O  O345  1  0.50469689  0.50029453  0.11826797  1
  O  O346  1  0.49692655  0.51031936  0.61480988  1
  O  O347  1  0.25234773  0.38303801  0.23666569  1
  O  O348  1  0.24116732  0.37878500  0.75280640  1
  O  O349  1  0.24396281  0.88607005  0.24138053  1
  O  O350  1  0.25130831  0.87812103  0.74220348  1
  O  O351  1  0.73946643  0.36866877  0.23914095  1
  O  O352  1  0.74400342  0.37755372  0.74396511  1
  O  O353  1  0.73834820  0.87209481  0.24030084  1
  O  O354  1  0.75316842  0.86833203  0.73494234  1
  O  O355  1  0.25225737  0.11897594  0.25648795  1
  O  O356  1  0.26292170  0.11489040  0.74688307  1
  O  O357  1  0.25476435  0.61937438  0.25841195  1
  O  O358  1  0.26209201  0.62911321  0.75906193  1
  O  O359  1  0.76208145  0.12624536  0.24090164  1
  O  O360  1  0.75846691  0.13032173  0.76331307  1
  O  O361  1  0.76295837  0.61222967  0.19928415  1
  O  O362  1  0.75602730  0.61940169  0.75515096  1
  O  O363  1  0.36799569  0.11624304  0.37134440  1
  O  O364  1  0.37926961  0.11323736  0.86943795  1
  O  O365  1  0.36810911  0.61871142  0.37130502  1
  O  O366  1  0.36731522  0.61865857  0.87064877  1
  O  O367  1  0.86543623  0.13017566  0.35767731  1
  O  O368  1  0.86806797  0.11816563  0.87008177  1
  O  O369  1  0.87953995  0.61536548  0.38034489  1
  O  O370  1  0.86789766  0.61857942  0.87047393  1
  O  O371  1  0.13282295  0.38070848  0.12784539  1
  O  O372  1  0.12259593  0.38036596  0.64133927  1
  O  O373  1  0.13717902  0.87052907  0.13454010  1
  O  O374  1  0.14124007  0.86961583  0.62692900  1
  O  O375  1  0.62940424  0.37781011  0.13276095  1
  O  O376  1  0.63637946  0.36838993  0.63492921  1
  O  O377  1  0.62962511  0.87347398  0.13150358  1
  O  O378  1  0.63579929  0.86981753  0.62085552  1
  O  O379  1  0.10817792  0.24890527  0.24909791  1
  O  O380  1  0.12592712  0.26596719  0.75662917  1
  O  O381  1  0.12770030  0.76121059  0.25778193  1
  O  O382  1  0.11255543  0.74666036  0.75862444  1
  O  O383  1  0.61883943  0.25635396  0.25717571  1
  O  O384  1  0.61655464  0.25821259  0.75092959  1
  O  O385  1  0.61745620  0.75364361  0.25636193  1
  O  O386  1  0.61275932  0.73851763  0.76148652  1
  O  O387  1  0.38482505  0.25374935  0.24190138  1
  O  O388  1  0.37888651  0.24511753  0.74494013  1
  O  O389  1  0.38083232  0.74784813  0.24416047  1
  O  O390  1  0.38766741  0.73525799  0.75158813  1
  O  O391  1  0.88327994  0.24078678  0.24537309  1
  O  O392  1  0.87630037  0.24256999  0.74142071  1
  O  O393  1  0.87349583  0.75751233  0.23480078  1
  O  O394  1  0.88677311  0.73439517  0.75879115  1
  O  O395  1  0.38158129  0.49419411  0.49491582  1
  O  O396  1  0.37955796  0.49460123  0.99214752  1
  O  O397  1  0.37686570  0.99273067  0.49336194  1
  O  O398  1  0.37440424  0.98731289  0.98941762  1
  O  O399  1  0.88446860  0.49205383  0.49139431  1
  O  O400  1  0.88116219  0.49492361  0.99393568  1
  O  O401  1  0.86817664  0.99419206  0.49619737  1
  O  O402  1  0.88029313  0.99609409  0.99034409  1
  O  O403  1  0.11853158  -0.00401831  0.00155175  1
  O  O404  1  0.16347722  0.01872539  0.51814427  1
  O  O405  1  0.11773968  0.50462228  0.00722103  1
  O  O406  1  0.12184792  0.50355387  0.50589091  1
  O  O407  1  0.62971964  0.01395804  0.00287629  1
  O  O408  1  0.61119316  0.01077464  0.49719691  1
  O  O409  1  0.61758436  0.50369394  0.00341868  1
  O  O410  1  0.61624728  0.51313222  0.48557090  1
  O  O411  1  0.36898905  0.36988370  0.12011239  1
  O  O412  1  0.37714558  0.36842866  0.61555572  1
  O  O413  1  0.36763570  0.87077217  0.11968351  1
  O  O414  1  0.36869211  0.86764995  0.61684992  1
  O  O415  1  0.86433669  0.37516504  0.11833878  1
  O  O416  1  0.86701911  0.36671861  0.61600114  1
  O  O417  1  0.86723913  0.87006197  0.11947508  1
  O  O418  1  0.85428485  0.87467238  0.61738191  1
  O  O419  1  0.14249759  0.13714464  0.37559454  1
  O  O420  1  0.11979904  0.14211139  0.86876720  1
  O  O421  1  0.13480250  0.62856666  0.38278364  1
  O  O422  1  0.13778600  0.61918516  0.88403156  1
  O  O423  1  0.62531678  0.13822973  0.38356546  1
  O  O424  1  0.63291515  0.12770607  0.88367440  1
  O  O425  1  0.62409001  0.63403694  0.38072286  1
  O  O426  1  0.62971869  0.63184254  0.87951315  1
