# generated using pymatgen
data_V85Zn86O256
_symmetry_space_group_name_H-M   'P 1'
_cell_length_a   16.92718841
_cell_length_b   16.96269416
_cell_length_c   16.96031949
_cell_angle_alpha   89.93541729
_cell_angle_beta   89.92544833
_cell_angle_gamma   90.17792207
_symmetry_Int_Tables_number   1
_chemical_formula_structural   V85Zn86O256
_chemical_formula_sum   'V85 Zn86 O256'
_cell_volume   4869.79802918
_cell_formula_units_Z   1
loop_
 _symmetry_equiv_pos_site_id
 _symmetry_equiv_pos_as_xyz
  1  'x, y, z'
loop_
 _atom_site_type_symbol
 _atom_site_label
 _atom_site_symmetry_multiplicity
 _atom_site_fract_x
 _atom_site_fract_y
 _atom_site_fract_z
 _atom_site_occupancy
  V  V0  1  0.24953461  0.12307564  0.38202586  1
  V  V1  1  0.00109427  0.24686965  0.25188068  1
  V  V2  1  0.87520062  0.75011126  0.63843509  1
  V  V3  1  0.87551044  0.37754937  0.49734030  1
  V  V4  1  -0.00605341  0.74656546  0.24920752  1
  V  V5  1  0.25375465  0.50611729  0.75115405  1
  V  V6  1  0.37563573  0.62344957  0.23925395  1
  V  V7  1  0.62330163  0.50032798  0.11387802  1
  V  V8  1  0.87752485  0.25081826  0.62462722  1
  V  V9  1  0.12720595  0.24597253  0.38227983  1
  V  V10  1  0.00456831  0.12562282  0.62570004  1
  V  V11  1  0.12462365  0.75009284  0.37392153  1
  V  V12  1  0.74342119  0.62714919  0.87632586  1
  V  V13  1  0.50078264  0.37424126  0.37313735  1
  V  V14  1  0.24777266  0.11935269  0.87636526  1
  V  V15  1  0.26254934  0.75326006  0.00874477  1
  V  V16  1  0.37397289  0.37077068  0.49821514  1
  V  V17  1  0.87275344  0.49459700  0.87753405  1
  V  V18  1  0.62320701  0.62505976  0.49925263  1
  V  V19  1  0.87520193  0.50615765  0.36640755  1
  V  V20  1  0.62786929  0.37581648  0.24713896  1
  V  V21  1  0.75846344  0.12477361  0.36990957  1
  V  V22  1  0.25094067  0.37142024  0.62580131  1
  V  V23  1  0.12834458  0.88401981  0.23929034  1
  V  V24  1  0.75671074  0.36983194  0.11605113  1
  V  V25  1  0.50223937  0.00260894  0.50755745  1
  V  V26  1  0.61752757  0.36958009  0.74649452  1
  V  V27  1  0.25062751  0.75028914  0.49888481  1
  V  V28  1  0.74978612  0.37711404  0.62175325  1
  V  V29  1  0.62635296  0.24970546  0.37199038  1
  V  V30  1  0.49712312  0.36742227  0.87145220  1
  V  V31  1  0.13254996  0.49916442  0.12934073  1
  V  V32  1  0.12934983  0.24845077  0.88531319  1
  V  V33  1  -0.00161330  0.87603118  0.37598129  1
  V  V34  1  -0.01407054  0.86115851  0.87622092  1
  V  V35  1  0.74193674  0.74643902  -0.00040010  1
  V  V36  1  -0.00169005  0.37461349  0.87799724  1
  V  V37  1  0.50150094  0.12326617  0.11795019  1
  V  V38  1  0.38431303  0.12903861  0.75063272  1
  V  V39  1  0.37444649  0.50494566  0.87411224  1
  V  V40  1  0.24746912  0.63386070  0.87405992  1
  V  V41  1  0.74904725  0.50190145  0.74879967  1
  V  V42  1  0.75945589  0.00438657  0.24929409  1
  V  V43  1  0.12375329  0.50102541  0.62579850  1
  V  V44  1  -0.00731723  -0.00605054  -0.00175496  1
  V  V45  1  0.36873814  0.24739762  0.11891761  1
  V  V46  1  0.61781121  0.88652007  0.74487193  1
  V  V47  1  -0.00149307  0.63130630  0.63153782  1
  V  V48  1  0.75285394  0.75176388  0.50272265  1
  V  V49  1  0.36788114  0.36883525  -0.00151028  1
  V  V50  1  -0.00033761  0.24846730  0.75168336  1
  V  V51  1  -0.00165615  0.50098041  0.49951913  1
  V  V52  1  0.25042495  0.61712523  0.36815328  1
  V  V53  1  0.26186024  0.88125679  0.12579536  1
  V  V54  1  0.87094709  0.75152476  0.12166959  1
  V  V55  1  0.39328543  -0.00983235  0.88381648  1
  V  V56  1  -0.00383123  0.11779460  0.13060312  1
  V  V57  1  0.62690327  0.87940683  0.25283857  1
  V  V58  1  0.75173901  0.25029925  0.49648568  1
  V  V59  1  0.61789472  0.75099206  0.87437617  1
  V  V60  1  0.75252943  0.87711798  0.11342065  1
  V  V61  1  0.13012472  0.11734481  0.01067822  1
  V  V62  1  -0.00873547  0.62348846  0.12785628  1
  V  V63  1  0.37455381  0.87563223  0.50317205  1
  V  V64  1  0.00615781  0.00437228  0.50055598  1
  V  V65  1  0.74791404  0.88747573  0.63291185  1
  V  V66  1  0.11893872  0.86033398  0.76157148  1
  V  V67  1  0.63315404  0.12921325  -0.00387400  1
  V  V68  1  0.12440132  0.62644383  0.49924046  1
  V  V69  1  -0.00504320  0.49500989  0.00110734  1
  V  V70  1  0.37168644  -0.00189353  0.36953099  1
  V  V71  1  0.62911553  0.24565756  0.87296813  1
  V  V72  1  0.87890378  0.25091002  0.12325171  1
  V  V73  1  0.62340315  0.00063956  0.11571273  1
  V  V74  1  0.62437823  0.50136923  0.62216023  1
  V  V75  1  0.37143696  0.12129375  0.24846556  1
  V  V76  1  0.75292737  0.62820367  0.36283224  1
  V  V77  1  0.12170766  0.63377233  -0.00307871  1
  V  V78  1  0.49657016  0.74473112  0.74911973  1
  V  V79  1  0.49907687  0.49945239  0.49613231  1
  V  V80  1  0.62508014  0.12037280  0.50232692  1
  V  V81  1  0.62275852  0.75341536  0.37538140  1
  V  V82  1  0.12477043  -0.00035927  0.63108083  1
  V  V83  1  0.37476220  0.74250205  0.62722020  1
  V  V84  1  0.12528594  0.37429592  0.75359834  1
  Zn  Zn85  1  0.24993198  -0.00399054  0.75455748  1
  Zn  Zn86  1  0.25390877  0.37554923  0.12920995  1
  Zn  Zn87  1  0.49948012  0.63108272  0.11512228  1
  Zn  Zn88  1  0.49893396  0.87647353  0.37432768  1
  Zn  Zn89  1  0.49986978  0.24946019  0.24745126  1
  Zn  Zn90  1  0.77190383  0.24664530  -0.01573841  1
  Zn  Zn91  1  0.87541803  0.87872447  0.50513693  1
  Zn  Zn92  1  0.87930220  0.62820230  0.75476196  1
  Zn  Zn93  1  0.13594158  0.37873785  0.25681981  1
  Zn  Zn94  1  0.86136575  0.01456805  0.87693719  1
  Zn  Zn95  1  0.38651241  0.25138981  0.63560517  1
  Zn  Zn96  1  0.00220867  0.37590415  0.37216864  1
  Zn  Zn97  1  0.49188178  0.75342311  0.24118295  1
  Zn  Zn98  1  0.51220727  0.12770121  0.63724542  1
  Zn  Zn99  1  0.36659233  0.49248093  0.36390738  1
  Zn  Zn100  1  0.24602630  0.24224730  0.50744678  1
  Zn  Zn101  1  0.49556894  0.62194160  0.62561275  1
  Zn  Zn102  1  0.24507691  0.87313462  0.63066491  1
  Zn  Zn103  1  0.50349392  0.50648423  -0.00735920  1
  Zn  Zn104  1  0.88121662  0.00518277  0.37287837  1
  Zn  Zn105  1  0.85906476  0.12379614  0.75842349  1
  Zn  Zn106  1  0.75489239  0.50608041  0.24192532  1
  Zn  Zn107  1  0.18850053  0.18652222  0.19371773  1
  Zn  Zn108  1  0.18700624  0.18496204  0.69412906  1
  Zn  Zn109  1  0.18492151  0.68864685  0.18741463  1
  Zn  Zn110  1  0.18750730  0.68892927  0.68647215  1
  Zn  Zn111  1  0.69015462  0.18822308  0.18597469  1
  Zn  Zn112  1  0.68797845  0.19084856  0.68429642  1
  Zn  Zn113  1  0.66638081  0.69625922  0.17855196  1
  Zn  Zn114  1  0.68658094  0.68978503  0.68952750  1
  Zn  Zn115  1  0.31026401  0.30833232  0.30705678  1
  Zn  Zn116  1  0.30895666  0.31031941  0.81519013  1
  Zn  Zn117  1  0.31215187  0.80810422  0.30945451  1
  Zn  Zn118  1  0.31149541  0.81532080  0.81326984  1
  Zn  Zn119  1  0.81617303  0.31440287  0.30769859  1
  Zn  Zn120  1  0.81146714  0.31309480  0.80655603  1
  Zn  Zn121  1  0.81171223  0.81435535  0.30909594  1
  Zn  Zn122  1  0.76695000  0.87345293  0.85665550  1
  Zn  Zn123  1  0.18445459  0.43458741  0.43922402  1
  Zn  Zn124  1  0.18592123  0.44100231  0.94253003  1
  Zn  Zn125  1  0.18681266  0.93701106  0.43677820  1
  Zn  Zn126  1  0.18403068  0.93493082  0.94110990  1
  Zn  Zn127  1  0.68928162  0.44051927  0.43335424  1
  Zn  Zn128  1  0.68981825  0.42947896  0.93485533  1
  Zn  Zn129  1  0.69057165  0.93991025  0.43961022  1
  Zn  Zn130  1  0.56492726  0.93273694  0.93550471  1
  Zn  Zn131  1  0.31411949  0.05814738  0.06003851  1
  Zn  Zn132  1  0.31296431  0.05907902  0.56619023  1
  Zn  Zn133  1  0.31627292  0.56464684  0.05494581  1
  Zn  Zn134  1  0.31098014  0.55941218  0.55651244  1
  Zn  Zn135  1  0.81418234  0.06516669  0.06091301  1
  Zn  Zn136  1  0.81883503  0.06550743  0.56125608  1
  Zn  Zn137  1  0.80829995  0.56194557  0.06153069  1
  Zn  Zn138  1  0.81279689  0.56611625  0.55845659  1
  Zn  Zn139  1  0.43692870  0.43883640  0.18705913  1
  Zn  Zn140  1  0.43681110  0.43901195  0.68571121  1
  Zn  Zn141  1  0.44169606  0.93689367  0.18154346  1
  Zn  Zn142  1  0.43671404  0.94293070  0.69458016  1
  Zn  Zn143  1  0.94266335  0.43150129  0.18982997  1
  Zn  Zn144  1  0.93689872  0.43909763  0.68948177  1
  Zn  Zn145  1  0.93859632  0.93431814  0.18476457  1
  Zn  Zn146  1  0.93379602  0.93760997  0.69650265  1
  Zn  Zn147  1  0.06871498  0.06281744  0.31173732  1
  Zn  Zn148  1  0.05672079  0.05953979  0.81352510  1
  Zn  Zn149  1  0.06186254  0.56390042  0.31177860  1
  Zn  Zn150  1  0.06471108  0.56309664  0.81353479  1
  Zn  Zn151  1  0.56070529  0.06277580  0.31289314  1
  Zn  Zn152  1  0.69423683  0.05446493  0.81842543  1
  Zn  Zn153  1  0.56117787  0.56146835  0.30812577  1
  Zn  Zn154  1  0.56053819  0.56239887  0.80989847  1
  Zn  Zn155  1  0.43810129  0.18831602  0.43841339  1
  Zn  Zn156  1  0.44029343  0.18199070  0.93472145  1
  Zn  Zn157  1  0.43522475  0.68498480  0.43241666  1
  Zn  Zn158  1  0.43850705  0.68928115  0.93816078  1
  Zn  Zn159  1  0.94132275  0.18718532  0.44044890  1
  Zn  Zn160  1  0.94415787  0.18359092  0.94001067  1
  Zn  Zn161  1  0.93577192  0.68821113  0.44100669  1
  Zn  Zn162  1  0.92872656  0.68314549  0.94140570  1
  Zn  Zn163  1  0.06284913  0.31123377  0.06451658  1
  Zn  Zn164  1  0.06298839  0.31442009  0.56141505  1
  Zn  Zn165  1  0.06215961  0.81263353  0.06082801  1
  Zn  Zn166  1  0.06223549  0.81471448  0.56485909  1
  Zn  Zn167  1  0.55789571  0.31247942  0.05725243  1
  Zn  Zn168  1  0.56094690  0.30759852  0.56046330  1
  Zn  Zn169  1  0.55337603  0.80558695  0.06513895  1
  Zn  Zn170  1  0.56073747  0.81442571  0.56440531  1
  O  O171  1  0.11945036  0.13056407  0.11496981  1
  O  O172  1  0.11586639  0.11538831  0.63065690  1
  O  O173  1  0.11288555  0.61753189  0.11800131  1
  O  O174  1  0.11850885  0.62151064  0.61931075  1
  O  O175  1  0.62005603  0.12059048  0.12001600  1
  O  O176  1  0.62863404  0.12937777  0.60537653  1
  O  O177  1  0.64032703  0.59865856  0.12584541  1
  O  O178  1  0.62539680  0.61871068  0.61660491  1
  O  O179  1  0.37959150  0.37385959  0.38133833  1
  O  O180  1  0.37858672  0.37922438  0.87877781  1
  O  O181  1  0.37432370  0.88054836  0.38241626  1
  O  O182  1  0.36962180  0.89246105  0.87109764  1
  O  O183  1  0.87674866  0.38550027  0.38021077  1
  O  O184  1  0.87907722  0.38726168  0.87082154  1
  O  O185  1  0.88986036  0.87652335  0.37300700  1
  O  O186  1  0.88663119  0.87682577  0.87460903  1
  O  O187  1  0.26243267  0.00655912  0.38107817  1
  O  O188  1  0.24820776  0.01118363  0.87880016  1
  O  O189  1  0.24535657  0.51291972  0.37945697  1
  O  O190  1  0.25475360  0.50578010  0.86874227  1
  O  O191  1  0.75417175  0.00705765  0.36743445  1
  O  O192  1  0.75076122  -0.01728102  0.88420167  1
  O  O193  1  0.75743699  0.51116531  0.37128474  1
  O  O194  1  0.75377611  0.50575585  0.87206616  1
  O  O195  1  0.23314827  0.50777572  0.11676214  1
  O  O196  1  0.24573638  0.49373541  0.63256263  1
  O  O197  1  0.25146593  0.98031449  0.11721540  1
  O  O198  1  0.23649878  0.99517177  0.62654899  1
  O  O199  1  0.74627793  0.48719574  0.12432506  1
  O  O200  1  0.74516843  0.49628247  0.62697975  1
  O  O201  1  0.74535372  0.99590269  0.12987019  1
  O  O202  1  0.75528786  0.98504613  0.61775315  1
  O  O203  1  0.01129506  0.36215710  0.25169439  1
  O  O204  1  0.00625383  0.37080346  0.75703732  1
  O  O205  1  0.00919047  0.86772047  0.25449916  1
  O  O206  1  0.00717430  0.87440510  0.76600273  1
  O  O207  1  0.51029643  0.37362496  0.25448512  1
  O  O208  1  0.50784111  0.38062550  0.75679807  1
  O  O209  1  0.51538576  0.87361647  0.25030230  1
  O  O210  1  0.51209601  0.86434219  0.73701939  1
  O  O211  1  0.49212326  0.12618798  0.24018194  1
  O  O212  1  0.48342974  0.12273987  0.75271371  1
  O  O213  1  0.48716382  0.62547490  0.24757372  1
  O  O214  1  0.50191197  0.63847053  0.74501817  1
  O  O215  1  1.01016911  0.13063147  0.23927885  1
  O  O216  1  1.00323384  0.13435127  0.73994818  1
  O  O217  1  1.00514566  0.63643532  0.23947505  1
  O  O218  1  1.00120388  0.61979963  0.73603465  1
  O  O219  1  0.38209406  0.25746172  0.00526059  1
  O  O220  1  0.37111622  0.26310883  0.50144608  1
  O  O221  1  0.36114356  0.74965777  0.00122169  1
  O  O222  1  0.37267353  0.75822414  0.50467553  1
  O  O223  1  0.88503055  0.25006789  0.01717238  1
  O  O224  1  0.87163937  0.25726061  0.50404628  1
  O  O225  1  0.86141438  0.74570834  0.01439074  1
  O  O226  1  0.86437924  0.75448435  0.50627124  1
  O  O227  1  0.12603357  0.25134819  0.48835311  1
  O  O228  1  0.11460762  0.23578889  0.99228986  1
  O  O229  1  0.12963788  0.74647398  0.49468514  1
  O  O230  1  0.12779569  0.73675395  1.00380030  1
  O  O231  1  0.63334001  0.24343089  0.49016590  1
  O  O232  1  0.62390990  0.24395904  0.98922952  1
  O  O233  1  0.63293526  0.74821780  0.49315973  1
  O  O234  1  0.63362160  0.75339352  0.98699499  1
  O  O235  1  0.49194364  0.23972566  0.12518446  1
  O  O236  1  0.49788975  0.23995799  0.62100875  1
  O  O237  1  0.55104173  0.73009842  0.14449211  1
  O  O238  1  0.49165122  0.74635824  0.62903694  1
  O  O239  1  0.99842610  0.24196902  0.13302295  1
  O  O240  1  0.99916919  0.24452929  0.62953280  1
  O  O241  1  0.99075296  0.74430077  0.12843981  1
  O  O242  1  0.98927641  0.74037877  0.61592494  1
  O  O243  1  0.00907376  0.24555885  0.36828452  1
  O  O244  1  0.00935251  0.25642097  0.87162205  1
  O  O245  1  0.00255695  0.75569609  0.36854313  1
  O  O246  1  -0.00736953  0.76210963  0.88866062  1
  O  O247  1  0.50835668  0.25691532  0.37320353  1
  O  O248  1  0.50920084  0.26102429  0.87623568  1
  O  O249  1  0.51426520  0.75283998  0.37421362  1
  O  O250  1  0.50783588  0.74635288  0.86463392  1
  O  O251  1  0.26160833  0.12678581  0.48762496  1
  O  O252  1  0.23513156  0.12081021  0.99655309  1
  O  O253  1  0.24347599  0.63048644  0.49169126  1
  O  O254  1  0.24267882  0.63596318  0.99469159  1
  O  O255  1  0.74520764  0.12887578  0.49054324  1
  O  O256  1  0.73828439  0.13451098  1.00929391  1
  O  O257  1  0.74350429  0.63540965  0.49140056  1
  O  O258  1  0.75205477  0.63423992  0.98829624  1
  O  O259  1  0.26290106  0.37925683  0.00439623  1
  O  O260  1  0.25671331  0.37638638  0.51132802  1
  O  O261  1  0.23995082  0.86077142  0.01193082  1
  O  O262  1  0.25894284  0.86862344  0.49997940  1
  O  O263  1  0.74830797  0.36524670  0.01205989  1
  O  O264  1  0.75479946  0.37079456  0.50213610  1
  O  O265  1  0.74793230  0.86292639  0.01178328  1
  O  O266  1  0.74933663  0.86683855  0.51078783  1
  O  O267  1  0.11714910  0.50193972  0.23219491  1
  O  O268  1  0.13363692  0.49368001  0.74635919  1
  O  O269  1  0.12453730  0.98260946  0.25128465  1
  O  O270  1  0.12134390  0.99186770  0.74246679  1
  O  O271  1  0.62878396  0.48812874  0.24088484  1
  O  O272  1  0.62902644  0.49155126  0.74308364  1
  O  O273  1  0.63478182  0.99468949  0.24459016  1
  O  O274  1  0.61854753  0.98421578  0.75185928  1
  O  O275  1  0.38342605  0.00698622  0.26016059  1
  O  O276  1  0.36976823  0.01021675  0.76197183  1
  O  O277  1  0.37620172  0.51453613  0.24971176  1
  O  O278  1  0.36282719  0.49405512  0.75901477  1
  O  O279  1  0.86339027  -0.00472042  0.24985368  1
  O  O280  1  0.88545434  0.01111528  0.76205263  1
  O  O281  1  0.87603192  0.49629520  0.26223148  1
  O  O282  1  0.86802171  0.50227984  0.75988878  1
  O  O283  1  0.12265213  0.36369936  0.37521767  1
  O  O284  1  0.12125347  0.36867094  0.87472684  1
  O  O285  1  0.11724521  0.86981436  0.36550789  1
  O  O286  1  0.11546226  0.87668370  0.86602969  1
  O  O287  1  0.62346781  0.37036007  0.36598584  1
  O  O288  1  0.61524464  0.37087964  0.86547482  1
  O  O289  1  0.62626189  0.87152741  0.36966220  1
  O  O290  1  0.62869551  0.86409088  0.85743939  1
  O  O291  1  0.38174168  0.12598754  0.12820328  1
  O  O292  1  0.36662416  0.12521013  0.64341378  1
  O  O293  1  0.37342759  0.62305534  0.13594591  1
  O  O294  1  0.37302004  0.63817305  0.61679134  1
  O  O295  1  0.88827519  0.13298938  0.12439336  1
  O  O296  1  0.88752449  0.13446508  0.62487517  1
  O  O297  1  0.88375885  0.63140738  0.12280171  1
  O  O298  1  0.88239951  0.63148650  0.62496767  1
  O  O299  1  0.26595369  0.24430903  0.12574356  1
  O  O300  1  0.24742691  0.26300431  0.62789318  1
  O  O301  1  0.24688433  0.75287485  0.11290706  1
  O  O302  1  0.25751764  0.75228075  0.61808459  1
  O  O303  1  0.76415896  0.25449135  0.12861326  1
  O  O304  1  0.75648202  0.25860898  0.61545043  1
  O  O305  1  0.75093042  0.75573845  0.11987789  1
  O  O306  1  0.75620414  0.75327025  0.61708568  1
  O  O307  1  0.24368882  0.24062864  0.37759946  1
  O  O308  1  0.23676744  0.23927614  0.87508977  1
  O  O309  1  0.24356107  0.74148969  0.38050951  1
  O  O310  1  0.25506329  0.73990067  0.88490554  1
  O  O311  1  0.74765894  0.24372845  0.37625852  1
  O  O312  1  0.73464648  0.26489205  0.87604362  1
  O  O313  1  0.74687222  0.74776911  0.38413657  1
  O  O314  1  0.74193628  0.74766936  0.88224702  1
  O  O315  1  0.01006163  0.11368003  0.01030943  1
  O  O316  1  -0.00001240  0.11612094  0.51126028  1
  O  O317  1  0.00347958  0.61751304  0.00738685  1
  O  O318  1  0.00549347  0.62056808  0.50803316  1
  O  O319  1  0.51234332  0.12879189  0.01117863  1
  O  O320  1  0.50961986  0.11700430  0.49410776  1
  O  O321  1  0.49333373  0.61852453  0.00363428  1
  O  O322  1  0.50603852  0.61771942  0.49772883  1
  O  O323  1  0.49303152  0.37919157  0.49357159  1
  O  O324  1  0.49030023  0.38094831  0.98654146  1
  O  O325  1  0.49174458  0.88321469  0.49911927  1
  O  O326  1  0.50243450  0.88030717  1.01017342  1
  O  O327  1  0.99343070  0.38348917  0.49889192  1
  O  O328  1  1.00570188  0.38836789  0.99518706  1
  O  O329  1  1.00002706  0.88086607  0.48963901  1
  O  O330  1  1.00778364  0.88654829  0.99183111  1
  O  O331  1  0.50067040  0.49081383  0.38046885  1
  O  O332  1  0.48913129  0.49165256  0.86973929  1
  O  O333  1  0.48849889  0.99887570  0.38384553  1
  O  O334  1  0.49339416  0.99730452  0.87277032  1
  O  O335  1  0.99232243  0.50277160  0.38104318  1
  O  O336  1  0.99274955  0.49689953  0.88137820  1
  O  O337  1  1.00376785  0.99445399  0.38166898  1
  O  O338  1  0.99950379  0.99592369  0.89150491  1
  O  O339  1  -0.00415988  0.00571860  0.11473221  1
  O  O340  1  0.00526085  0.00634575  0.62001326  1
  O  O341  1  0.00150194  0.50646553  0.11812317  1
  O  O342  1  0.00389358  0.50818569  0.61979335  1
  O  O343  1  0.51355121  0.01117859  0.13204173  1
  O  O344  1  0.49195853  0.00831347  0.61147965  1
  O  O345  1  0.51661981  0.49872263  0.12313399  1
  O  O346  1  0.50514718  0.50162423  0.61606785  1
  O  O347  1  0.24860603  0.37486067  0.24220479  1
  O  O348  1  0.24530983  0.38349028  0.74437832  1
  O  O349  1  0.23681563  0.86417974  0.23835136  1
  O  O350  1  0.23255797  0.87721344  0.75201346  1
  O  O351  1  0.74133532  0.37575849  0.24040016  1
  O  O352  1  0.73976910  0.38254299  0.74132850  1
  O  O353  1  0.74384378  0.88491391  0.24351434  1
  O  O354  1  0.73698596  0.87249038  0.73767922  1
  O  O355  1  0.26446030  0.12508494  0.25921401  1
  O  O356  1  0.25015843  0.11936826  0.76432097  1
  O  O357  1  0.25884907  0.63223737  0.25822462  1
  O  O358  1  0.24121695  0.61462322  0.75848826  1
  O  O359  1  0.74368469  0.11550183  0.25869538  1
  O  O360  1  0.74568111  0.12263176  0.74633387  1
  O  O361  1  0.74244812  0.62950020  0.26117100  1
  O  O362  1  0.75112015  0.61949957  0.75950655  1
  O  O363  1  0.37124971  0.11889952  0.36724705  1
  O  O364  1  0.36733979  0.11920839  0.86830822  1
  O  O365  1  0.36475847  0.61873550  0.36922535  1
  O  O366  1  0.36162227  0.61322877  0.87967511  1
  O  O367  1  0.86269055  0.12599714  0.37918661  1
  O  O368  1  0.87064117  0.13219770  0.87628219  1
  O  O369  1  0.86569794  0.61796456  0.38028540  1
  O  O370  1  0.86426943  0.61509787  0.87286797  1
  O  O371  1  0.12686475  0.39172688  0.11887582  1
  O  O372  1  0.13219773  0.38113516  0.63097991  1
  O  O373  1  0.12691578  0.87065773  0.13686948  1
  O  O374  1  0.11885891  0.88155250  0.64018074  1
  O  O375  1  0.63239263  0.37748148  0.12989480  1
  O  O376  1  0.62888316  0.38013919  0.62860521  1
  O  O377  1  0.63652504  0.88548542  0.13453402  1
  O  O378  1  0.63709281  0.87019364  0.63264704  1
  O  O379  1  0.11809984  0.24922341  0.26081897  1
  O  O380  1  0.11973708  0.25595311  0.76174885  1
  O  O381  1  0.11249367  0.75621269  0.25422099  1
  O  O382  1  0.12410322  0.76120581  0.74886828  1
  O  O383  1  0.62486186  0.25941615  0.25327985  1
  O  O384  1  0.62754375  0.26394921  0.75492400  1
  O  O385  1  0.63948921  0.76577300  0.26741845  1
  O  O386  1  0.61590947  0.75532853  0.75518840  1
  O  O387  1  0.37955653  0.23800946  0.23962622  1
  O  O388  1  0.36785209  0.23482280  0.75441364  1
  O  O389  1  0.37923201  0.73326645  0.25698580  1
  O  O390  1  0.38307296  0.76056559  0.73781478  1
  O  O391  1  0.89163121  0.25237419  0.24294258  1
  O  O392  1  0.88300493  0.25253082  0.74073608  1
  O  O393  1  0.88546046  0.75366359  0.24060715  1
  O  O394  1  0.87128828  0.74676019  0.73736058  1
  O  O395  1  0.37972285  0.48636350  0.49728649  1
  O  O396  1  0.37439816  0.48959498  0.98734003  1
  O  O397  1  0.38106230  0.99238091  0.49309897  1
  O  O398  1  0.37823091  1.00986185  0.98245391  1
  O  O399  1  0.87855162  0.49662961  0.49045920  1
  O  O400  1  0.88415540  0.50654146  0.98998654  1
  O  O401  1  0.89090811  0.99679327  0.49716178  1
  O  O402  1  0.88942192  1.00274569  0.99980274  1
  O  O403  1  0.11548514  0.01265643  0.00008390  1
  O  O404  1  0.11407025  -0.01019316  0.51256766  1
  O  O405  1  0.11417682  0.51091065  0.00804297  1
  O  O406  1  0.11905293  0.50621830  0.50695262  1
  O  O407  1  0.62733794  0.01090662  0.01125995  1
  O  O408  1  0.61468652  0.00847899  0.49152367  1
  O  O409  1  0.62549071  0.48816864  0.01053825  1
  O  O410  1  0.62002015  0.50412516  0.50282492  1
  O  O411  1  0.37934236  0.36536549  0.11538491  1
  O  O412  1  0.36632005  0.37397325  0.61892316  1
  O  O413  1  0.36108451  0.87058399  0.13680921  1
  O  O414  1  0.37278202  0.86958612  0.61419682  1
  O  O415  1  0.86756106  0.36587459  0.13180462  1
  O  O416  1  0.87014556  0.37223673  0.61843811  1
  O  O417  1  0.86391465  0.86353237  0.13002363  1
  O  O418  1  0.86352195  0.86816233  0.62781189  1
  O  O419  1  0.13958616  0.13061064  0.37038154  1
  O  O420  1  0.12788491  0.12990224  0.88558857  1
  O  O421  1  0.12961512  0.63082652  0.37883129  1
  O  O422  1  0.13552536  0.61681066  0.88588504  1
  O  O423  1  0.63500503  0.13002225  0.38045650  1
  O  O424  1  0.62732237  0.13532253  0.88394111  1
  O  O425  1  0.63227532  0.63419346  0.37867733  1
  O  O426  1  0.63497028  0.63414138  0.86803097  1
