# generated using pymatgen
data_V85Zn86O256
_symmetry_space_group_name_H-M   'P 1'
_cell_length_a   16.96608861
_cell_length_b   16.96394786
_cell_length_c   16.97625285
_cell_angle_alpha   90.12422019
_cell_angle_beta   90.01634920
_cell_angle_gamma   90.11634735
_symmetry_Int_Tables_number   1
_chemical_formula_structural   V85Zn86O256
_chemical_formula_sum   'V85 Zn86 O256'
_cell_volume   4885.94484941
_cell_formula_units_Z   1
loop_
 _symmetry_equiv_pos_site_id
 _symmetry_equiv_pos_as_xyz
  1  'x, y, z'
loop_
 _atom_site_type_symbol
 _atom_site_label
 _atom_site_symmetry_multiplicity
 _atom_site_fract_x
 _atom_site_fract_y
 _atom_site_fract_z
 _atom_site_occupancy
  V  V0  1  0.63147443  0.75065498  0.88280342  1
  V  V1  1  0.88162062  0.12689530  0.74608988  1
  V  V2  1  0.25007566  0.37679293  0.12528153  1
  V  V3  1  0.00296563  -0.00958517  0.00725252  1
  V  V4  1  0.24928194  0.12369976  0.37411417  1
  V  V5  1  0.37358266  0.24935978  0.12416987  1
  V  V6  1  0.75131671  0.87456370  0.62498233  1
  V  V7  1  0.24834412  0.87977603  0.12759712  1
  V  V8  1  0.50192089  0.37496359  0.87412964  1
  V  V9  1  0.87632894  0.63164652  0.25087350  1
  V  V10  1  0.87475487  0.49222632  0.37795116  1
  V  V11  1  0.49998156  0.24878385  0.74773192  1
  V  V12  1  0.36927513  0.37480496  0.50794026  1
  V  V13  1  0.49960458  0.74841130  0.75287626  1
  V  V14  1  0.86292922  0.75856577  0.10902544  1
  V  V15  1  0.63625663  0.37923581  0.75022996  1
  V  V16  1  0.49839481  0.49930903  0.50289746  1
  V  V17  1  0.87963240  0.24646260  0.62036666  1
  V  V18  1  0.12502495  0.62537612  0.50172961  1
  V  V19  1  0.62061908  -0.00087524  0.61937839  1
  V  V20  1  0.00042872  0.62307132  0.62634499  1
  V  V21  1  0.11787696  0.11984309  0.49934362  1
  V  V22  1  -0.00253298  0.49203924  0.49911903  1
  V  V23  1  0.37830264  0.74678964  0.14397091  1
  V  V24  1  0.12778058  0.48656866  0.62891713  1
  V  V25  1  0.62329065  0.12328027  0.49851751  1
  V  V26  1  0.24615891  0.48258594  0.74697161  1
  V  V27  1  0.50250853  0.50037686  0.00158762  1
  V  V28  1  0.13309212  -0.00551894  0.62069140  1
  V  V29  1  0.25243786  0.62720748  0.37027212  1
  V  V30  1  0.75146774  0.25073946  0.49581628  1
  V  V31  1  0.00858079  0.12235657  0.12325692  1
  V  V32  1  0.51237406  0.12612091  0.12111896  1
  V  V33  1  0.74943792  0.62030960  0.87646155  1
  V  V34  1  0.11953011  0.88166084  0.25163300  1
  V  V35  1  0.88106674  -0.00210199  0.36686044  1
  V  V36  1  0.88287974  0.50247297  0.88299493  1
  V  V37  1  0.24994688  0.75710086  0.50423853  1
  V  V38  1  0.87064779  0.61922571  0.75175309  1
  V  V39  1  0.75296877  0.00165413  0.74894167  1
  V  V40  1  -0.00688532  0.87597247  0.87530359  1
  V  V41  1  0.38426097  0.00072190  0.37793708  1
  V  V42  1  0.75449964  0.37601847  0.61884977  1
  V  V43  1  0.62619504  0.62506287  0.00396012  1
  V  V44  1  0.62656787  0.87469573  0.75189439  1
  V  V45  1  0.12336485  0.37763575  0.25310629  1
  V  V46  1  0.49828504  0.62456409  0.13666774  1
  V  V47  1  0.11683052  0.75348471  0.37476242  1
  V  V48  1  0.50902029  0.00942656  0.00327967  1
  V  V49  1  0.74940612  0.74915202  0.50169620  1
  V  V50  1  0.88561697  0.38423964  0.00114590  1
  V  V51  1  0.62291184  0.25130346  0.37406582  1
  V  V52  1  0.11557165  0.25171254  0.86025621  1
  V  V53  1  0.37402324  0.49676370  0.87337392  1
  V  V54  1  0.25395429  0.74812543  0.00182007  1
  V  V55  1  0.37516810  0.12390555  0.24863730  1
  V  V56  1  0.37177824  0.75485148  0.62673557  1
  V  V57  1  0.24514707  0.24542170  -0.00146219  1
  V  V58  1  0.49783746  0.37543781  0.37504912  1
  V  V59  1  0.24882225  0.25221542  0.50545038  1
  V  V60  1  -0.00079347  0.24889269  0.24851236  1
  V  V61  1  0.49976673  0.87625185  0.88107956  1
  V  V62  1  0.88725118  0.88086237  0.49443317  1
  V  V63  1  0.87554720  0.25180991  0.12063975  1
  V  V64  1  0.13889017  0.88157687  0.74997897  1
  V  V65  1  0.74924687  0.62491882  0.37687989  1
  V  V66  1  0.25073854  0.62284256  0.87290378  1
  V  V67  1  0.62934752  0.24615871  0.87844552  1
  V  V68  1  0.38321141  0.87920237  0.50059291  1
  V  V69  1  0.74357812  0.38080936  0.12351184  1
  V  V70  1  0.50025770  0.62515725  0.62780787  1
  V  V71  1  0.11595080  0.50167766  0.12267539  1
  V  V72  1  0.87551077  0.75025119  0.62477414  1
  V  V73  1  0.74456412  0.49972814  0.24766549  1
  V  V74  1  0.37213341  0.50457360  0.37124692  1
  V  V75  1  0.63031153  0.90971211  0.22282644  1
  V  V76  1  0.00318970  0.75174949  0.75047768  1
  V  V77  1  0.62502173  0.62472842  0.50420718  1
  V  V78  1  0.61665551  0.75211940  0.36772003  1
  V  V79  1  0.62920290  0.49943069  0.62890250  1
  V  V80  1  0.49899920  0.25207514  0.24886830  1
  V  V81  1  0.49968681  0.12352262  0.62266650  1
  V  V82  1  0.12056777  0.62018621  0.00191256  1
  V  V83  1  0.74875012  0.12900042  0.87843683  1
  V  V84  1  0.36754162  0.00375010  0.87237168  1
  Zn  Zn85  1  -0.00481198  0.62641240  0.12187087  1
  Zn  Zn86  1  0.24847386  0.00267928  0.24358879  1
  Zn  Zn87  1  0.36721218  0.11027414  0.73845249  1
  Zn  Zn88  1  0.73847602  0.10331406  0.35408084  1
  Zn  Zn89  1  0.36953978  0.24996786  0.62786016  1
  Zn  Zn90  1  0.24443139  0.12159824  0.86524333  1
  Zn  Zn91  1  0.01183330  0.38067110  0.85534984  1
  Zn  Zn92  1  0.62069907  0.37987896  0.24592770  1
  Zn  Zn93  1  0.37501474  0.87679040  0.00581592  1
  Zn  Zn94  1  0.37503257  0.37394961  -0.00151828  1
  Zn  Zn95  1  -0.00538757  0.75460782  0.24863739  1
  Zn  Zn96  1  0.25168856  0.50918317  0.24699550  1
  Zn  Zn97  1  0.37303820  0.62248140  0.74759036  1
  Zn  Zn98  1  0.12642881  0.75122504  0.87843669  1
  Zn  Zn99  1  0.87518332  -0.00045395  0.87626829  1
  Zn  Zn100  1  0.86882256  0.11401123  0.24443209  1
  Zn  Zn101  1  0.12126409  0.24820081  0.37608127  1
  Zn  Zn102  1  0.12783143  0.11982658  -0.00162835  1
  Zn  Zn103  1  0.75045771  0.25331353  -0.00338744  1
  Zn  Zn104  1  0.50145058  0.87272150  0.36760679  1
  Zn  Zn105  1  -0.00191175  0.11683319  0.62172051  1
  Zn  Zn106  1  -0.00648165  0.36988013  0.37773200  1
  Zn  Zn107  1  0.18746785  0.18946774  0.18864636  1
  Zn  Zn108  1  0.18615422  0.18229873  0.68723084  1
  Zn  Zn109  1  0.18526196  0.69245422  0.18822942  1
  Zn  Zn110  1  0.18687829  0.68389117  0.68716354  1
  Zn  Zn111  1  0.68962220  0.19190504  0.18673182  1
  Zn  Zn112  1  0.69061875  0.18999971  0.68816246  1
  Zn  Zn113  1  0.68814137  0.68932375  0.18669713  1
  Zn  Zn114  1  0.68764256  0.68817531  0.69156107  1
  Zn  Zn115  1  0.31242539  0.31279302  0.31529345  1
  Zn  Zn116  1  0.30984069  0.30192430  0.81230551  1
  Zn  Zn117  1  0.30740173  0.81685174  0.31708605  1
  Zn  Zn118  1  0.31630349  0.81107501  0.81690418  1
  Zn  Zn119  1  0.80653134  0.30479684  0.30618525  1
  Zn  Zn120  1  0.84113015  0.32701601  0.79635347  1
  Zn  Zn121  1  0.80091480  0.81840974  0.30956893  1
  Zn  Zn122  1  0.81215319  0.80859790  0.81345319  1
  Zn  Zn123  1  0.18605611  0.43908114  0.43917357  1
  Zn  Zn124  1  0.18500799  0.43474786  0.93690141  1
  Zn  Zn125  1  0.19112084  0.93798704  0.43476664  1
  Zn  Zn126  1  0.18290313  0.93395160  0.94088254  1
  Zn  Zn127  1  0.68629515  0.43701597  0.43729747  1
  Zn  Zn128  1  0.69172179  0.43831518  0.93798338  1
  Zn  Zn129  1  0.69372071  0.93261734  0.43561447  1
  Zn  Zn130  1  0.68623191  0.94534069  0.93760369  1
  Zn  Zn131  1  0.32033887  0.06253050  0.05682035  1
  Zn  Zn132  1  0.30791641  0.06038180  0.56131502  1
  Zn  Zn133  1  0.31457316  0.56209283  0.06300011  1
  Zn  Zn134  1  0.30950715  0.56484723  0.56319010  1
  Zn  Zn135  1  0.82543849  0.06582133  0.05300880  1
  Zn  Zn136  1  0.80959764  0.06184136  0.55600999  1
  Zn  Zn137  1  0.81138912  0.56709573  0.06453989  1
  Zn  Zn138  1  0.81354315  0.56058044  0.56281230  1
  Zn  Zn139  1  0.43621625  0.43987414  0.18694464  1
  Zn  Zn140  1  0.43856834  0.43710461  0.69154197  1
  Zn  Zn141  1  0.44278013  0.93648291  0.19067165  1
  Zn  Zn142  1  0.43783189  0.93394120  0.68986393  1
  Zn  Zn143  1  0.93365802  0.43921456  0.19047261  1
  Zn  Zn144  1  0.93934353  0.43493492  0.68449707  1
  Zn  Zn145  1  0.93497277  0.93333894  0.18577282  1
  Zn  Zn146  1  0.94433148  0.93903303  0.68252811  1
  Zn  Zn147  1  0.05684022  0.05935232  0.31465259  1
  Zn  Zn148  1  0.06510681  0.06120932  0.81478233  1
  Zn  Zn149  1  0.06238005  0.56425706  0.31330852  1
  Zn  Zn150  1  0.06507093  0.56235435  0.81167891  1
  Zn  Zn151  1  0.56208574  0.06327183  0.30710757  1
  Zn  Zn152  1  0.56116789  0.06279040  0.81040741  1
  Zn  Zn153  1  0.56270050  0.56297632  0.31809983  1
  Zn  Zn154  1  0.56336485  0.56143450  0.81337316  1
  Zn  Zn155  1  0.43694285  0.18829406  0.43904787  1
  Zn  Zn156  1  0.43627737  0.18930779  0.93635587  1
  Zn  Zn157  1  0.43646768  0.68680341  0.44084971  1
  Zn  Zn158  1  0.43665471  0.68581665  0.94132660  1
  Zn  Zn159  1  0.93261612  0.18212733  0.43272527  1
  Zn  Zn160  1  0.93812934  0.18380799  0.93684557  1
  Zn  Zn161  1  0.93576179  0.68395609  0.43944238  1
  Zn  Zn162  1  0.93772877  0.69135387  0.93744937  1
  Zn  Zn163  1  0.06385096  0.31274035  0.05907827  1
  Zn  Zn164  1  0.06318283  0.30775645  0.56196584  1
  Zn  Zn165  1  0.05981042  0.80691614  0.06907340  1
  Zn  Zn166  1  0.06524242  0.81359321  0.56595738  1
  Zn  Zn167  1  0.56243361  0.31132127  0.06064544  1
  Zn  Zn168  1  0.56291301  0.31308419  0.56180910  1
  Zn  Zn169  1  0.56194287  0.81049135  0.06663277  1
  Zn  Zn170  1  0.56123366  0.81186143  0.56091263  1
  O  O171  1  0.11202823  0.12713773  0.12659443  1
  O  O172  1  0.12193804  0.11649520  0.61644981  1
  O  O173  1  0.12768129  0.61761278  0.11909977  1
  O  O174  1  0.11754572  0.61828670  0.62024838  1
  O  O175  1  0.61120361  0.13771682  0.12278728  1
  O  O176  1  0.61926477  0.11823415  0.62016204  1
  O  O177  1  0.60809169  0.63657166  0.11553687  1
  O  O178  1  0.62111995  0.62014722  0.62425328  1
  O  O179  1  0.37834120  0.38325176  0.38500242  1
  O  O180  1  0.38375099  0.37880558  0.87526421  1
  O  O181  1  0.37925390  0.88290856  0.38018667  1
  O  O182  1  0.38572922  0.88195543  0.87834294  1
  O  O183  1  0.87384302  0.38899151  0.36511761  1
  O  O184  1  0.86026980  0.39160603  0.89145653  1
  O  O185  1  0.86968285  0.87891694  0.38801673  1
  O  O186  1  0.88840334  0.87491090  0.86855831  1
  O  O187  1  0.25974465  0.01215280  0.37332159  1
  O  O188  1  0.26487505  -0.00222941  0.88446181  1
  O  O189  1  0.25526926  0.50992165  0.37651970  1
  O  O190  1  0.25267182  0.50417076  0.86784050  1
  O  O191  1  0.76665844  -0.00150196  0.38437927  1
  O  O192  1  0.75120210  0.00741191  0.86394393  1
  O  O193  1  0.75666752  0.50441981  0.37137608  1
  O  O194  1  0.75808052  0.51488091  0.87609528  1
  O  O195  1  0.24529275  0.49193425  0.12836156  1
  O  O196  1  0.23996050  0.50753923  0.63500354  1
  O  O197  1  0.26182806  0.98369846  0.12206879  1
  O  O198  1  0.23383282  1.00877919  0.63175663  1
  O  O199  1  0.75591495  0.49278747  0.13631939  1
  O  O200  1  0.74348541  0.48780094  0.61679244  1
  O  O201  1  0.75620372  0.97200038  0.08437760  1
  O  O202  1  0.74099594  0.99551653  0.63221962  1
  O  O203  1  0.00959640  0.36836603  0.24786628  1
  O  O204  1  -0.04960289  0.36193318  0.76493091  1
  O  O205  1  0.01679965  0.87386212  0.24539513  1
  O  O206  1  0.00669801  0.86646324  0.75532661  1
  O  O207  1  0.49941968  0.37102671  0.25509144  1
  O  O208  1  0.51289261  0.36825832  0.75383005  1
  O  O209  1  0.52717117  0.88939345  0.25477554  1
  O  O210  1  0.50730595  0.87003946  0.76292249  1
  O  O211  1  0.49409315  0.13209280  0.23960041  1
  O  O212  1  0.49839188  0.13274307  0.74040397  1
  O  O213  1  0.50438754  0.61714309  0.23480031  1
  O  O214  1  0.49789429  0.63048483  0.74633996  1
  O  O215  1  0.99562367  0.13294211  0.24218701  1
  O  O216  1  0.98399029  0.11644235  0.74984386  1
  O  O217  1  0.98647492  0.62605554  0.25149939  1
  O  O218  1  0.99413025  0.63451965  0.74779091  1
  O  O219  1  0.36476707  0.25270360  0.00436667  1
  O  O220  1  0.36716684  0.25795366  0.50033440  1
  O  O221  1  0.36418923  0.75163737  0.00569508  1
  O  O222  1  0.36884564  0.75719466  0.50760119  1
  O  O223  1  0.87597718  0.25962546  0.00896975  1
  O  O224  1  0.86027997  0.23867748  0.50505869  1
  O  O225  1  0.87241043  0.74708230  0.00880798  1
  O  O226  1  0.86928253  0.75532706  0.50534643  1
  O  O227  1  0.13210956  0.24120142  0.49600096  1
  O  O228  1  0.13496303  0.24496818  1.00016690  1
  O  O229  1  0.13237231  0.74811007  0.49647645  1
  O  O230  1  0.13935177  0.74102370  1.00365512  1
  O  O231  1  0.62932449  0.24227614  0.49445155  1
  O  O232  1  0.62807899  0.25665511  0.98244291  1
  O  O233  1  0.63087324  0.74143685  0.49982768  1
  O  O234  1  0.61581837  0.74034277  0.98987644  1
  O  O235  1  0.49282589  0.24553461  0.12706148  1
  O  O236  1  0.50398406  0.24013839  0.63208738  1
  O  O237  1  0.48573890  0.73967005  0.12156817  1
  O  O238  1  0.49342283  0.74548112  0.63235349  1
  O  O239  1  0.99495932  0.24353551  0.12891486  1
  O  O240  1  0.98306680  0.24577229  0.61439374  1
  O  O241  1  0.98595216  0.74392475  0.12967834  1
  O  O242  1  0.99606536  0.74403977  0.63322592  1
  O  O243  1  -0.00239876  0.25092279  0.36269581  1
  O  O244  1  0.01419878  0.24902461  0.88161774  1
  O  O245  1  0.01405973  0.74376339  0.37711114  1
  O  O246  1  0.00409384  0.75648919  0.86618800  1
  O  O247  1  0.50213315  0.25516086  0.36905421  1
  O  O248  1  0.50823202  0.25298291  0.86719428  1
  O  O249  1  0.51265863  0.74607723  0.38079967  1
  O  O250  1  0.50598906  0.75791113  0.87372345  1
  O  O251  1  0.24201278  0.13152739  0.49093822  1
  O  O252  1  0.25037331  0.13453495  0.99789906  1
  O  O253  1  0.24417857  0.63530459  0.49266912  1
  O  O254  1  0.24486456  0.62910707  0.99288449  1
  O  O255  1  0.73461708  0.13414513  0.50165313  1
  O  O256  1  0.75759772  0.12747346  0.98255455  1
  O  O257  1  0.74537136  0.62908318  0.49716507  1
  O  O258  1  0.73464427  0.61983785  0.99305114  1
  O  O259  1  0.24936260  0.36782309  0.01278852  1
  O  O260  1  0.25769110  0.36441702  0.49089608  1
  O  O261  1  0.24850378  0.86384534  0.00914492  1
  O  O262  1  0.25992735  0.86231170  0.49444045  1
  O  O263  1  0.75886389  0.37788637  0.01070778  1
  O  O264  1  0.74077686  0.36347096  0.50858682  1
  O  O265  1  0.75674649  0.91732139  0.02958934  1
  O  O266  1  0.75962678  0.86676842  0.50917932  1
  O  O267  1  0.12837103  0.49333621  0.24297413  1
  O  O268  1  0.13270371  0.50259497  0.74175427  1
  O  O269  1  0.12809340  0.98581682  0.25666006  1
  O  O270  1  0.12726218  0.98642637  0.74650475  1
  O  O271  1  0.64012585  0.50002146  0.25861415  1
  O  O272  1  0.62209671  0.48848590  0.74513767  1
  O  O273  1  0.63491715  1.01134128  0.23800959  1
  O  O274  1  0.63411818  0.99480921  0.74282152  1
  O  O275  1  0.37348768  0.00607915  0.25906797  1
  O  O276  1  0.38046929  -0.00432056  0.76684547  1
  O  O277  1  0.37051337  0.49402713  0.26710223  1
  O  O278  1  0.36519452  0.50215078  0.75450445  1
  O  O279  1  0.87449723  -0.00580418  0.26114879  1
  O  O280  1  0.86410040  0.00501259  0.74548419  1
  O  O281  1  0.86654703  0.50975617  0.25820622  1
  O  O282  1  0.87750846  0.51681668  0.75776650  1
  O  O283  1  0.12334137  0.37390910  0.36299383  1
  O  O284  1  0.12185144  0.36033446  0.87943492  1
  O  O285  1  0.13523292  0.86574159  0.36241676  1
  O  O286  1  0.11658986  0.87200337  0.86268804  1
  O  O287  1  0.61417588  0.36983119  0.37470076  1
  O  O288  1  0.62422324  0.36979043  0.86671079  1
  O  O289  1  0.62165904  0.85665071  0.38807861  1
  O  O290  1  0.62130236  0.86900830  0.87435186  1
  O  O291  1  0.38175570  0.13168082  0.13013025  1
  O  O292  1  0.38803718  0.12440738  0.62046477  1
  O  O293  1  0.38313510  0.63649858  0.12412349  1
  O  O294  1  0.38165655  0.63677608  0.62428983  1
  O  O295  1  0.88428524  0.13527277  0.12471235  1
  O  O296  1  0.87561746  0.12750538  0.62690031  1
  O  O297  1  0.87458607  0.63314878  0.13569322  1
  O  O298  1  0.87905527  0.62891233  0.63360088  1
  O  O299  1  0.25322395  0.25705175  0.11900596  1
  O  O300  1  0.25102208  0.24347942  0.60850919  1
  O  O301  1  0.26289211  0.75361428  0.12171565  1
  O  O302  1  0.25968867  0.74209602  0.61588405  1
  O  O303  1  0.76147127  0.26047792  0.12034760  1
  O  O304  1  0.75224165  0.25552008  0.61337933  1
  O  O305  1  0.76325460  0.74382639  0.12570513  1
  O  O306  1  0.75543431  0.75457868  0.62322239  1
  O  O307  1  0.24891858  0.23746742  0.38124780  1
  O  O308  1  0.23807963  0.25358140  0.88751639  1
  O  O309  1  0.24352662  0.74386637  0.38516570  1
  O  O310  1  0.25038000  0.74091353  0.88460959  1
  O  O311  1  0.74056206  0.25713686  0.38650105  1
  O  O312  1  0.74373265  0.24305619  0.87059564  1
  O  O313  1  0.73862184  0.74312976  0.38325687  1
  O  O314  1  0.73863868  0.74278829  0.87533814  1
  O  O315  1  0.00191964  0.11542330  0.00875998  1
  O  O316  1  0.01566075  0.12910528  0.49519087  1
  O  O317  1  0.01816846  0.63196940  -0.00212444  1
  O  O318  1  0.00511277  0.61593968  0.50686085  1
  O  O319  1  0.49451832  0.11657765  0.00533958  1
  O  O320  1  0.51234971  0.13113610  0.50995345  1
  O  O321  1  0.50657419  0.61702999  0.00334494  1
  O  O322  1  0.50464249  0.61878399  0.50907546  1
  O  O323  1  0.49147156  0.37955182  0.49483001  1
  O  O324  1  0.50044539  0.38480451  0.99479658  1
  O  O325  1  0.48657538  0.87081176  0.49556928  1
  O  O326  1  0.50104416  0.88499009  0.99250444  1
  O  O327  1  1.00550103  0.38814146  0.49655728  1
  O  O328  1  0.98729541  0.37493452  0.99921395  1
  O  O329  1  0.98554280  0.86692611  0.50397743  1
  O  O330  1  1.01084711  0.88324594  0.99261799  1
  O  O331  1  0.49097827  0.49754812  0.38291070  1
  O  O332  1  0.49451692  0.49530218  0.88118149  1
  O  O333  1  0.48667886  1.00594229  0.37547935  1
  O  O334  1  0.49538331  0.99446772  0.88292190  1
  O  O335  1  0.99284178  0.49985820  0.38282824  1
  O  O336  1  0.98725403  0.50020207  0.87146530  1
  O  O337  1  0.98249687  0.99810408  0.37659474  1
  O  O338  1  1.00013192  0.98962923  0.88052811  1
  O  O339  1  -0.00487557  0.00454095  0.11397967  1
  O  O340  1  0.02159301  0.00204006  0.62946666  1
  O  O341  1  0.01232986  0.50362468  0.13027789  1
  O  O342  1  0.00465695  0.50331941  0.61909711  1
  O  O343  1  0.49181175  0.00991955  0.11007187  1
  O  O344  1  0.51199174  0.00832102  0.63486098  1
  O  O345  1  0.48930841  0.51454919  0.11480541  1
  O  O346  1  0.50680881  0.50499406  0.62222045  1
  O  O347  1  0.23975948  0.37103842  0.24031821  1
  O  O348  1  0.25367580  0.38397902  0.75183413  1
  O  O349  1  0.24242752  0.87724817  0.24306871  1
  O  O350  1  0.23651263  0.86711020  0.75690225  1
  O  O351  1  0.74928136  0.38329665  0.24081603  1
  O  O352  1  0.74121041  0.36741023  0.73813683  1
  O  O353  1  0.71893047  0.87363123  0.25666237  1
  O  O354  1  0.74654890  0.88144234  0.74619840  1
  O  O355  1  0.25488286  0.12473745  0.25697890  1
  O  O356  1  0.26716484  0.15445592  0.75870749  1
  O  O357  1  0.24490263  0.62841865  0.26590963  1
  O  O358  1  0.25005348  0.62238831  0.76330144  1
  O  O359  1  0.76473276  0.15684711  0.25924927  1
  O  O360  1  0.75524590  0.11507459  0.75334813  1
  O  O361  1  0.75632792  0.61738762  0.25614957  1
  O  O362  1  0.76104696  0.63494546  0.76236419  1
  O  O363  1  0.36854020  0.12026685  0.37142608  1
  O  O364  1  0.37783063  0.10918291  0.87453030  1
  O  O365  1  0.36503555  0.61572428  0.38529140  1
  O  O366  1  0.36492181  0.61752069  0.87615483  1
  O  O367  1  0.87084553  0.10725141  0.37317348  1
  O  O368  1  0.86633671  0.12568809  0.86280273  1
  O  O369  1  0.86833178  0.61658739  0.36994872  1
  O  O370  1  0.86869773  0.62197161  0.87226209  1
  O  O371  1  0.13078805  0.38271861  0.13096343  1
  O  O372  1  0.11999692  0.38740975  0.62219712  1
  O  O373  1  0.13685452  0.86404759  0.14052221  1
  O  O374  1  0.12632982  0.88366103  0.63616229  1
  O  O375  1  0.63860759  0.36886779  0.12587187  1
  O  O376  1  0.63187779  0.37854550  0.63183965  1
  O  O377  1  0.62262291  0.88317087  0.12523298  1
  O  O378  1  0.62856012  0.88084249  0.63036391  1
  O  O379  1  0.11431861  0.25855341  0.24956438  1
  O  O380  1  0.12240013  0.24797522  0.76119908  1
  O  O381  1  0.12265626  0.75782771  0.25992134  1
  O  O382  1  0.11574290  0.75840670  0.74676118  1
  O  O383  1  0.61504736  0.25380772  0.25722739  1
  O  O384  1  0.61832534  0.25799159  0.75583532  1
  O  O385  1  0.62549134  0.74139024  0.26869940  1
  O  O386  1  0.61973738  0.75517009  0.76178750  1
  O  O387  1  0.37957460  0.24468487  0.24517701  1
  O  O388  1  0.39414248  0.25815752  0.74553024  1
  O  O389  1  0.37254059  0.75184321  0.24252444  1
  O  O390  1  0.38023978  0.74908381  0.74246967  1
  O  O391  1  0.88891843  0.26081067  0.23500279  1
  O  O392  1  0.85761828  0.23268792  0.73074274  1
  O  O393  1  0.87162288  0.74045811  0.25665459  1
  O  O394  1  0.88495829  0.74309083  0.74579106  1
  O  O395  1  0.37725075  0.49350186  0.49460724  1
  O  O396  1  0.38420422  0.49782888  0.99258580  1
  O  O397  1  0.36554267  0.98861990  0.49174812  1
  O  O398  1  0.38680627  0.99498116  0.98764878  1
  O  O399  1  0.88558052  0.50614447  0.49033257  1
  O  O400  1  0.87474573  0.49940309  0.99467444  1
  O  O401  1  0.87574389  0.98465122  0.49990193  1
  O  O402  1  0.89744397  1.00190744  0.99100006  1
  O  O403  1  0.11001424  0.00413102  -0.00553059  1
  O  O404  1  0.13353229  0.00408607  0.51088737  1
  O  O405  1  0.13348841  0.50852517  0.01113073  1
  O  O406  1  0.11843530  0.50584183  0.50779100  1
  O  O407  1  0.60761406  0.00544216  -0.00615939  1
  O  O408  1  0.63192747  0.00687942  0.51221533  1
  O  O409  1  0.61236072  0.50968621  -0.00633980  1
  O  O410  1  0.61819767  0.50534804  0.50687545  1
  O  O411  1  0.36459296  0.36963774  0.12529070  1
  O  O412  1  0.38117398  0.37359256  0.61127436  1
  O  O413  1  0.37216070  0.86105298  0.12695100  1
  O  O414  1  0.38100217  0.86317852  0.61840393  1
  O  O415  1  0.86941362  0.37189984  0.11845098  1
  O  O416  1  0.86089643  0.36433051  0.62503530  1
  O  O417  1  0.87624042  0.85660704  0.13041987  1
  O  O418  1  0.87155414  0.86980113  0.61751527  1
  O  O419  1  0.13352789  0.12182226  0.38007084  1
  O  O420  1  0.12768046  0.13649789  0.87654360  1
  O  O421  1  0.13247374  0.63234429  0.38219335  1
  O  O422  1  0.13552174  0.62529350  0.88305384  1
  O  O423  1  0.62306819  0.13036084  0.38349127  1
  O  O424  1  0.63542476  0.13494144  0.86321063  1
  O  O425  1  0.62878622  0.63196188  0.38528739  1
  O  O426  1  0.63067781  0.63150496  0.88062929  1
