# generated using pymatgen
data_V85Zn86O256
_symmetry_space_group_name_H-M   'P 1'
_cell_length_a   16.98466821
_cell_length_b   16.98070410
_cell_length_c   16.99701819
_cell_angle_alpha   90.10888371
_cell_angle_beta   89.95070995
_cell_angle_gamma   89.86600762
_symmetry_Int_Tables_number   1
_chemical_formula_structural   V85Zn86O256
_chemical_formula_sum   'V85 Zn86 O256'
_cell_volume   4902.11354824
_cell_formula_units_Z   1
loop_
 _symmetry_equiv_pos_site_id
 _symmetry_equiv_pos_as_xyz
  1  'x, y, z'
loop_
 _atom_site_type_symbol
 _atom_site_label
 _atom_site_symmetry_multiplicity
 _atom_site_fract_x
 _atom_site_fract_y
 _atom_site_fract_z
 _atom_site_occupancy
  V  V0  1  0.25095268  0.25184871  0.00180135  1
  V  V1  1  0.61157682  0.12218466  0.50297993  1
  V  V2  1  0.37764207  0.24948421  0.12200787  1
  V  V3  1  0.87502111  0.37615991  0.00043654  1
  V  V4  1  0.00121861  0.62434846  0.62396936  1
  V  V5  1  0.37474964  0.50021901  0.87675368  1
  V  V6  1  0.75121915  0.50406437  0.75318057  1
  V  V7  1  0.49950491  0.50419897  0.00009440  1
  V  V8  1  0.75062710  0.62510266  0.37694979  1
  V  V9  1  0.38754301  0.87408097  0.50258820  1
  V  V10  1  0.87408798  0.12349774  0.24943711  1
  V  V11  1  0.13060855  0.74540693  0.37250848  1
  V  V12  1  0.00263319  0.24649460  0.75095286  1
  V  V13  1  0.37514460  0.62316609  0.75270258  1
  V  V14  1  0.13153497  0.37177776  0.74744763  1
  V  V15  1  0.00025132  0.25052487  0.25036041  1
  V  V16  1  0.62634492  0.36710304  0.75389341  1
  V  V17  1  0.51067559  0.11355884  0.11890496  1
  V  V18  1  0.50113644  0.24871736  0.24699156  1
  V  V19  1  0.24545244  0.88676030  0.12432679  1
  V  V20  1  0.00064808  0.74979635  0.74849285  1
  V  V21  1  0.48716135  0.24874397  0.72997313  1
  V  V22  1  0.36793720  0.74571755  0.62822557  1
  V  V23  1  0.12589406  0.12104839  0.00366188  1
  V  V24  1  0.24947283  0.49712626  0.74994306  1
  V  V25  1  -0.00088188  0.88099166  0.87293297  1
  V  V26  1  0.25126612  0.51630201  0.25225226  1
  V  V27  1  0.74465289  -0.00645383  0.23653397  1
  V  V28  1  0.13483246  0.24677016  0.37143007  1
  V  V29  1  0.25262228  0.75169122  -0.00106075  1
  V  V30  1  0.36773221  0.37331566  0.50836852  1
  V  V31  1  0.11861475  0.88425705  0.24507875  1
  V  V32  1  0.75341160  0.37356005  0.62354269  1
  V  V33  1  -0.00003040  0.50067012  0.00070070  1
  V  V34  1  0.64285542  0.74452428  0.87685290  1
  V  V35  1  0.85820415  0.12177274  0.75932156  1
  V  V36  1  0.12704055  0.75198908  0.87374070  1
  V  V37  1  0.87258959  0.50591827  0.87494551  1
  V  V38  1  0.00225236  0.12351177  0.12493586  1
  V  V39  1  0.86654569  0.86886076  0.00493920  1
  V  V40  1  0.74987653  0.74885295  0.50247063  1
  V  V41  1  0.62477621  0.37558905  0.25079529  1
  V  V42  1  0.87357589  0.62641009  0.25012640  1
  V  V43  1  0.12662380  0.88924572  0.74437627  1
  V  V44  1  0.75104817  0.88426459  0.62886893  1
  V  V45  1  -0.00424251  0.49067648  0.49898268  1
  V  V46  1  0.74834012  0.12378543  0.37614250  1
  V  V47  1  0.87731257  0.24685351  0.62479010  1
  V  V48  1  0.50774131  -0.00594133  -0.01192246  1
  V  V49  1  0.12698056  0.24953126  0.87555998  1
  V  V50  1  0.50302014  0.36833138  0.87488460  1
  V  V51  1  0.50005694  0.74908259  0.76137777  1
  V  V52  1  0.49551111  0.63046296  0.13745971  1
  V  V53  1  0.62519488  0.24874728  0.37593774  1
  V  V54  1  0.74832722  0.37484192  0.12542824  1
  V  V55  1  0.25033920  0.62613753  0.87576987  1
  V  V56  1  0.13023769  0.49525426  0.62508496  1
  V  V57  1  0.62635349  0.87479888  0.75286953  1
  V  V58  1  0.37676103  0.37749858  0.00198956  1
  V  V59  1  0.26911016  0.11574904  0.87305497  1
  V  V60  1  0.37708155  0.88229619  -0.01216309  1
  V  V61  1  0.63505085  0.62794072  -0.00208529  1
  V  V62  1  0.25053877  0.25057802  0.50991348  1
  V  V63  1  0.37650056  0.75209152  0.14211505  1
  V  V64  1  0.12539815  0.50258278  0.12549390  1
  V  V65  1  0.00151287  -0.00047730  0.00385909  1
  V  V66  1  0.61083809  0.00156420  0.62076823  1
  V  V67  1  0.36992036  0.11847866  0.25087713  1
  V  V68  1  0.49562135  0.37537144  0.37486500  1
  V  V69  1  0.74915882  0.50032540  0.25164333  1
  V  V70  1  0.87549848  0.87653364  0.50055569  1
  V  V71  1  0.87413892  0.24971372  0.12416161  1
  V  V72  1  0.24390615  0.88462362  0.62408679  1
  V  V73  1  0.73900594  0.24656304  -0.01010945  1
  V  V74  1  0.25179251  0.37829778  0.12734018  1
  V  V75  1  0.13332216  0.11586636  0.49841264  1
  V  V76  1  0.62076329  0.87283603  0.23551725  1
  V  V77  1  0.62233147  0.50301773  0.12536837  1
  V  V78  1  0.50162654  0.62124188  0.62457288  1
  V  V79  1  -0.00214828  0.63172078  0.12476283  1
  V  V80  1  0.61851780  0.75482325  0.37421396  1
  V  V81  1  0.75584994  0.25068190  0.50043594  1
  V  V82  1  0.36938461  0.51150857  0.37100053  1
  V  V83  1  0.87343050  -0.00201704  0.37850724  1
  V  V84  1  0.12450544  0.37584618  0.25079255  1
  Zn  Zn85  1  -0.00557619  0.75329058  0.25102292  1
  Zn  Zn86  1  0.69862011  0.10720937  0.89733493  1
  Zn  Zn87  1  0.87499000  0.75083857  0.62674894  1
  Zn  Zn88  1  0.01026534  -0.00233190  0.50530822  1
  Zn  Zn89  1  0.00095977  0.37661743  0.87528187  1
  Zn  Zn90  1  0.13192611  0.61820143  0.48906861  1
  Zn  Zn91  1  0.01806093  0.11624866  0.63083173  1
  Zn  Zn92  1  0.49944639  0.49928273  0.50080339  1
  Zn  Zn93  1  0.87109669  0.62848512  0.75411945  1
  Zn  Zn94  1  0.50393762  0.88438626  0.37234137  1
  Zn  Zn95  1  0.85575655  0.00063681  0.87390240  1
  Zn  Zn96  1  0.24037584  0.00885240  0.25896751  1
  Zn  Zn97  1  0.84938935  0.75502741  0.12320145  1
  Zn  Zn98  1  -0.00514073  0.36822753  0.38102781  1
  Zn  Zn99  1  0.62638233  0.49963310  0.62373806  1
  Zn  Zn100  1  0.38277695  0.09666753  0.73925462  1
  Zn  Zn101  1  0.00096554  0.87363133  0.37632779  1
  Zn  Zn102  1  0.87053681  0.49337019  0.38181167  1
  Zn  Zn103  1  0.25340293  0.74199947  0.49062586  1
  Zn  Zn104  1  0.12474604  0.62633017  0.00058437  1
  Zn  Zn105  1  0.62415042  0.62108038  0.49950729  1
  Zn  Zn106  1  0.37900887  0.00990049  0.38554848  1
  Zn  Zn107  1  0.18842329  0.18908503  0.18620872  1
  Zn  Zn108  1  0.22789801  0.15579851  0.66791148  1
  Zn  Zn109  1  0.18423702  0.69650639  0.18691008  1
  Zn  Zn110  1  0.18450707  0.68478575  0.68882113  1
  Zn  Zn111  1  0.68982732  0.18618091  0.18534959  1
  Zn  Zn112  1  0.68201704  0.18580487  0.68919513  1
  Zn  Zn113  1  0.68527496  0.68952253  0.18767151  1
  Zn  Zn114  1  0.68710105  0.68832777  0.68697327  1
  Zn  Zn115  1  0.31284222  0.31607452  0.31001783  1
  Zn  Zn116  1  0.31360110  0.30933831  0.81550683  1
  Zn  Zn117  1  0.30399849  0.83980265  0.32099388  1
  Zn  Zn118  1  0.31164498  0.81992621  0.80727317  1
  Zn  Zn119  1  0.81506122  0.31407198  0.31406847  1
  Zn  Zn120  1  0.81529338  0.31493256  0.81344412  1
  Zn  Zn121  1  0.80673512  0.81178099  0.31192106  1
  Zn  Zn122  1  0.81404854  0.81535006  0.81424888  1
  Zn  Zn123  1  0.18562802  0.43583679  0.43441373  1
  Zn  Zn124  1  0.18725350  0.43754526  0.93843066  1
  Zn  Zn125  1  0.19950677  0.92965997  0.43277798  1
  Zn  Zn126  1  0.18775338  0.93841931  0.93395714  1
  Zn  Zn127  1  0.68623538  0.43782895  0.44005097  1
  Zn  Zn128  1  0.68741712  0.43771588  0.93777969  1
  Zn  Zn129  1  0.68665858  0.93834239  0.43751322  1
  Zn  Zn130  1  0.68425392  0.93037379  0.93740836  1
  Zn  Zn131  1  0.31639891  0.06449349  0.05936401  1
  Zn  Zn132  1  0.32701744  0.05778705  0.56576360  1
  Zn  Zn133  1  0.31379486  0.56744040  0.06674382  1
  Zn  Zn134  1  0.31011900  0.56243667  0.55897168  1
  Zn  Zn135  1  0.81433637  0.06230703  0.05568477  1
  Zn  Zn136  1  0.81011109  0.06609758  0.56645166  1
  Zn  Zn137  1  0.81308813  0.56355924  0.06556886  1
  Zn  Zn138  1  0.81549710  0.56348810  0.56731923  1
  Zn  Zn139  1  0.43762892  0.44187208  0.18997327  1
  Zn  Zn140  1  0.43760425  0.43587441  0.69025445  1
  Zn  Zn141  1  0.43928960  0.93316076  0.18181490  1
  Zn  Zn142  1  0.43922301  0.93013232  0.68855656  1
  Zn  Zn143  1  0.93701505  0.43872313  0.18838387  1
  Zn  Zn144  1  0.93918535  0.43456041  0.68838661  1
  Zn  Zn145  1  0.93381398  0.94036849  0.18436119  1
  Zn  Zn146  1  0.93735152  0.94450850  0.68517076  1
  Zn  Zn147  1  0.05944941  0.06479222  0.31940928  1
  Zn  Zn148  1  0.06429819  0.06603459  0.81740083  1
  Zn  Zn149  1  0.06095025  0.56271465  0.31045404  1
  Zn  Zn150  1  0.06215054  0.56298633  0.81402077  1
  Zn  Zn151  1  0.55834246  0.05860876  0.31262904  1
  Zn  Zn152  1  0.55889832  0.05751732  0.79837837  1
  Zn  Zn153  1  0.56326845  0.56415944  0.31732025  1
  Zn  Zn154  1  0.56589500  0.55992916  0.81238163  1
  Zn  Zn155  1  0.43314127  0.19156579  0.43601003  1
  Zn  Zn156  1  0.48979989  0.15820895  0.90691311  1
  Zn  Zn157  1  0.43755914  0.69099552  0.43984294  1
  Zn  Zn158  1  0.43832556  0.68814909  0.94404135  1
  Zn  Zn159  1  0.94431010  0.18332701  0.43721240  1
  Zn  Zn160  1  0.93605090  0.18987694  0.93825225  1
  Zn  Zn161  1  0.94322454  0.68665400  0.43586111  1
  Zn  Zn162  1  0.93762627  0.68837521  0.93666153  1
  Zn  Zn163  1  0.06220551  0.31386636  0.06464801  1
  Zn  Zn164  1  0.06624310  0.30730052  0.56460767  1
  Zn  Zn165  1  0.06075967  0.81406399  0.06208974  1
  Zn  Zn166  1  0.06315131  0.81160268  0.55933360  1
  Zn  Zn167  1  0.56167804  0.31329827  0.06197628  1
  Zn  Zn168  1  0.56651554  0.31482564  0.55987971  1
  Zn  Zn169  1  0.56099546  0.80978912  0.05797088  1
  Zn  Zn170  1  0.56538183  0.80523773  0.57082979  1
  O  O171  1  0.12022878  0.13333020  0.11068861  1
  O  O172  1  0.13565718  0.12681081  0.60364585  1
  O  O173  1  0.11574928  0.62108645  0.12446075  1
  O  O174  1  0.11390352  0.61205544  0.63097589  1
  O  O175  1  0.60855781  0.12995923  0.12766693  1
  O  O176  1  0.63007784  0.10897479  0.62006929  1
  O  O177  1  0.61410287  0.62125864  0.11784361  1
  O  O178  1  0.61339980  0.62483167  0.62469165  1
  O  O179  1  0.38391841  0.38003564  0.37844016  1
  O  O180  1  0.38088762  0.38238354  0.88312133  1
  O  O181  1  0.38791544  0.85359527  0.39901074  1
  O  O182  1  0.36841187  0.87388259  0.88961455  1
  O  O183  1  0.88333387  0.38190818  0.36806596  1
  O  O184  1  0.87970220  0.38580414  0.88186494  1
  O  O185  1  0.87109334  0.88213660  0.38353577  1
  O  O186  1  0.88553248  0.87885309  0.88073979  1
  O  O187  1  0.27744714  -0.03548325  0.35785427  1
  O  O188  1  0.25356162  0.01759958  0.88923187  1
  O  O189  1  0.26142426  0.49688210  0.36745968  1
  O  O190  1  0.25491778  0.50574852  0.87110403  1
  O  O191  1  0.75787182  0.00519086  0.36925495  1
  O  O192  1  0.74390246  0.00721109  0.88327049  1
  O  O193  1  0.74919407  0.50636998  0.37057282  1
  O  O194  1  0.75963259  0.49212763  0.86417249  1
  O  O195  1  0.24727168  0.49745096  0.13232584  1
  O  O196  1  0.23790230  0.50496020  0.63407395  1
  O  O197  1  0.25386681  0.98869653  0.12486443  1
  O  O198  1  0.24795399  0.98173300  0.61884035  1
  O  O199  1  0.74218989  0.49477367  0.13147788  1
  O  O200  1  0.75564473  0.48715085  0.63237203  1
  O  O201  1  0.75512477  1.00588735  0.13875768  1
  O  O202  1  0.74469320  0.98742956  0.62284301  1
  O  O203  1  0.00928373  0.36770473  0.24453676  1
  O  O204  1  0.00992199  0.36302849  0.75156059  1
  O  O205  1  0.00929925  0.87628240  0.24583675  1
  O  O206  1  0.00479608  0.86969401  0.75476384  1
  O  O207  1  0.50440040  0.37037312  0.25660040  1
  O  O208  1  0.50770673  0.37072447  0.75542231  1
  O  O209  1  0.51727522  0.88143202  0.25006150  1
  O  O210  1  0.51703590  0.85805926  0.73837777  1
  O  O211  1  0.49147094  0.12981097  0.23630773  1
  O  O212  1  0.49063681  0.14544222  0.74985728  1
  O  O213  1  0.50536731  0.62282598  0.23632613  1
  O  O214  1  0.49440199  0.62917623  0.74503642  1
  O  O215  1  0.99450531  0.12903563  0.24480256  1
  O  O216  1  1.00278272  0.13757762  0.74891697  1
  O  O217  1  0.98892464  0.62330607  0.24135479  1
  O  O218  1  1.00100691  0.63491445  0.74418936  1
  O  O219  1  0.37043398  0.25867245  0.01319670  1
  O  O220  1  0.36170526  0.26160275  0.49302521  1
  O  O221  1  0.36538147  0.76160127  0.00287510  1
  O  O222  1  0.37453018  0.75399455  0.51516416  1
  O  O223  1  0.86930541  0.25719666  0.00632496  1
  O  O224  1  0.86604494  0.23667896  0.51028108  1
  O  O225  1  0.88268252  0.76607351  -0.00265824  1
  O  O226  1  0.86664831  0.75907522  0.49956347  1
  O  O227  1  0.13595567  0.24925314  0.49018144  1
  O  O228  1  0.12910669  0.24603862  0.99331052  1
  O  O229  1  0.12275228  0.75327735  0.48045526  1
  O  O230  1  0.13823250  0.75366363  0.99437421  1
  O  O231  1  0.63483041  0.24253272  0.49590742  1
  O  O232  1  0.63978208  0.25676946  1.00260131  1
  O  O233  1  0.63688000  0.74975530  0.49544491  1
  O  O234  1  0.61858889  0.74461843  0.98244664  1
  O  O235  1  0.49328680  0.24340963  0.12633983  1
  O  O236  1  0.50014959  0.25677807  0.63144649  1
  O  O237  1  0.48358161  0.74658453  0.12187722  1
  O  O238  1  0.49104094  0.73846355  0.63626782  1
  O  O239  1  0.99451170  0.24337272  0.13008451  1
  O  O240  1  0.99348786  0.24561935  0.63256690  1
  O  O241  1  1.00058526  0.73759055  0.12605854  1
  O  O242  1  1.00259531  0.74227844  0.63242368  1
  O  O243  1  0.01036579  0.24887701  0.36705579  1
  O  O244  1  0.01037346  0.25156316  0.86942521  1
  O  O245  1  0.00813902  0.75548907  0.36957109  1
  O  O246  1  0.00603258  0.76034744  0.86770914  1
  O  O247  1  0.50438117  0.25847340  0.36779418  1
  O  O248  1  0.49254244  0.26811274  0.86966463  1
  O  O249  1  0.51648680  0.75099831  0.38274045  1
  O  O250  1  0.49901397  0.74563872  0.86315147  1
  O  O251  1  0.24451358  0.14199721  0.49521290  1
  O  O252  1  0.24439542  0.13241824  0.99544326  1
  O  O253  1  0.24266854  0.63091297  0.50421222  1
  O  O254  1  0.25061049  0.63659465  0.99515033  1
  O  O255  1  0.74128860  0.13409319  0.49614688  1
  O  O256  1  0.75319327  0.14176823  0.99891053  1
  O  O257  1  0.75310850  0.63445138  0.49784381  1
  O  O258  1  0.73370159  0.61590268  1.00155848  1
  O  O259  1  0.25671866  0.37218424  0.00716890  1
  O  O260  1  0.26098954  0.36811117  0.49341656  1
  O  O261  1  0.25655889  0.87063619  0.00493350  1
  O  O262  1  0.25648592  0.86162768  0.51418728  1
  O  O263  1  0.75500650  0.36913991  0.00707664  1
  O  O264  1  0.74492093  0.36117560  0.50954050  1
  O  O265  1  0.76883987  0.87806823  -0.00447194  1
  O  O266  1  0.75710436  0.86772402  0.50764946  1
  O  O267  1  0.13222977  0.49582982  0.24580231  1
  O  O268  1  0.12761799  0.49073362  0.74602910  1
  O  O269  1  0.12286468  0.98897367  0.25601039  1
  O  O270  1  0.11843160  0.98803980  0.75229345  1
  O  O271  1  0.62926592  0.49515369  0.24606997  1
  O  O272  1  0.63484538  0.48977085  0.74724455  1
  O  O273  1  0.63802743  0.99027513  0.25284708  1
  O  O274  1  0.61968051  0.98617268  0.73436063  1
  O  O275  1  0.37819383  0.01702100  0.23880404  1
  O  O276  1  0.38270709  -0.01124678  0.75986294  1
  O  O277  1  0.36654176  0.49695933  0.26257612  1
  O  O278  1  0.36899074  0.50320496  0.75703441  1
  O  O279  1  0.86473174  0.00227118  0.25792574  1
  O  O280  1  0.87533277  0.01850431  0.75186600  1
  O  O281  1  0.86713124  0.51229649  0.24767679  1
  O  O282  1  0.86937970  0.49759702  0.75823425  1
  O  O283  1  0.11865310  0.36690251  0.36732728  1
  O  O284  1  0.12436190  0.36537156  0.86965158  1
  O  O285  1  0.12183961  0.86939667  0.36033976  1
  O  O286  1  0.11931371  0.87155674  0.86531118  1
  O  O287  1  0.61506145  0.36999580  0.37152765  1
  O  O288  1  0.61474786  0.38275434  0.86527941  1
  O  O289  1  0.62449483  0.86853077  0.37205597  1
  O  O290  1  0.62965880  0.85612113  0.86427048  1
  O  O291  1  0.38301535  0.13498006  0.12947408  1
  O  O292  1  0.33816814  0.13254383  0.64250597  1
  O  O293  1  0.37953330  0.64261914  0.12415112  1
  O  O294  1  0.38080613  0.62823775  0.63314115  1
  O  O295  1  0.88171094  0.12954237  0.12991353  1
  O  O296  1  0.86907495  0.13642218  0.64094970  1
  O  O297  1  0.88217458  0.62733103  0.13218573  1
  O  O298  1  0.88968580  0.62826554  0.63054042  1
  O  O299  1  0.25852795  0.25781802  0.12156430  1
  O  O300  1  0.24002659  0.25977608  0.60688964  1
  O  O301  1  0.25885196  0.75725616  0.11645031  1
  O  O302  1  0.26214261  0.74936517  0.63208072  1
  O  O303  1  0.75552262  0.25590280  0.11861433  1
  O  O304  1  0.75566839  0.25452541  0.61946069  1
  O  O305  1  0.74134628  0.74172498  0.11103777  1
  O  O306  1  0.75094001  0.75771653  0.61657586  1
  O  O307  1  0.23882345  0.25752335  0.37636107  1
  O  O308  1  0.24301467  0.24515530  0.88386217  1
  O  O309  1  0.23414146  0.75933002  0.37080261  1
  O  O310  1  0.24724400  0.74737404  0.88062672  1
  O  O311  1  0.74612416  0.24523867  0.38215919  1
  O  O312  1  0.75236257  0.25705998  0.89009544  1
  O  O313  1  0.74352072  0.74566722  0.38581859  1
  O  O314  1  0.74149682  0.74337029  0.87048449  1
  O  O315  1  0.00589925  0.11897328  0.00347077  1
  O  O316  1  0.02194056  0.12608780  0.50100605  1
  O  O317  1  0.00105177  0.62006050  0.00865833  1
  O  O318  1  0.00805382  0.61708604  0.51022167  1
  O  O319  1  0.49349029  0.10797941  0.01158928  1
  O  O320  1  0.51287266  0.13609054  0.49756344  1
  O  O321  1  0.50617747  0.62113273  0.00984451  1
  O  O322  1  0.49918554  0.62343755  0.51342905  1
  O  O323  1  0.48858867  0.37229158  0.48955107  1
  O  O324  1  0.49663982  0.38295331  0.99408879  1
  O  O325  1  0.48761624  0.86902275  0.51562154  1
  O  O326  1  0.48455791  0.88110167  1.00470364  1
  O  O327  1  1.00498603  0.38757137  0.50448202  1
  O  O328  1  0.99318565  0.38283506  1.00215065  1
  O  O329  1  0.98541859  0.87640151  0.50020622  1
  O  O330  1  1.00014862  0.88276388  0.99016701  1
  O  O331  1  0.48884360  0.49104850  0.37324098  1
  O  O332  1  0.49345764  0.49330807  0.87942039  1
  O  O333  1  0.49080117  0.99733587  0.37530209  1
  O  O334  1  0.49952767  1.00299596  0.88961885  1
  O  O335  1  1.00528929  0.50196578  0.39327577  1
  O  O336  1  0.99337231  0.49833248  0.88179456  1
  O  O337  1  0.98429660  0.99801039  0.38126011  1
  O  O338  1  1.00045952  0.99049441  0.88234328  1
  O  O339  1  -0.00382261  0.00781785  0.11232246  1
  O  O340  1  -0.00401546  0.00716728  0.61601856  1
  O  O341  1  0.00485942  0.50997634  0.12073466  1
  O  O342  1  0.00707389  0.50415545  0.61891177  1
  O  O343  1  0.49914268  0.01123638  0.12118910  1
  O  O344  1  0.51274577  -0.00441481  0.62100134  1
  O  O345  1  0.50194411  0.50875770  0.12045299  1
  O  O346  1  0.49923392  0.51068134  0.62669400  1
  O  O347  1  0.24366283  0.38403694  0.24393982  1
  O  O348  1  0.23848151  0.38009725  0.75827470  1
  O  O349  1  0.23324324  0.87511360  0.23615945  1
  O  O350  1  0.23959000  0.86984815  0.73524880  1
  O  O351  1  0.74304686  0.37928115  0.24523179  1
  O  O352  1  0.74409498  0.37831694  0.74330221  1
  O  O353  1  0.74385742  0.88805156  0.25033764  1
  O  O354  1  0.73869844  0.86431715  0.73950061  1
  O  O355  1  0.26416625  0.12307363  0.24004478  1
  O  O356  1  0.24153503  0.12889938  0.77667526  1
  O  O357  1  0.24510909  0.61482946  0.24383638  1
  O  O358  1  0.25539590  0.61860839  0.75733296  1
  O  O359  1  0.75317489  0.11493410  0.25565949  1
  O  O360  1  0.75810927  0.13608598  0.76042635  1
  O  O361  1  0.75521830  0.61984126  0.25672699  1
  O  O362  1  0.75271567  0.60865122  0.73959148  1
  O  O363  1  0.37944946  0.12943702  0.35419712  1
  O  O364  1  0.36959588  0.13218636  0.87289890  1
  O  O365  1  0.38165066  0.60910652  0.38059298  1
  O  O366  1  0.37031535  0.61977680  0.87219928  1
  O  O367  1  0.86988513  0.11702771  0.37063862  1
  O  O368  1  0.88089128  0.12583611  0.86171935  1
  O  O369  1  0.87039875  0.62138435  0.36637064  1
  O  O370  1  0.87967361  0.61118380  0.87359312  1
  O  O371  1  0.13246670  0.38172952  0.13000892  1
  O  O372  1  0.11997069  0.38385491  0.63650477  1
  O  O373  1  0.13016163  0.87106501  0.13517291  1
  O  O374  1  0.13659617  0.86728586  0.62920606  1
  O  O375  1  0.62684392  0.38275696  0.13166521  1
  O  O376  1  0.63774153  0.37588170  0.63310993  1
  O  O377  1  0.62269722  0.86658045  0.13713909  1
  O  O378  1  0.63274415  0.88258483  0.62828809  1
  O  O379  1  0.12140206  0.25401602  0.25411672  1
  O  O380  1  0.11986129  0.25706653  0.76038942  1
  O  O381  1  0.11956309  0.76195626  0.25695682  1
  O  O382  1  0.11497837  0.75769123  0.75394415  1
  O  O383  1  0.62165587  0.25509983  0.25613496  1
  O  O384  1  0.61313558  0.26254796  0.74372550  1
  O  O385  1  0.63570496  0.76629697  0.26187741  1
  O  O386  1  0.61999913  0.74953993  0.76108440  1
  O  O387  1  0.37934110  0.24469644  0.23876310  1
  O  O388  1  0.38825577  0.26705214  0.74332912  1
  O  O389  1  0.36687408  0.76425878  0.23867077  1
  O  O390  1  0.38141352  0.74505474  0.74607893  1
  O  O391  1  0.87880353  0.24224977  0.24421490  1
  O  O392  1  0.88422529  0.24217939  0.74716107  1
  O  O393  1  0.87207056  0.73880454  0.24711794  1
  O  O394  1  0.88873314  0.75036475  0.75039648  1
  O  O395  1  0.37290626  0.48774656  0.48639559  1
  O  O396  1  0.37926179  0.49717216  0.99733019  1
  O  O397  1  0.37000246  0.97824605  0.50192106  1
  O  O398  1  0.38143657  0.98566286  1.00616053  1
  O  O399  1  0.89245847  0.50411986  0.50319130  1
  O  O400  1  0.87833957  0.49603936  0.99417471  1
  O  O401  1  0.86604850  0.99197633  0.49178390  1
  O  O402  1  0.88672787  0.99122629  0.99522994  1
  O  O403  1  0.11462366  0.01054171  -0.00626174  1
  O  O404  1  0.13456063  0.01370340  0.48286619  1
  O  O405  1  0.11988519  0.50232590  0.00739763  1
  O  O406  1  0.11865144  0.49798708  0.50995315  1
  O  O407  1  0.60563698  -0.01963815  0.00342832  1
  O  O408  1  0.62976430  0.00740782  0.51171477  1
  O  O409  1  0.61820525  0.50708358  0.00510122  1
  O  O410  1  0.61875196  0.50232904  0.50522587  1
  O  O411  1  0.37302106  0.36974111  0.12265176  1
  O  O412  1  0.37765207  0.38401689  0.60584534  1
  O  O413  1  0.36616139  0.86485245  0.11842740  1
  O  O414  1  0.36411566  0.86420169  0.62131549  1
  O  O415  1  0.86814651  0.37081470  0.12112628  1
  O  O416  1  0.86556457  0.35869696  0.63437965  1
  O  O417  1  0.88258482  0.87145620  0.10946985  1
  O  O418  1  0.86726361  0.87382641  0.61829473  1
  O  O419  1  0.12573674  0.13653979  0.38199863  1
  O  O420  1  0.12708783  0.13550748  0.88844960  1
  O  O421  1  0.12128488  0.64119362  0.36882115  1
  O  O422  1  0.13213486  0.63328801  0.87675583  1
  O  O423  1  0.62871903  0.12936326  0.38197568  1
  O  O424  1  0.59746730  0.13571550  0.86886118  1
  O  O425  1  0.63260657  0.63518354  0.37675131  1
  O  O426  1  0.62028862  0.63603463  0.88156182  1
