# generated using pymatgen
data_V85Zn86O256
_symmetry_space_group_name_H-M   'P 1'
_cell_length_a   16.96466157
_cell_length_b   16.98194335
_cell_length_c   16.96084319
_cell_angle_alpha   90.05170936
_cell_angle_beta   90.04415372
_cell_angle_gamma   89.93606267
_symmetry_Int_Tables_number   1
_chemical_formula_structural   V85Zn86O256
_chemical_formula_sum   'V85 Zn86 O256'
_cell_volume   4886.29239060
_cell_formula_units_Z   1
loop_
 _symmetry_equiv_pos_site_id
 _symmetry_equiv_pos_as_xyz
  1  'x, y, z'
loop_
 _atom_site_type_symbol
 _atom_site_label
 _atom_site_symmetry_multiplicity
 _atom_site_fract_x
 _atom_site_fract_y
 _atom_site_fract_z
 _atom_site_occupancy
  V  V0  1  0.88156768  0.50020149  0.37352020  1
  V  V1  1  0.74869961  0.62667857  0.87626525  1
  V  V2  1  0.87489401  0.88108509  0.00141461  1
  V  V3  1  0.38142806  0.12597640  0.74353016  1
  V  V4  1  0.62829004  0.37320714  0.25071671  1
  V  V5  1  0.25073378  0.24999952  0.00198589  1
  V  V6  1  0.38064716  0.74888806  0.62891823  1
  V  V7  1  0.74585841  0.50205658  0.24322127  1
  V  V8  1  0.36207150  0.62312394  0.25450768  1
  V  V9  1  0.74600021  0.75030869  0.00161060  1
  V  V10  1  0.73362576  0.00021450  0.25288575  1
  V  V11  1  0.62361201  0.37786569  0.74113880  1
  V  V12  1  0.62039309  0.10730718  -0.00049410  1
  V  V13  1  0.25028859  0.37782826  0.13211275  1
  V  V14  1  0.61792669  0.74884291  0.87044629  1
  V  V15  1  0.50679120  0.37327677  0.88186006  1
  V  V16  1  0.25287367  0.12589887  0.87626244  1
  V  V17  1  0.87506401  0.00315739  0.87244546  1
  V  V18  1  0.87627768  0.87513679  0.49911265  1
  V  V19  1  0.37348423  0.12418543  0.24977105  1
  V  V20  1  0.36653282  0.50131202  0.37101828  1
  V  V21  1  0.37633165  0.24916699  0.12402944  1
  V  V22  1  0.50333758  0.61822594  0.62651299  1
  V  V23  1  0.73056742  0.87947559  0.12783369  1
  V  V24  1  0.12575652  0.25116423  0.87624201  1
  V  V25  1  0.12280230  0.13136730  0.49772507  1
  V  V26  1  0.62099104  0.00733690  0.62649836  1
  V  V27  1  0.74703700  0.12721597  0.87215476  1
  V  V28  1  0.36961285  0.37532366  0.50282244  1
  V  V29  1  0.12338924  0.37188019  0.25331482  1
  V  V30  1  0.36907805  0.25495147  0.62254603  1
  V  V31  1  0.87678903  0.62528795  0.75074707  1
  V  V32  1  0.62527494  0.61728811  0.50385501  1
  V  V33  1  0.12682461  0.87403626  0.75072726  1
  V  V34  1  0.12678371  0.50210318  0.12243696  1
  V  V35  1  0.75083452  0.62609698  0.37447283  1
  V  V36  1  0.37973369  0.62869117  0.75357406  1
  V  V37  1  0.87672566  0.49955444  0.87630510  1
  V  V38  1  0.12887671  0.37514290  0.74893400  1
  V  V39  1  0.49988337  0.87374680  0.87368199  1
  V  V40  1  0.13320536  0.74276738  0.88743373  1
  V  V41  1  0.87717490  0.23352055  0.63105476  1
  V  V42  1  0.74993950  0.75084586  0.49963961  1
  V  V43  1  0.13304016  0.49725263  0.62505451  1
  V  V44  1  0.74881600  0.87403580  0.62743339  1
  V  V45  1  0.25261328  0.00110216  0.74947029  1
  V  V46  1  0.24178173  -0.01251614  0.25013785  1
  V  V47  1  0.13215178  0.62604853  0.49286832  1
  V  V48  1  0.50226095  0.87390864  0.37090098  1
  V  V49  1  0.00290911  0.74973232  0.75160263  1
  V  V50  1  0.50230506  0.11407714  0.12041700  1
  V  V51  1  0.87493592  0.75261495  0.13036863  1
  V  V52  1  0.25228055  0.74706951  0.48596507  1
  V  V53  1  0.74979979  0.00418265  0.75039597  1
  V  V54  1  0.62389469  0.75366930  0.36899143  1
  V  V55  1  0.62114400  0.61117411  0.00319817  1
  V  V56  1  0.00565696  0.62739189  0.11841788  1
  V  V57  1  0.12272109  0.11627423  0.00103868  1
  V  V58  1  0.37618657  0.87310083  0.49745856  1
  V  V59  1  0.38057188  0.49822704  0.88299377  1
  V  V60  1  0.86969314  0.11904925  0.25084628  1
  V  V61  1  0.37372711  0.86613971  0.00375182  1
  V  V62  1  0.50453626  0.24956902  0.74669175  1
  V  V63  1  -0.00157114  0.11720169  0.11880965  1
  V  V64  1  0.50636000  0.25060479  0.25438556  1
  V  V65  1  0.00029493  0.24826441  0.25646105  1
  V  V66  1  0.25315572  0.49982325  0.75179070  1
  V  V67  1  0.49824019  0.00720744  0.50884279  1
  V  V68  1  0.12053913  0.00558620  0.62554955  1
  V  V69  1  0.74500271  0.50022962  0.74346697  1
  V  V70  1  0.24655617  0.13426119  0.37548463  1
  V  V71  1  0.37357855  0.00042685  0.37781045  1
  V  V72  1  0.87755698  0.37967783  0.50824782  1
  V  V73  1  0.00041180  0.23596372  0.74922275  1
  V  V74  1  0.87836620  0.37449414  -0.00102505  1
  V  V75  1  0.01728056  0.75512378  0.24828257  1
  V  V76  1  0.00049222  0.87907713  0.87877708  1
  V  V77  1  0.87206200  0.24986718  0.12308704  1
  V  V78  1  -0.00111936  0.00776004  0.50219492  1
  V  V79  1  0.74140619  0.24937419  -0.00443620  1
  V  V80  1  0.00673134  0.87626050  0.37171091  1
  V  V81  1  0.00471165  0.62647901  0.62440958  1
  V  V82  1  0.25043324  0.87367132  0.62419666  1
  V  V83  1  0.50794474  0.60991745  0.12968911  1
  V  V84  1  0.38280044  0.00247769  0.88350906  1
  Zn  Zn85  1  0.87670016  0.74989223  0.62660133  1
  Zn  Zn86  1  0.64131415  0.12883150  0.47559108  1
  Zn  Zn87  1  0.00611190  0.36932229  0.37912395  1
  Zn  Zn88  1  0.12412522  0.74900656  0.37599908  1
  Zn  Zn89  1  0.73430798  0.25570239  0.48226068  1
  Zn  Zn90  1  0.38080915  0.37767627  0.00432326  1
  Zn  Zn91  1  0.61596566  0.86903671  0.74634293  1
  Zn  Zn92  1  0.11607817  -0.00560783  0.13134332  1
  Zn  Zn93  1  0.00611569  0.50195514  0.49567337  1
  Zn  Zn94  1  0.50758493  0.37774905  0.37745050  1
  Zn  Zn95  1  0.74670986  0.37926631  0.62061456  1
  Zn  Zn96  1  0.37212641  0.74034841  0.12181181  1
  Zn  Zn97  1  0.25350460  0.62509544  0.89497259  1
  Zn  Zn98  1  0.50261857  0.49664092  0.49979767  1
  Zn  Zn99  1  0.00657015  0.50671485  -0.00275976  1
  Zn  Zn100  1  0.23817555  0.86910574  0.11299493  1
  Zn  Zn101  1  0.74364004  0.38558796  0.11748971  1
  Zn  Zn102  1  0.86768258  0.00127522  0.37687835  1
  Zn  Zn103  1  0.87797519  0.62527687  0.25065960  1
  Zn  Zn104  1  0.24154896  0.25608669  0.50248510  1
  Zn  Zn105  1  0.00253885  0.37510923  0.87558643  1
  Zn  Zn106  1  0.49851093  0.75289423  0.24493099  1
  Zn  Zn107  1  0.18531867  0.18531151  0.18863664  1
  Zn  Zn108  1  0.18959808  0.18782897  0.68762548  1
  Zn  Zn109  1  0.19457869  0.69001948  0.07549166  1
  Zn  Zn110  1  0.19365977  0.68758420  0.68909748  1
  Zn  Zn111  1  0.68508081  0.18540615  0.18436543  1
  Zn  Zn112  1  0.67162516  0.20975934  0.64821914  1
  Zn  Zn113  1  0.68673494  0.68675639  0.18782330  1
  Zn  Zn114  1  0.68789378  0.68684593  0.68748750  1
  Zn  Zn115  1  0.31732355  0.31430437  0.31431056  1
  Zn  Zn116  1  0.31542268  0.31342836  0.81325600  1
  Zn  Zn117  1  0.26018177  0.76670593  0.26147033  1
  Zn  Zn118  1  0.31346234  0.81409095  0.81509828  1
  Zn  Zn119  1  0.81119122  0.32065362  0.31100539  1
  Zn  Zn120  1  0.81175031  0.31122564  0.80811669  1
  Zn  Zn121  1  0.81036078  0.81738843  0.31153663  1
  Zn  Zn122  1  0.81147225  0.81170558  0.81255447  1
  Zn  Zn123  1  0.19046340  0.44001457  0.43431620  1
  Zn  Zn124  1  0.19301073  0.43684761  0.94024038  1
  Zn  Zn125  1  0.18847093  0.94019265  0.43741866  1
  Zn  Zn126  1  0.19188889  0.93574585  0.93482706  1
  Zn  Zn127  1  0.69357043  0.43547765  0.43097508  1
  Zn  Zn128  1  0.69039991  0.43359956  0.93036885  1
  Zn  Zn129  1  0.68348431  0.94066091  0.43984839  1
  Zn  Zn130  1  0.68694634  0.93410346  0.93692468  1
  Zn  Zn131  1  0.31097595  0.06014610  0.06504247  1
  Zn  Zn132  1  0.30992734  0.06496559  0.56212421  1
  Zn  Zn133  1  0.31781058  0.55823445  0.06890319  1
  Zn  Zn134  1  0.31472255  0.56253416  0.56151314  1
  Zn  Zn135  1  0.80663698  0.06110526  0.06397365  1
  Zn  Zn136  1  0.80770889  0.06317669  0.56136234  1
  Zn  Zn137  1  0.81517318  0.56709949  0.06109534  1
  Zn  Zn138  1  0.81565163  0.56398350  0.56117945  1
  Zn  Zn139  1  0.44020721  0.43686476  0.19110522  1
  Zn  Zn140  1  0.43714143  0.43627074  0.68782755  1
  Zn  Zn141  1  0.43329716  0.93796674  0.18984137  1
  Zn  Zn142  1  0.43735538  0.93501915  0.69148022  1
  Zn  Zn143  1  0.93863968  0.43850929  0.18645119  1
  Zn  Zn144  1  0.94516045  0.43998568  0.69157757  1
  Zn  Zn145  1  0.93310128  0.93646756  0.19054806  1
  Zn  Zn146  1  0.93747083  0.93881922  0.68980540  1
  Zn  Zn147  1  0.05806085  0.06506524  0.31588445  1
  Zn  Zn148  1  0.06550666  0.06024202  0.81682777  1
  Zn  Zn149  1  0.06652776  0.56415689  0.30247216  1
  Zn  Zn150  1  0.06450331  0.56352879  0.81373046  1
  Zn  Zn151  1  0.55890893  0.06732517  0.31756032  1
  Zn  Zn152  1  0.56518170  0.06109684  0.81067409  1
  Zn  Zn153  1  0.56077964  0.55944673  0.31602490  1
  Zn  Zn154  1  0.56108564  0.56109257  0.81453973  1
  Zn  Zn155  1  0.45563796  0.18230336  0.43408727  1
  Zn  Zn156  1  0.44182480  0.19010815  0.93431268  1
  Zn  Zn157  1  0.44031140  0.68532544  0.43645289  1
  Zn  Zn158  1  0.44062126  0.68393762  0.94262917  1
  Zn  Zn159  1  0.88714173  0.20567354  0.42374544  1
  Zn  Zn160  1  0.93812419  0.18780514  0.93464524  1
  Zn  Zn161  1  0.93972859  0.68868312  0.43634984  1
  Zn  Zn162  1  0.93685785  0.69352569  0.93791076  1
  Zn  Zn163  1  0.06284861  0.30916190  0.06584827  1
  Zn  Zn164  1  0.05504155  0.31341341  0.56666198  1
  Zn  Zn165  1  0.05918266  0.81869648  0.06250399  1
  Zn  Zn166  1  0.06492703  0.81382414  0.56125901  1
  Zn  Zn167  1  0.56445314  0.31286015  0.06951431  1
  Zn  Zn168  1  0.55391959  0.31240142  0.56163865  1
  Zn  Zn169  1  0.55116989  0.80321599  0.05656534  1
  Zn  Zn170  1  0.56336884  0.81046978  0.55893879  1
  O  O171  1  0.11668797  0.12095478  0.11750479  1
  O  O172  1  0.13263461  0.11114721  0.61803885  1
  O  O173  1  0.11623031  0.61634007  0.12424957  1
  O  O174  1  0.12197610  0.61938122  0.61965053  1
  O  O175  1  0.61733909  0.12859365  0.10789683  1
  O  O176  1  0.62536236  0.10540451  0.63842427  1
  O  O177  1  0.61635057  0.62909068  0.11757934  1
  O  O178  1  0.61459520  0.63478231  0.61683681  1
  O  O179  1  0.37663905  0.38799673  0.38015663  1
  O  O180  1  0.38520311  0.38218869  0.87595146  1
  O  O181  1  0.38250262  0.87970599  0.39041018  1
  O  O182  1  0.37979388  0.88230167  0.88190691  1
  O  O183  1  0.88030776  0.38774968  0.38580561  1
  O  O184  1  0.87490983  0.38388900  0.88133583  1
  O  O185  1  0.88138815  0.87592057  0.38650953  1
  O  O186  1  0.87956182  0.88045006  0.88185116  1
  O  O187  1  0.25422770  0.00855281  0.36846084  1
  O  O188  1  0.26054212  0.00624111  0.86753368  1
  O  O189  1  0.26666615  0.50315356  0.37630229  1
  O  O190  1  0.25941049  0.50279951  0.86812135  1
  O  O191  1  0.74959154  -0.01067836  0.35763877  1
  O  O192  1  0.75528646  0.00277652  0.86904284  1
  O  O193  1  0.76201498  0.50701019  0.36606662  1
  O  O194  1  0.76043683  0.50635665  0.86679832  1
  O  O195  1  0.24397194  0.48475010  0.12346260  1
  O  O196  1  0.24221711  0.50762301  0.63751198  1
  O  O197  1  0.25272992  0.99683607  0.14280903  1
  O  O198  1  0.24228912  0.99327010  0.62931454  1
  O  O199  1  0.76047686  0.50295538  0.13807252  1
  O  O200  1  0.75730528  0.50184924  0.64028940  1
  O  O201  1  0.74709852  0.98522751  0.13049794  1
  O  O202  1  0.74339613  0.99180311  0.63201869  1
  O  O203  1  0.00584507  0.36475475  0.24731065  1
  O  O204  1  0.01647985  0.37259633  0.75455124  1
  O  O205  1  -0.00701014  0.86778557  0.26110409  1
  O  O206  1  0.00529594  0.87006247  0.75930712  1
  O  O207  1  0.51144447  0.36674086  0.24627126  1
  O  O208  1  0.50623734  0.37035560  0.75564915  1
  O  O209  1  0.49078655  0.87496616  0.26740100  1
  O  O210  1  0.49743031  0.87163715  0.76632516  1
  O  O211  1  0.49348024  0.13256844  0.23933670  1
  O  O212  1  0.49059615  0.13545605  0.76020963  1
  O  O213  1  0.50617158  0.62661809  0.23793558  1
  O  O214  1  0.48816127  0.62011151  0.74331630  1
  O  O215  1  0.99261525  0.13027170  0.23942493  1
  O  O216  1  1.00702936  0.13636425  0.75505145  1
  O  O217  1  0.99827039  0.63828470  0.23841626  1
  O  O218  1  0.99792197  0.62954382  0.74287518  1
  O  O219  1  0.37156773  0.24920588  0.01063679  1
  O  O220  1  0.37969812  0.25693223  0.50902938  1
  O  O221  1  0.37504531  0.76298338  -0.00162607  1
  O  O222  1  0.36930877  0.75453557  0.50533353  1
  O  O223  1  0.86828014  0.25581701  0.00414746  1
  O  O224  1  0.88555459  0.26351959  0.52287608  1
  O  O225  1  0.86676354  0.76062448  0.00740642  1
  O  O226  1  0.87029165  0.75986565  0.50220167  1
  O  O227  1  0.12228902  0.23537246  0.51285236  1
  O  O228  1  0.13154430  0.24205428  0.99635225  1
  O  O229  1  0.13565938  0.74300211  0.50097003  1
  O  O230  1  0.12481390  0.75163284  0.99012046  1
  O  O231  1  0.63543635  0.23936286  0.53850653  1
  O  O232  1  0.64000536  0.25171442  1.00206937  1
  O  O233  1  0.63189695  0.74134158  0.49221696  1
  O  O234  1  0.62973679  0.74042182  0.99074992  1
  O  O235  1  0.49112401  0.24310555  0.13060275  1
  O  O236  1  0.48457617  0.25386617  0.63954321  1
  O  O237  1  0.49073953  0.73931692  0.12867209  1
  O  O238  1  0.48631872  0.74289306  0.61940017  1
  O  O239  1  0.98858385  0.24006650  0.12953039  1
  O  O240  1  0.98917130  0.25393491  0.63829273  1
  O  O241  1  0.99453033  0.74782413  0.13103752  1
  O  O242  1  1.00312609  0.74157426  0.63152691  1
  O  O243  1  -0.01511248  0.24978434  0.35852115  1
  O  O244  1  0.00671799  0.25282331  0.86715724  1
  O  O245  1  0.00052763  0.75748642  0.36550195  1
  O  O246  1  0.00952928  0.75889945  0.87140080  1
  O  O247  1  0.47771476  0.26281915  0.35341622  1
  O  O248  1  0.49158253  0.26570220  0.86100720  1
  O  O249  1  0.50810254  0.75765227  0.37660215  1
  O  O250  1  0.51006540  0.75558355  0.88113347  1
  O  O251  1  0.24079741  0.12566414  0.49198252  1
  O  O252  1  0.24369734  0.13109470  0.99721412  1
  O  O253  1  0.24348864  0.63608512  0.50599255  1
  O  O254  1  0.25879150  0.62915286  1.00706545  1
  O  O255  1  0.75020023  0.13265042  0.49859709  1
  O  O256  1  0.73772158  0.12848507  0.99481935  1
  O  O257  1  0.74503827  0.63135716  0.49664407  1
  O  O258  1  0.74324729  0.63146147  0.99586561  1
  O  O259  1  0.25400139  0.36546413  0.01239431  1
  O  O260  1  0.26293067  0.37065936  0.49218135  1
  O  O261  1  0.26861914  0.88100319  -0.00262380  1
  O  O262  1  0.25802804  0.86759308  0.50352382  1
  O  O263  1  0.75977053  0.36746295  -0.00219355  1
  O  O264  1  0.76199926  0.37515421  0.50268894  1
  O  O265  1  0.75454732  0.87112876  0.01184016  1
  O  O266  1  0.75762580  0.87343816  0.50765149  1
  O  O267  1  0.11826701  0.48717455  0.23332675  1
  O  O268  1  0.13384252  0.49607779  0.74639364  1
  O  O269  1  0.13917231  1.00625110  0.25334711  1
  O  O270  1  0.13094400  0.99489313  0.74437696  1
  O  O271  1  0.63924222  0.49252706  0.25705686  1
  O  O272  1  0.63640802  0.49440487  0.75767284  1
  O  O273  1  0.63406761  1.00918751  0.25328086  1
  O  O274  1  0.63313380  0.98951980  0.74576794  1
  O  O275  1  0.36522681  0.00580823  0.25847339  1
  O  O276  1  0.37191042  0.00836882  0.75579056  1
  O  O277  1  0.38015366  0.50625297  0.26258108  1
  O  O278  1  0.36874695  0.50590332  0.75734661  1
  O  O279  1  0.86296436  0.00599950  0.24834750  1
  O  O280  1  0.86449626  -0.00642420  0.76160019  1
  O  O281  1  0.86906967  0.50115866  0.25810636  1
  O  O282  1  0.87069646  0.50469260  0.75996605  1
  O  O283  1  0.12391208  0.38324261  0.35913987  1
  O  O284  1  0.12649160  0.36929818  0.86840361  1
  O  O285  1  0.11025835  0.87266641  0.38577531  1
  O  O286  1  0.11814896  0.86869711  0.87209471  1
  O  O287  1  0.62777426  0.37286657  0.35987026  1
  O  O288  1  0.61150879  0.37774962  0.86537107  1
  O  O289  1  0.61342015  0.86524126  0.38697524  1
  O  O290  1  0.61705292  0.86600563  0.87751111  1
  O  O291  1  0.38061754  0.13273967  0.12737032  1
  O  O292  1  0.36968841  0.13072892  0.63887971  1
  O  O293  1  0.38799730  0.61697285  0.14079179  1
  O  O294  1  0.38168927  0.63131811  0.63227921  1
  O  O295  1  0.87955677  0.13027984  0.12598170  1
  O  O296  1  0.87446134  0.13521698  0.62659997  1
  O  O297  1  0.88144612  0.64001939  0.12543081  1
  O  O298  1  0.88849759  0.62613052  0.63024154  1
  O  O299  1  0.25872867  0.25351911  0.12150634  1
  O  O300  1  0.26302785  0.24783362  0.62286119  1
  O  O301  1  0.25846583  0.75932687  0.14285327  1
  O  O302  1  0.26103572  0.75477579  0.61643843  1
  O  O303  1  0.76134397  0.24642556  0.11404355  1
  O  O304  1  0.77421210  0.26214229  0.63742672  1
  O  O305  1  0.75593490  0.76136365  0.12381698  1
  O  O306  1  0.75276546  0.75886877  0.62012119  1
  O  O307  1  0.25608621  0.23696526  0.37731859  1
  O  O308  1  0.24694600  0.24546568  0.88133914  1
  O  O309  1  0.24667949  0.75457273  0.38312630  1
  O  O310  1  0.23540603  0.75051703  0.87254256  1
  O  O311  1  0.78500419  0.24424485  0.38377826  1
  O  O312  1  0.76035890  0.23629686  0.88210710  1
  O  O313  1  0.74433700  0.74821816  0.37987803  1
  O  O314  1  0.74353553  0.74566850  0.88196828  1
  O  O315  1  0.00993749  0.13207200  0.00766807  1
  O  O316  1  0.00666197  0.10942212  0.49418958  1
  O  O317  1  -0.00704711  0.62779263  0.01350773  1
  O  O318  1  0.01080839  0.62684495  0.51016890  1
  O  O319  1  0.51449621  0.13089913  0.00227927  1
  O  O320  1  0.47677672  0.10352199  0.51910384  1
  O  O321  1  0.50803387  0.62601985  0.01595761  1
  O  O322  1  0.50919568  0.62434687  0.50869063  1
  O  O323  1  0.48793404  0.37721246  0.49720469  1
  O  O324  1  0.50224439  0.36560117  0.98534746  1
  O  O325  1  0.49097603  0.87899330  0.49585569  1
  O  O326  1  0.48713746  0.87416163  0.98618115  1
  O  O327  1  0.99510710  0.38263180  0.49651600  1
  O  O328  1  0.98698586  0.37358122  0.99923943  1
  O  O329  1  0.99206367  0.88032119  0.49515133  1
  O  O330  1  0.98678184  0.87033931  0.98784689  1
  O  O331  1  0.49116624  0.49600805  0.38057300  1
  O  O332  1  0.49164548  0.48457655  0.86837945  1
  O  O333  1  0.49279640  0.99060904  0.38761208  1
  O  O334  1  0.49034770  0.99222395  0.86930195  1
  O  O335  1  0.99042192  0.50397561  0.37201247  1
  O  O336  1  0.98948267  0.50095845  0.87761609  1
  O  O337  1  0.99626801  0.99089359  0.38364522  1
  O  O338  1  0.99039518  0.98843795  0.86856162  1
  O  O339  1  -0.00441888  0.01353251  0.12907812  1
  O  O340  1  0.01112538  -0.00856615  0.61738873  1
  O  O341  1  0.00425190  0.51117873  0.12248192  1
  O  O342  1  0.01446609  0.51328562  0.62730170  1
  O  O343  1  0.49263022  0.01570664  0.12878772  1
  O  O344  1  0.51175974  -0.01748588  0.61989779  1
  O  O345  1  0.50220255  0.51041989  0.12773925  1
  O  O346  1  0.49427395  0.51437739  0.62193175  1
  O  O347  1  0.24001185  0.36213457  0.23919895  1
  O  O348  1  0.24026306  0.38598820  0.75591229  1
  O  O349  1  0.25175929  0.88850167  0.25896626  1
  O  O350  1  0.24699432  0.88129240  0.74468763  1
  O  O351  1  0.74648435  0.38430747  0.24471234  1
  O  O352  1  0.74005231  0.38391522  0.75317000  1
  O  O353  1  0.74950911  0.88474918  0.23606836  1
  O  O354  1  0.75135158  0.88189079  0.74038171  1
  O  O355  1  0.25469306  0.12040305  0.25781520  1
  O  O356  1  0.25922839  0.12095226  0.75731282  1
  O  O357  1  0.26523708  0.62428157  0.24986078  1
  O  O358  1  0.26194699  0.61558621  0.75470504  1
  O  O359  1  0.75628219  0.10852227  0.23564038  1
  O  O360  1  0.74384817  0.10986849  0.76165643  1
  O  O361  1  0.75246504  0.61904218  0.25629745  1
  O  O362  1  0.75577667  0.61905394  0.75573539  1
  O  O363  1  0.36797726  0.11818659  0.37095571  1
  O  O364  1  0.37223159  0.12010311  0.86871090  1
  O  O365  1  0.38362761  0.61273725  0.36631140  1
  O  O366  1  0.37928654  0.61721976  0.86850159  1
  O  O367  1  0.88239404  0.11593203  0.35416919  1
  O  O368  1  0.86355038  0.11075857  0.88667963  1
  O  O369  1  0.86954274  0.61916361  0.37501985  1
  O  O370  1  0.87035310  0.61927631  0.87235407  1
  O  O371  1  0.13176458  0.37787860  0.13196282  1
  O  O372  1  0.12091678  0.38826672  0.63399822  1
  O  O373  1  0.12663568  0.88510466  0.11691224  1
  O  O374  1  0.13091723  0.88284405  0.63011435  1
  O  O375  1  0.63051920  0.37169117  0.14028461  1
  O  O376  1  0.62416435  0.38075446  0.63763125  1
  O  O377  1  0.63339653  0.86724907  0.11793855  1
  O  O378  1  0.63687553  0.87741512  0.62395892  1
  O  O379  1  0.11121432  0.25738320  0.24130259  1
  O  O380  1  0.12196608  0.25711849  0.75347404  1
  O  O381  1  0.11771490  0.75142561  0.25382255  1
  O  O382  1  0.12233028  0.75594000  0.75773794  1
  O  O383  1  0.61522165  0.25321218  0.24565563  1
  O  O384  1  0.61386448  0.25998226  0.73986206  1
  O  O385  1  0.62498363  0.74740371  0.26593009  1
  O  O386  1  0.63245684  0.75116042  0.76551859  1
  O  O387  1  0.37902449  0.24522154  0.23692189  1
  O  O388  1  0.37872468  0.24423245  0.74402096  1
  O  O389  1  0.37831276  0.72953962  0.25571280  1
  O  O390  1  0.36596191  0.73979867  0.74113503  1
  O  O391  1  0.87851355  0.24161844  0.23658300  1
  O  O392  1  0.88814147  0.25675860  0.74182227  1
  O  O393  1  0.87872257  0.75282863  0.23900827  1
  O  O394  1  0.88308216  0.74319685  0.75072975  1
  O  O395  1  0.37520210  0.49357182  0.49214890  1
  O  O396  1  0.37397038  0.49611245  0.98707551  1
  O  O397  1  0.37576822  0.98823355  0.50061032  1
  O  O398  1  0.37268735  0.99781437  0.98742647  1
  O  O399  1  0.87892534  0.49727843  0.49093529  1
  O  O400  1  0.87318794  0.49192832  0.99135174  1
  O  O401  1  0.88179129  0.99120689  0.50149132  1
  O  O402  1  0.86465490  0.98758147  0.99065739  1
  O  O403  1  0.13187556  0.01497841  -0.00418770  1
  O  O404  1  0.11881470  0.00576754  0.50797155  1
  O  O405  1  0.12181263  0.48877755  0.01522538  1
  O  O406  1  0.12976773  0.50791088  0.50902366  1
  O  O407  1  0.62572138  0.00891097  0.00061185  1
  O  O408  1  0.61527246  0.00430597  0.50902387  1
  O  O409  1  0.63410325  0.51241735  -0.00664667  1
  O  O410  1  0.62991866  0.51470728  0.49388224  1
  O  O411  1  0.36953541  0.36691646  0.12648785  1
  O  O412  1  0.37605440  0.36924185  0.61595719  1
  O  O413  1  0.37973718  0.87834600  0.10796937  1
  O  O414  1  0.37146636  0.86739829  0.61801789  1
  O  O415  1  0.87308307  0.36581464  0.11575031  1
  O  O416  1  0.87816773  0.38841961  0.61424044  1
  O  O417  1  0.87322318  0.86764336  0.11623441  1
  O  O418  1  0.86715296  0.87501065  0.61681452  1
  O  O419  1  0.13310329  0.12060077  0.38660394  1
  O  O420  1  0.13234661  0.13086844  0.88194751  1
  O  O421  1  0.11890357  0.62380246  0.38968718  1
  O  O422  1  0.12605647  0.64009508  0.87352857  1
  O  O423  1  0.56613058  0.14323560  0.39734647  1
  O  O424  1  0.63438802  0.11972966  0.88751643  1
  O  O425  1  0.63079544  0.63394038  0.38449692  1
  O  O426  1  0.62728818  0.63063538  0.88201980  1
