# generated using pymatgen
data_V85Zn86O256
_symmetry_space_group_name_H-M   'P 1'
_cell_length_a   16.97076303
_cell_length_b   16.96252455
_cell_length_c   16.98391182
_cell_angle_alpha   90.07251011
_cell_angle_beta   90.04483996
_cell_angle_gamma   90.04890436
_symmetry_Int_Tables_number   1
_chemical_formula_structural   V85Zn86O256
_chemical_formula_sum   'V85 Zn86 O256'
_cell_volume   4889.10028480
_cell_formula_units_Z   1
loop_
 _symmetry_equiv_pos_site_id
 _symmetry_equiv_pos_as_xyz
  1  'x, y, z'
loop_
 _atom_site_type_symbol
 _atom_site_label
 _atom_site_symmetry_multiplicity
 _atom_site_fract_x
 _atom_site_fract_y
 _atom_site_fract_z
 _atom_site_occupancy
  V  V0  1  0.75604105  0.12561278  0.37590105  1
  V  V1  1  0.87577487  -0.00365161  0.87252792  1
  V  V2  1  0.49795037  0.00123049  0.49603371  1
  V  V3  1  0.50152992  0.37590969  0.37169291  1
  V  V4  1  0.49689815  0.88018195  0.36945343  1
  V  V5  1  0.63054353  0.49111584  0.13514861  1
  V  V6  1  0.62556903  0.12444799  0.50558420  1
  V  V7  1  0.25678028  0.00930870  0.75022253  1
  V  V8  1  0.73964055  0.90470482  0.10611985  1
  V  V9  1  0.87047360  0.87328183  0.51151583  1
  V  V10  1  0.74576046  0.12458290  0.86911338  1
  V  V11  1  0.38278719  0.50180154  0.87394838  1
  V  V12  1  0.87495608  0.25567270  0.62421588  1
  V  V13  1  0.12442282  0.38101451  0.75047281  1
  V  V14  1  0.37950907  0.24895364  0.63823180  1
  V  V15  1  0.49341961  0.74863367  0.24582465  1
  V  V16  1  -0.00631451  0.37479645  0.38055440  1
  V  V17  1  0.62744598  0.50194909  0.63098035  1
  V  V18  1  0.12906814  0.12257672  0.00162424  1
  V  V19  1  0.87682953  0.87147097  -0.00130815  1
  V  V20  1  0.49729870  0.50375462  0.50095332  1
  V  V21  1  0.00072364  -0.00149821  0.00096436  1
  V  V22  1  0.87483646  0.37238923  0.00380402  1
  V  V23  1  0.37904858  0.87869671  -0.00088187  1
  V  V24  1  -0.00444378  0.24118577  0.25046012  1
  V  V25  1  0.00529730  0.49758480  0.01221037  1
  V  V26  1  0.62016614  0.37281278  0.74997754  1
  V  V27  1  0.37900298  0.00478256  0.87267560  1
  V  V28  1  0.74477239  0.24731065  -0.00315053  1
  V  V29  1  0.75294320  0.73858890  -0.00332523  1
  V  V30  1  0.37641128  0.74509879  0.12286385  1
  V  V31  1  0.50073643  0.62306345  0.12427468  1
  V  V32  1  0.87333060  0.61796146  0.24811259  1
  V  V33  1  0.12417517  0.12459093  0.50012495  1
  V  V34  1  0.62928910  -0.01543695  0.62897698  1
  V  V35  1  0.74956282  -0.02696308  0.74634377  1
  V  V36  1  0.50311107  0.87810005  0.87591833  1
  V  V37  1  0.24561148  0.50556535  0.75599088  1
  V  V38  1  0.12712805  0.24751106  0.87789240  1
  V  V39  1  0.87164849  0.75012280  0.13149725  1
  V  V40  1  0.75361240  0.00459736  0.25476056  1
  V  V41  1  0.11990391  0.62353506  0.50034474  1
  V  V42  1  0.25965866  0.11651291  0.36873152  1
  V  V43  1  -0.00154962  0.74906789  0.73727060  1
  V  V44  1  0.13494460  -0.00269169  0.13079135  1
  V  V45  1  0.10607719  0.75346922  0.37224480  1
  V  V46  1  0.62239677  0.25442577  0.37767504  1
  V  V47  1  0.37374993  0.88047221  0.49225404  1
  V  V48  1  0.12756699  0.38496820  0.24658001  1
  V  V49  1  0.61916562  0.24787482  0.86983540  1
  V  V50  1  0.62524279  0.74903553  0.87416838  1
  V  V51  1  0.25120680  0.74738339  -0.00416534  1
  V  V52  1  0.24860135  0.75288523  0.49315219  1
  V  V53  1  0.12981459  0.87759268  0.75131624  1
  V  V54  1  0.74650943  0.61948494  0.36660233  1
  V  V55  1  0.52125368  0.11559742  0.12028924  1
  V  V56  1  0.75431424  0.25576510  0.50290837  1
  V  V57  1  -0.00163305  -0.00625940  0.49936869  1
  V  V58  1  0.62732226  0.61880107  -0.00492817  1
  V  V59  1  0.87560070  0.23766385  0.12573930  1
  V  V60  1  -0.00128133  0.37621684  0.87931720  1
  V  V61  1  0.62607119  0.74992056  0.36922803  1
  V  V62  1  0.12534346  0.24942564  0.37364781  1
  V  V63  1  0.11495405  0.87141017  0.25392973  1
  V  V64  1  0.49639722  0.62681190  0.62621157  1
  V  V65  1  0.25118318  0.62821413  0.36787792  1
  V  V66  1  0.37563278  0.37049148  0.00233079  1
  V  V67  1  -0.00058321  0.12608748  0.62495956  1
  V  V68  1  0.49802517  0.12886296  0.63798958  1
  V  V69  1  0.50132916  0.75616151  0.74873027  1
  V  V70  1  0.12685789  0.62316397  0.00293743  1
  V  V71  1  0.75165369  0.38075877  0.62842866  1
  V  V72  1  0.00214503  0.63058632  0.12963225  1
  V  V73  1  0.49193899  0.24620589  0.25240515  1
  V  V74  1  0.36853321  0.62857559  0.75465329  1
  V  V75  1  -0.00100723  0.24924021  0.75098625  1
  V  V76  1  0.25013080  0.25064933  0.50151988  1
  V  V77  1  0.75112454  0.75561979  0.50423860  1
  V  V78  1  0.37198312  0.50553125  0.36696868  1
  V  V79  1  0.12853095  0.74572278  0.87486914  1
  V  V80  1  0.37234643  0.37629944  0.50237786  1
  V  V81  1  0.87785483  -0.00615766  0.37672437  1
  V  V82  1  0.25199423  0.87864629  0.62252282  1
  V  V83  1  0.86981246  0.49502978  0.37860895  1
  V  V84  1  0.63014551  0.88059567  0.24461511  1
  Zn  Zn85  1  0.12545050  0.00381346  0.62705060  1
  Zn  Zn86  1  0.37362995  0.75161576  0.62295911  1
  Zn  Zn87  1  0.25685739  0.87744359  0.13436225  1
  Zn  Zn88  1  0.50145253  0.49421748  -0.00119397  1
  Zn  Zn89  1  0.24538983  0.38079380  0.12158039  1
  Zn  Zn90  1  0.24910636  0.51281403  0.23826992  1
  Zn  Zn91  1  -0.00554830  0.49546487  0.50406726  1
  Zn  Zn92  1  0.85901494  0.50804535  0.87426290  1
  Zn  Zn93  1  -0.00082491  0.11857460  0.13237150  1
  Zn  Zn94  1  0.49586196  0.36609387  0.86842758  1
  Zn  Zn95  1  0.37119007  0.24238924  0.12957553  1
  Zn  Zn96  1  0.24934081  0.25060228  0.00604594  1
  Zn  Zn97  1  0.26096365  0.12930234  0.87337503  1
  Zn  Zn98  1  0.24950351  0.37627982  0.62734290  1
  Zn  Zn99  1  0.37491712  0.10071546  0.24067523  1
  Zn  Zn100  1  0.85790691  0.60484956  0.73987893  1
  Zn  Zn101  1  0.00183113  0.87428643  0.87221864  1
  Zn  Zn102  1  0.87510513  0.12074647  0.74725881  1
  Zn  Zn103  1  0.75232251  0.37806075  0.14219754  1
  Zn  Zn104  1  0.62427034  0.62587486  0.49815095  1
  Zn  Zn105  1  -0.01250083  0.62211548  0.62081113  1
  Zn  Zn106  1  0.12309587  0.50162533  0.62378930  1
  Zn  Zn107  1  0.18976648  0.19015681  0.18704928  1
  Zn  Zn108  1  0.18849720  0.19142438  0.68673668  1
  Zn  Zn109  1  0.18730677  0.69794055  0.18788403  1
  Zn  Zn110  1  0.18549174  0.69016841  0.68293099  1
  Zn  Zn111  1  0.69237369  0.21071254  0.19749056  1
  Zn  Zn112  1  0.68758112  0.18619812  0.69041678  1
  Zn  Zn113  1  0.68729708  0.68546757  0.18321622  1
  Zn  Zn114  1  0.68014190  0.69164656  0.68279040  1
  Zn  Zn115  1  0.31075433  0.31350534  0.31502338  1
  Zn  Zn116  1  0.30820151  0.31780605  0.81661250  1
  Zn  Zn117  1  0.30454791  0.93178005  0.30621507  1
  Zn  Zn118  1  0.31338794  0.81532582  0.81276334  1
  Zn  Zn119  1  0.81007648  0.31260070  0.30856816  1
  Zn  Zn120  1  0.81152315  0.31707066  0.80989550  1
  Zn  Zn121  1  0.81512133  0.81556878  0.31340237  1
  Zn  Zn122  1  0.79340408  0.76695293  0.78767043  1
  Zn  Zn123  1  0.18704056  0.44004871  0.43305376  1
  Zn  Zn124  1  0.19052020  0.44246597  0.93745343  1
  Zn  Zn125  1  0.18001833  0.93745295  0.43584059  1
  Zn  Zn126  1  0.19371321  0.93617388  0.93801719  1
  Zn  Zn127  1  0.68575533  0.44007431  0.44288014  1
  Zn  Zn128  1  0.68593990  0.43113026  0.94143619  1
  Zn  Zn129  1  0.68435416  0.93755611  0.43680552  1
  Zn  Zn130  1  0.69460365  0.93093710  0.93297596  1
  Zn  Zn131  1  0.31931239  0.06466640  0.06299668  1
  Zn  Zn132  1  0.31361502  0.06728985  0.56312238  1
  Zn  Zn133  1  0.31095820  0.55870031  0.06065844  1
  Zn  Zn134  1  0.30621723  0.56299905  0.56391468  1
  Zn  Zn135  1  0.80127829  0.06336580  0.05439704  1
  Zn  Zn136  1  0.81204620  0.06158547  0.56681394  1
  Zn  Zn137  1  0.81299247  0.55617614  0.06225871  1
  Zn  Zn138  1  0.81139190  0.56900290  0.55882930  1
  Zn  Zn139  1  0.44027276  0.43713612  0.18638933  1
  Zn  Zn140  1  0.43672302  0.44077285  0.68896976  1
  Zn  Zn141  1  0.44721980  0.93941041  0.17720940  1
  Zn  Zn142  1  0.43860510  0.94057167  0.68360466  1
  Zn  Zn143  1  0.93920596  0.43391782  0.19193879  1
  Zn  Zn144  1  0.93768657  0.44293269  0.68795994  1
  Zn  Zn145  1  0.93337897  0.93749193  0.18685889  1
  Zn  Zn146  1  0.93815668  0.93428643  0.68684178  1
  Zn  Zn147  1  0.06481168  0.05920026  0.31501040  1
  Zn  Zn148  1  0.06409537  0.06318396  0.81289390  1
  Zn  Zn149  1  0.05781323  0.56504492  0.31637799  1
  Zn  Zn150  1  0.02336775  0.57913628  0.82965257  1
  Zn  Zn151  1  0.56548821  0.06770025  0.30914201  1
  Zn  Zn152  1  0.56895872  0.05702452  0.81121837  1
  Zn  Zn153  1  0.55927224  0.56155751  0.30951488  1
  Zn  Zn154  1  0.69284977  0.57014111  0.81347861  1
  Zn  Zn155  1  0.43618559  0.18759644  0.44572687  1
  Zn  Zn156  1  0.44531202  0.18305893  0.94636915  1
  Zn  Zn157  1  0.43449751  0.69153910  0.43451668  1
  Zn  Zn158  1  0.44083750  0.68571961  0.93616175  1
  Zn  Zn159  1  0.93764760  0.18613059  0.43945277  1
  Zn  Zn160  1  0.93733441  0.18268507  0.93818433  1
  Zn  Zn161  1  0.93047748  0.68420602  0.43968400  1
  Zn  Zn162  1  0.93950336  0.68851994  0.93431028  1
  Zn  Zn163  1  0.06168694  0.30784143  0.06713467  1
  Zn  Zn164  1  0.06231671  0.31273537  0.56335311  1
  Zn  Zn165  1  0.06246237  0.81311355  0.06600641  1
  Zn  Zn166  1  0.06538215  0.81678716  0.56061359  1
  Zn  Zn167  1  0.55850323  0.30662374  0.06146899  1
  Zn  Zn168  1  0.56008027  0.31409343  0.56391875  1
  Zn  Zn169  1  0.56498844  0.81222874  0.05846966  1
  Zn  Zn170  1  0.55984528  0.81041587  0.55641296  1
  O  O171  1  0.12440462  0.11667043  0.11767808  1
  O  O172  1  0.11802945  0.12730065  0.61814318  1
  O  O173  1  0.11316686  0.64040747  0.11523032  1
  O  O174  1  0.12539938  0.62703604  0.60797552  1
  O  O175  1  0.61784053  0.13855759  0.14281627  1
  O  O176  1  0.61940925  0.12301141  0.61686437  1
  O  O177  1  0.61983269  0.61626176  0.11568228  1
  O  O178  1  0.61389521  0.61861958  0.62238529  1
  O  O179  1  0.38023259  0.38332929  0.38565097  1
  O  O180  1  0.37646289  0.38150323  0.88231793  1
  O  O181  1  0.37876797  0.87914592  0.38657536  1
  O  O182  1  0.38325554  0.88068853  0.88131214  1
  O  O183  1  0.88031795  0.38292450  0.36410136  1
  O  O184  1  0.88642318  0.36763722  0.88754459  1
  O  O185  1  0.87043028  0.88646642  0.38748403  1
  O  O186  1  0.87735329  0.88875087  0.88245942  1
  O  O187  1  0.24614954  0.01291404  0.37738960  1
  O  O188  1  0.26120236  0.00027128  0.86687251  1
  O  O189  1  0.25633214  0.51130313  0.37197786  1
  O  O190  1  0.25997347  0.49907724  0.86223227  1
  O  O191  1  0.75648435  0.00645746  0.37388926  1
  O  O192  1  0.75490542  0.00334222  0.86405809  1
  O  O193  1  0.75219548  0.51015128  0.37977540  1
  O  O194  1  0.74697119  0.50540840  0.88614144  1
  O  O195  1  0.25290345  0.49416799  0.12920985  1
  O  O196  1  0.24404858  0.49723815  0.63844501  1
  O  O197  1  0.23862055  0.99776498  0.11722973  1
  O  O198  1  0.25066334  0.99743142  0.63331851  1
  O  O199  1  0.73692775  0.49460861  0.12335324  1
  O  O200  1  0.73895577  0.48998736  0.60904416  1
  O  O201  1  0.77597795  1.00532845  0.15257803  1
  O  O202  1  0.74206501  1.00247140  0.63552019  1
  O  O203  1  0.00914213  0.36611057  0.26035576  1
  O  O204  1  0.00733728  0.36947941  0.76179030  1
  O  O205  1  0.01402527  0.87861048  0.24199410  1
  O  O206  1  0.01505396  0.87007571  0.74868946  1
  O  O207  1  0.49418443  0.36765256  0.26672701  1
  O  O208  1  0.51568684  0.38151632  0.74890730  1
  O  O209  1  0.51329837  0.86686636  0.24938607  1
  O  O210  1  0.49064828  0.86337277  0.75803513  1
  O  O211  1  0.49347374  0.13146073  0.24797736  1
  O  O212  1  0.50534725  0.11828253  0.73614444  1
  O  O213  1  0.50773840  0.63698705  0.23578461  1
  O  O214  1  0.48601502  0.63896592  0.73651662  1
  O  O215  1  1.00653430  0.13710882  0.25200337  1
  O  O216  1  0.99974029  0.13115700  0.74381025  1
  O  O217  1  0.98933435  0.62118628  0.23896855  1
  O  O218  1  1.01972251  0.64544145  0.73803753  1
  O  O219  1  0.37307704  0.26250733  -0.00435176  1
  O  O220  1  0.36966133  0.26181813  0.50621800  1
  O  O221  1  0.36940617  0.75472105  0.00203709  1
  O  O222  1  0.36582997  0.76166293  0.49844697  1
  O  O223  1  0.87454973  0.25598593  0.00528924  1
  O  O224  1  0.86406862  0.24523238  0.51011354  1
  O  O225  1  0.86995912  0.74984717  0.00383572  1
  O  O226  1  0.85854327  0.75739886  0.49143582  1
  O  O227  1  0.12824675  0.24643542  0.49120371  1
  O  O228  1  0.12303344  0.24096421  0.99400000  1
  O  O229  1  0.12916445  0.74772965  0.49130128  1
  O  O230  1  0.13185464  0.74747884  0.99410531  1
  O  O231  1  0.63095115  0.24270291  0.49698237  1
  O  O232  1  0.63857729  0.26022712  0.98779134  1
  O  O233  1  0.63041766  0.75163664  0.48307780  1
  O  O234  1  0.63264223  0.73954764  0.99573150  1
  O  O235  1  0.49868488  0.24842669  0.14218290  1
  O  O236  1  0.49211823  0.24109656  0.61872689  1
  O  O237  1  0.49784820  0.74335746  0.12669595  1
  O  O238  1  0.49971302  0.74497413  0.62996385  1
  O  O239  1  0.99338303  0.24449105  0.13353767  1
  O  O240  1  0.99194823  0.24745056  0.62890318  1
  O  O241  1  0.98344844  0.74151782  0.11601374  1
  O  O242  1  1.00563323  0.75479413  0.63496657  1
  O  O243  1  0.00395338  0.25382535  0.37032756  1
  O  O244  1  0.00826774  0.25594019  0.87357903  1
  O  O245  1  0.00737919  0.74585288  0.37875694  1
  O  O246  1  0.01567043  0.75603663  0.86704223  1
  O  O247  1  0.50249558  0.25774366  0.37838697  1
  O  O248  1  0.51570098  0.24598435  0.87911239  1
  O  O249  1  0.50577694  0.75566552  0.36469677  1
  O  O250  1  0.50513258  0.75729818  0.86806793  1
  O  O251  1  0.24362282  0.13048806  0.49169431  1
  O  O252  1  0.23853980  0.12550195  0.99647657  1
  O  O253  1  0.24173485  0.63347205  0.49183697  1
  O  O254  1  0.24021227  0.63722362  1.00572291  1
  O  O255  1  0.74171834  0.13279818  0.49854171  1
  O  O256  1  0.75644077  0.13603091  0.97939750  1
  O  O257  1  0.74624879  0.63912660  0.48405303  1
  O  O258  1  0.74273043  0.63034145  1.00462841  1
  O  O259  1  0.26266180  0.37473307  -0.00214304  1
  O  O260  1  0.25760114  0.37153001  0.49921794  1
  O  O261  1  0.26033895  0.86280705  0.00289871  1
  O  O262  1  0.25469431  0.87280846  0.50055156  1
  O  O263  1  0.76284985  0.36355362  0.00144320  1
  O  O264  1  0.74222107  0.36236067  0.51083137  1
  O  O265  1  0.75869724  0.85342530  0.00228504  1
  O  O266  1  0.75321703  0.86274471  0.49139816  1
  O  O267  1  0.12272098  0.48712987  0.25867433  1
  O  O268  1  0.12949702  0.49015152  0.75680903  1
  O  O269  1  0.11878369  0.99247871  0.23932541  1
  O  O270  1  0.13504448  0.99215492  0.75158670  1
  O  O271  1  0.62031033  0.50157164  0.23434766  1
  O  O272  1  0.63360244  0.49627540  0.73537439  1
  O  O273  1  0.63778320  0.98902115  0.25971730  1
  O  O274  1  0.63776104  0.99710133  0.74087659  1
  O  O275  1  0.38271389  -0.01090279  0.25297316  1
  O  O276  1  0.36718806  -0.00634585  0.75935572  1
  O  O277  1  0.37407625  0.49357642  0.26478303  1
  O  O278  1  0.36695842  0.50789830  0.75433194  1
  O  O279  1  0.86988782  -0.00637117  0.26808491  1
  O  O280  1  0.86790003  -0.00283373  0.75617084  1
  O  O281  1  0.87435757  0.50964367  0.25692795  1
  O  O282  1  0.87089221  0.49233096  0.75981190  1
  O  O283  1  0.11678265  0.36616184  0.36844523  1
  O  O284  1  0.11888386  0.36603905  0.87282257  1
  O  O285  1  0.12217668  0.86935397  0.36354475  1
  O  O286  1  0.12801988  0.86869481  0.86567905  1
  O  O287  1  0.61267399  0.36605262  0.38837390  1
  O  O288  1  0.62469919  0.36603211  0.86536948  1
  O  O289  1  0.62039235  0.86732754  0.36430015  1
  O  O290  1  0.61419098  0.86365528  0.88701740  1
  O  O291  1  0.39026804  0.12651104  0.12590929  1
  O  O292  1  0.38580873  0.13687554  0.61860263  1
  O  O293  1  0.38769178  0.63590927  0.11243792  1
  O  O294  1  0.38077536  0.62682156  0.63080703  1
  O  O295  1  0.87941448  0.13480359  0.11393678  1
  O  O296  1  0.88018834  0.13696744  0.62639067  1
  O  O297  1  0.87949942  0.62942075  0.13094905  1
  O  O298  1  0.87446553  0.62605891  0.62929985  1
  O  O299  1  0.25449227  0.26027332  0.12374295  1
  O  O300  1  0.25924504  0.25269732  0.61856176  1
  O  O301  1  0.26247542  0.75142619  0.11610261  1
  O  O302  1  0.24911189  0.75844151  0.60922469  1
  O  O303  1  0.76104540  0.24031292  0.10526500  1
  O  O304  1  0.75552907  0.25638926  0.62026470  1
  O  O305  1  0.75982302  0.74666610  0.11394379  1
  O  O306  1  0.73601122  0.74939944  0.60156425  1
  O  O307  1  0.24114258  0.24304805  0.38120750  1
  O  O308  1  0.23773194  0.24768075  0.87729123  1
  O  O309  1  0.23896790  0.74345428  0.38743330  1
  O  O310  1  0.24094884  0.75439616  0.88355024  1
  O  O311  1  0.74376776  0.24424265  0.38682808  1
  O  O312  1  0.74545675  0.24430145  0.87751498  1
  O  O313  1  0.74015419  0.74326384  0.37438186  1
  O  O314  1  0.73726261  0.75542057  0.88751502  1
  O  O315  1  0.01173749  0.11374112  -0.00058552  1
  O  O316  1  0.00467944  0.11865066  0.50655804  1
  O  O317  1  0.00575170  0.61628750  0.01092432  1
  O  O318  1  0.00861628  0.62382978  0.49883866  1
  O  O319  1  0.51382500  0.13607490  0.02125905  1
  O  O320  1  0.50921643  0.11773908  0.50547545  1
  O  O321  1  0.51088071  0.62559284  0.00822707  1
  O  O322  1  0.49720954  0.62487092  0.51014337  1
  O  O323  1  0.49028226  0.38202864  0.49320291  1
  O  O324  1  0.48755663  0.37383510  0.99331846  1
  O  O325  1  0.49284316  0.88145677  0.49168930  1
  O  O326  1  0.48996454  0.86619926  0.98906543  1
  O  O327  1  1.00377356  0.37282149  0.48415224  1
  O  O328  1  0.99639480  0.37818869  0.99949212  1
  O  O329  1  0.99139327  0.88715601  0.50485354  1
  O  O330  1  0.99598267  0.88382954  0.99873328  1
  O  O331  1  0.49261552  0.49607892  0.37954396  1
  O  O332  1  0.48481190  0.49464740  0.87524782  1
  O  O333  1  0.51328054  0.99611859  0.38960418  1
  O  O334  1  0.49501308  0.98685655  0.86678569  1
  O  O335  1  0.98868359  0.49068460  0.37514949  1
  O  O336  1  1.00601123  0.48256465  0.89181260  1
  O  O337  1  0.99005351  1.01013447  0.38959545  1
  O  O338  1  0.99410976  0.99849021  0.88243280  1
  O  O339  1  0.00603732  0.00016273  0.11400413  1
  O  O340  1  -0.00021114  0.00778159  0.61658378  1
  O  O341  1  -0.00426671  0.50890656  0.11817477  1
  O  O342  1  0.00669389  0.50088911  0.61952225  1
  O  O343  1  0.51550210  0.01401725  0.12719387  1
  O  O344  1  0.50916743  0.00727058  0.61658469  1
  O  O345  1  0.50675009  0.50972035  0.12309868  1
  O  O346  1  0.50581197  0.50953048  0.62179386  1
  O  O347  1  0.23320765  0.37649786  0.25681157  1
  O  O348  1  0.23927528  0.38491272  0.75084114  1
  O  O349  1  0.22774783  0.87688168  0.24618641  1
  O  O350  1  0.24596923  0.88331790  0.74387549  1
  O  O351  1  0.72988381  0.31973732  0.23407136  1
  O  O352  1  0.73976904  0.37225537  0.73538242  1
  O  O353  1  0.74442142  0.88492125  0.24329178  1
  O  O354  1  0.75499771  0.87438723  0.75442997  1
  O  O355  1  0.25366867  0.13002182  0.26569939  1
  O  O356  1  0.24430981  0.11346662  0.75322464  1
  O  O357  1  0.24130118  0.62950631  0.26372119  1
  O  O358  1  0.25876578  0.62038660  0.74238719  1
  O  O359  1  0.74190496  0.11976330  0.26978255  1
  O  O360  1  0.75596153  0.12269622  0.75981949  1
  O  O361  1  0.75684474  0.62837482  0.25817761  1
  O  O362  1  0.75387949  0.65450431  0.75972227  1
  O  O363  1  0.36013453  0.12850280  0.38111161  1
  O  O364  1  0.37957110  0.10911088  0.88671559  1
  O  O365  1  0.36448340  0.61722346  0.38108628  1
  O  O366  1  0.38031804  0.61954654  0.86241447  1
  O  O367  1  0.86220653  0.11459123  0.38773468  1
  O  O368  1  0.87062515  0.11064015  0.87283344  1
  O  O369  1  0.86650338  0.61786497  0.36525121  1
  O  O370  1  0.90995833  0.61280465  0.85736005  1
  O  O371  1  0.12030330  0.37069891  0.14417691  1
  O  O372  1  0.12490173  0.37263558  0.63989719  1
  O  O373  1  0.12745640  0.88019765  0.13267643  1
  O  O374  1  0.13425178  0.87960775  0.63419464  1
  O  O375  1  0.61920973  0.39051477  0.11667488  1
  O  O376  1  0.62955212  0.38197980  0.62992638  1
  O  O377  1  0.63755028  0.86701107  0.13226201  1
  O  O378  1  0.61938476  0.88609114  0.61806665  1
  O  O379  1  0.11761632  0.25657613  0.26022509  1
  O  O380  1  0.12050841  0.25776302  0.75969367  1
  O  O381  1  0.12115961  0.76171592  0.25711712  1
  O  O382  1  0.12646185  0.76038898  0.75638306  1
  O  O383  1  0.60542310  0.23860759  0.27568760  1
  O  O384  1  0.62998760  0.26012721  0.75776315  1
  O  O385  1  0.62111163  0.75767011  0.25404251  1
  O  O386  1  0.61168411  0.74660093  0.76143564  1
  O  O387  1  0.38447014  0.24999286  0.25503790  1
  O  O388  1  0.36993057  0.26109740  0.73685018  1
  O  O389  1  0.39041248  0.75642723  0.23415084  1
  O  O390  1  0.37879871  0.74471509  0.74752061  1
  O  O391  1  0.88698916  0.25274377  0.23910854  1
  O  O392  1  0.88141222  0.24981173  0.74133024  1
  O  O393  1  0.86749422  0.74051976  0.23922832  1
  O  O394  1  0.90046315  0.75784264  0.75606900  1
  O  O395  1  0.37660832  0.49363875  0.49405579  1
  O  O396  1  0.37574263  0.49117299  0.99025707  1
  O  O397  1  0.38821337  0.99404980  0.50659906  1
  O  O398  1  0.36843923  0.98511915  0.99031504  1
  O  O399  1  0.87445604  0.50529448  0.48207444  1
  O  O400  1  0.88585353  0.48766322  1.00041233  1
  O  O401  1  0.87853740  0.99312769  0.49744888  1
  O  O402  1  0.88288105  0.99500646  0.99339199  1
  O  O403  1  0.11964465  0.00307100  0.00484835  1
  O  O404  1  0.11398574  0.00461958  0.50248045  1
  O  O405  1  0.11809099  0.51070856  -0.00182420  1
  O  O406  1  0.12352456  0.51186281  0.49654663  1
  O  O407  1  0.70543453  -0.02042913  0.03764912  1
  O  O408  1  0.62132703  0.00711907  0.50874671  1
  O  O409  1  0.62055613  0.50750867  0.00725833  1
  O  O410  1  0.61452106  0.50398974  0.50975024  1
  O  O411  1  0.37977367  0.37471099  0.10888838  1
  O  O412  1  0.37671591  0.37117154  0.61488457  1
  O  O413  1  0.38022073  0.86381475  0.11315879  1
  O  O414  1  0.37027141  0.87478648  0.61160755  1
  O  O415  1  0.87556003  0.36477144  0.11760351  1
  O  O416  1  0.86655363  0.36387844  0.62816379  1
  O  O417  1  0.86008912  0.87084458  0.11766359  1
  O  O418  1  0.87251904  0.87680503  0.61133177  1
  O  O419  1  0.13264334  0.13322008  0.37976971  1
  O  O420  1  0.12484647  0.13341134  0.88372201  1
  O  O421  1  0.12929362  0.63385453  0.38103465  1
  O  O422  1  0.11450224  0.63573635  0.89120676  1
  O  O423  1  0.63233771  0.13085157  0.39069165  1
  O  O424  1  0.63564563  0.13299235  0.86694563  1
  O  O425  1  0.62875859  0.63294722  0.37189132  1
  O  O426  1  0.62077354  0.63693919  0.88604073  1
