# generated using pymatgen
data_V85Zn86O256
_symmetry_space_group_name_H-M   'P 1'
_cell_length_a   16.96449295
_cell_length_b   16.96855762
_cell_length_c   16.97275680
_cell_angle_alpha   90.03468395
_cell_angle_beta   89.96827983
_cell_angle_gamma   89.96938791
_symmetry_Int_Tables_number   1
_chemical_formula_structural   V85Zn86O256
_chemical_formula_sum   'V85 Zn86 O256'
_cell_volume   4885.82594497
_cell_formula_units_Z   1
loop_
 _symmetry_equiv_pos_site_id
 _symmetry_equiv_pos_as_xyz
  1  'x, y, z'
loop_
 _atom_site_type_symbol
 _atom_site_label
 _atom_site_symmetry_multiplicity
 _atom_site_fract_x
 _atom_site_fract_y
 _atom_site_fract_z
 _atom_site_occupancy
  V  V0  1  0.13460849  0.38034208  0.74200368  1
  V  V1  1  0.50633246  0.25467289  0.75287264  1
  V  V2  1  0.12165134  0.00253283  0.12186178  1
  V  V3  1  0.74863448  0.61711866  0.87232613  1
  V  V4  1  0.87599871  0.61743134  0.25105942  1
  V  V5  1  -0.00065961  0.12473181  0.11943657  1
  V  V6  1  0.50136952  0.37588196  0.37477033  1
  V  V7  1  0.37779625  0.12203146  0.75190346  1
  V  V8  1  0.37383150  0.87470285  0.50203910  1
  V  V9  1  0.12730880  0.74427497  0.87744915  1
  V  V10  1  0.75702257  -0.00297957  0.76204621  1
  V  V11  1  0.49605160  0.37924886  0.87779594  1
  V  V12  1  0.24682768  0.88273305  0.62443319  1
  V  V13  1  0.12928259  0.48668149  0.13073311  1
  V  V14  1  0.24474344  0.75004254  0.50612548  1
  V  V15  1  0.37901890  0.37301120  0.50285724  1
  V  V16  1  0.75103300  0.74706829  0.49910415  1
  V  V17  1  0.49059715  0.63304023  0.62918548  1
  V  V18  1  0.61894864  0.62362993  -0.00323722  1
  V  V19  1  0.87541605  0.37324285  -0.00162965  1
  V  V20  1  0.24286807  0.25309723  0.00614380  1
  V  V21  1  0.86551399  0.12070827  0.25002363  1
  V  V22  1  0.62282644  0.25491754  0.87598319  1
  V  V23  1  0.12320354  0.25110924  0.37172112  1
  V  V24  1  -0.00004008  0.50042751  -0.00419258  1
  V  V25  1  0.12310850  0.87787301  0.74987910  1
  V  V26  1  0.75194406  0.37388022  0.64107563  1
  V  V27  1  0.00144325  0.24881015  0.72703225  1
  V  V28  1  0.87255461  0.24901657  0.12341980  1
  V  V29  1  0.00187754  0.25403361  0.24813008  1
  V  V30  1  0.38107959  0.88115596  0.00222704  1
  V  V31  1  0.62602044  0.62365422  0.49985694  1
  V  V32  1  0.87534200  0.74896639  0.12215312  1
  V  V33  1  0.62430464  0.37467213  0.24839630  1
  V  V34  1  0.38584022  -0.00079249  0.88030189  1
  V  V35  1  0.11191247  0.12745931  0.50614374  1
  V  V36  1  0.62685395  0.24907313  0.37350835  1
  V  V37  1  0.61325456  0.11544185  -0.00435657  1
  V  V38  1  0.75218061  0.87165261  0.62250108  1
  V  V39  1  0.75022635  0.87935819  0.12857562  1
  V  V40  1  0.24832889  0.87371485  0.12625412  1
  V  V41  1  0.25176321  0.00753002  0.25021778  1
  V  V42  1  0.38030157  0.63360431  0.25452005  1
  V  V43  1  0.24430080  0.12668395  0.88016426  1
  V  V44  1  0.00046792  0.74611835  0.74945393  1
  V  V45  1  0.62710069  -0.00409087  0.62566460  1
  V  V46  1  -0.00677772  0.37895251  0.37141043  1
  V  V47  1  0.62287039  0.86114384  0.76005867  1
  V  V48  1  0.37612410  0.00860552  0.37071752  1
  V  V49  1  0.50117303  0.49889978  0.50242726  1
  V  V50  1  0.01541139  0.61797878  0.62185253  1
  V  V51  1  0.00055223  0.75274883  0.25608099  1
  V  V52  1  0.87501085  0.74369763  0.62360278  1
  V  V53  1  0.74674880  0.24815956  -0.00019934  1
  V  V54  1  0.25432708  0.51976940  0.74783507  1
  V  V55  1  0.62091182  0.74901578  0.36670992  1
  V  V56  1  0.86950506  0.38827968  0.49705892  1
  V  V57  1  0.62886405  0.49604372  0.64201100  1
  V  V58  1  0.50030550  0.87156165  0.36791922  1
  V  V59  1  -0.00187429  0.00158854  -0.00359359  1
  V  V60  1  0.36983937  0.51018836  0.87674345  1
  V  V61  1  0.87381179  0.87747736  -0.00497577  1
  V  V62  1  0.24752662  0.00319223  0.75185256  1
  V  V63  1  0.75332833  0.61765358  0.37273048  1
  V  V64  1  0.75802164  0.25239709  0.49994914  1
  V  V65  1  0.24191720  0.62905124  0.37594174  1
  V  V66  1  0.50225099  -0.00011564  0.50237209  1
  V  V67  1  0.11876115  0.87560702  0.25778607  1
  V  V68  1  0.50198312  0.63188671  0.13120012  1
  V  V69  1  0.74809887  0.37535255  0.12370628  1
  V  V70  1  0.62005756  0.49999367  0.12128376  1
  V  V71  1  0.62975085  0.12411011  0.50120446  1
  V  V72  1  -0.00422465  0.87736116  0.87348750  1
  V  V73  1  0.50575754  0.12301987  0.62781337  1
  V  V74  1  0.62136103  0.00100808  0.13283833  1
  V  V75  1  0.87588927  -0.01078279  0.37137610  1
  V  V76  1  0.74483169  0.74730976  -0.00679010  1
  V  V77  1  0.24919953  0.74684939  0.00004081  1
  V  V78  1  0.25228072  0.24765372  0.50070114  1
  V  V79  1  0.00513211  0.62627645  0.12127505  1
  V  V80  1  0.02100054  0.50084925  0.49844338  1
  V  V81  1  0.37777399  0.24972627  0.62713540  1
  V  V82  1  0.87256046  0.61357685  0.74889424  1
  V  V83  1  0.37307273  0.37665661  0.00988153  1
  V  V84  1  0.00456943  0.37077836  0.87210335  1
  Zn  Zn85  1  0.25050270  0.38403319  0.61911746  1
  Zn  Zn86  1  0.47025602  0.73396256  0.76386633  1
  Zn  Zn87  1  0.48090497  0.23749447  0.25277541  1
  Zn  Zn88  1  0.13507712  0.61908477  -0.00448433  1
  Zn  Zn89  1  0.37251680  0.50297817  0.37381977  1
  Zn  Zn90  1  0.50684950  0.86302126  0.88448124  1
  Zn  Zn91  1  0.88697649  0.86495304  0.48828374  1
  Zn  Zn92  1  0.88937615  0.11862986  0.74066832  1
  Zn  Zn93  1  0.12636176  0.24777809  0.87316364  1
  Zn  Zn94  1  0.00115103  -0.01527196  0.49934981  1
  Zn  Zn95  1  0.25289569  0.49276256  0.24020532  1
  Zn  Zn96  1  0.11400652  0.75653348  0.38650049  1
  Zn  Zn97  1  0.38284321  0.75609244  0.13043112  1
  Zn  Zn98  1  0.75466970  0.49596799  0.25105110  1
  Zn  Zn99  1  0.75855918  0.11883318  0.87838397  1
  Zn  Zn100  1  0.86931164  0.49053335  0.86545117  1
  Zn  Zn101  1  0.10792935  0.01373227  0.63339765  1
  Zn  Zn102  1  0.74804831  0.11689800  0.37236464  1
  Zn  Zn103  1  0.62759564  0.87598059  0.25100842  1
  Zn  Zn104  1  0.25422534  0.13068496  0.36990593  1
  Zn  Zn105  1  0.48750572  0.12149922  0.13176801  1
  Zn  Zn106  1  0.36813079  0.23820657  0.13498948  1
  Zn  Zn107  1  0.18461569  0.18855086  0.18492990  1
  Zn  Zn108  1  0.18917644  0.19244571  0.68862581  1
  Zn  Zn109  1  0.18703789  0.68621002  0.19159280  1
  Zn  Zn110  1  0.19128775  0.69595349  0.68633133  1
  Zn  Zn111  1  0.67869636  0.18691802  0.18571837  1
  Zn  Zn112  1  0.73068202  0.16577706  0.66319934  1
  Zn  Zn113  1  0.69077998  0.68803867  0.18500641  1
  Zn  Zn114  1  0.68625787  0.68162720  0.68751431  1
  Zn  Zn115  1  0.30634521  0.32243918  0.30779406  1
  Zn  Zn116  1  0.31642776  0.31193077  0.81697664  1
  Zn  Zn117  1  0.30999442  0.81507701  0.31639839  1
  Zn  Zn118  1  0.31067197  0.81167235  0.81716986  1
  Zn  Zn119  1  0.81281228  0.31049830  0.31079227  1
  Zn  Zn120  1  0.82367049  0.28997883  0.81802868  1
  Zn  Zn121  1  0.81132258  0.80468188  0.30995355  1
  Zn  Zn122  1  0.81202162  0.80522475  0.80923264  1
  Zn  Zn123  1  0.19603206  0.42872316  0.41561647  1
  Zn  Zn124  1  0.19000483  0.43770626  0.93469088  1
  Zn  Zn125  1  0.18676958  0.94403077  0.43702598  1
  Zn  Zn126  1  0.18787129  0.93710504  0.93645545  1
  Zn  Zn127  1  0.68498199  0.43791162  0.44047047  1
  Zn  Zn128  1  0.68506602  0.43763982  0.93778577  1
  Zn  Zn129  1  0.69330738  0.93644426  0.43538454  1
  Zn  Zn130  1  0.68588118  0.93512264  0.94025926  1
  Zn  Zn131  1  0.30988375  0.06449558  0.06054900  1
  Zn  Zn132  1  0.31240092  0.06277414  0.56317600  1
  Zn  Zn133  1  0.31765863  0.56197595  0.06531865  1
  Zn  Zn134  1  0.31108156  0.56324943  0.56199765  1
  Zn  Zn135  1  0.80904749  0.06265368  0.06080078  1
  Zn  Zn136  1  0.82889181  0.05989896  0.56182269  1
  Zn  Zn137  1  0.81174687  0.56057503  0.06184195  1
  Zn  Zn138  1  0.81146424  0.55919490  0.56499358  1
  Zn  Zn139  1  0.43813102  0.44427649  0.19213367  1
  Zn  Zn140  1  0.43625208  0.44092739  0.69131823  1
  Zn  Zn141  1  0.43739800  0.94336349  0.18703159  1
  Zn  Zn142  1  0.41780904  0.90316404  0.70920959  1
  Zn  Zn143  1  0.94045873  0.43709097  0.18205543  1
  Zn  Zn144  1  0.94051395  0.43181038  0.67971133  1
  Zn  Zn145  1  0.93425772  0.93683813  0.18739255  1
  Zn  Zn146  1  0.93724726  0.93634016  0.68149648  1
  Zn  Zn147  1  0.05705851  0.06518933  0.31398023  1
  Zn  Zn148  1  0.06060579  0.06618582  0.81338910  1
  Zn  Zn149  1  0.06194422  0.56334073  0.31266149  1
  Zn  Zn150  1  0.06465703  0.55998182  0.80854746  1
  Zn  Zn151  1  0.56296120  0.06044209  0.31354824  1
  Zn  Zn152  1  0.56888997  0.05821421  0.80814845  1
  Zn  Zn153  1  0.56499885  0.56067243  0.31039188  1
  Zn  Zn154  1  0.55675724  0.56585404  0.81691763  1
  Zn  Zn155  1  0.44204446  0.18758204  0.43878948  1
  Zn  Zn156  1  0.43136337  0.19053958  0.94272273  1
  Zn  Zn157  1  0.43567359  0.68984505  0.44237345  1
  Zn  Zn158  1  0.43702160  0.69267475  0.94579773  1
  Zn  Zn159  1  0.93196266  0.18723565  0.43385697  1
  Zn  Zn160  1  0.93435633  0.18485583  0.92975190  1
  Zn  Zn161  1  0.93734645  0.67849731  0.43928335  1
  Zn  Zn162  1  0.93462290  0.68649382  0.93365219  1
  Zn  Zn163  1  0.06269751  0.31202036  0.06073190  1
  Zn  Zn164  1  0.06717495  0.32186490  0.55481954  1
  Zn  Zn165  1  0.06342217  0.81391472  0.06361404  1
  Zn  Zn166  1  0.05987185  0.81343223  0.56629373  1
  Zn  Zn167  1  0.55460499  0.30815998  0.06445609  1
  Zn  Zn168  1  0.57025173  0.31166988  0.56676076  1
  Zn  Zn169  1  0.56537230  0.81078192  0.06464914  1
  Zn  Zn170  1  0.56477659  0.81247012  0.55902076  1
  O  O171  1  0.11050600  0.11396221  0.12868242  1
  O  O172  1  0.13157063  0.12965516  0.60935229  1
  O  O173  1  0.11340856  0.62332932  0.12096561  1
  O  O174  1  0.11382697  0.62865590  0.63037581  1
  O  O175  1  0.63060964  0.11159336  0.11162949  1
  O  O176  1  0.62660891  0.11672272  0.61989404  1
  O  O177  1  0.62194720  0.61924606  0.12032832  1
  O  O178  1  0.62304278  0.61026894  0.61953740  1
  O  O179  1  0.39085712  0.37853305  0.38602814  1
  O  O180  1  0.38067373  0.38145948  0.88378948  1
  O  O181  1  0.38121645  0.88436863  0.38209346  1
  O  O182  1  0.37267043  0.88529188  0.88838749  1
  O  O183  1  0.88543951  0.37067022  0.38083498  1
  O  O184  1  0.88603216  0.37364379  0.87993938  1
  O  O185  1  0.87140702  0.88484518  0.36654919  1
  O  O186  1  0.88542337  0.86551443  0.88282728  1
  O  O187  1  0.25869141  0.00357223  0.36684515  1
  O  O188  1  0.25514807  0.00779432  0.87198499  1
  O  O189  1  0.25690118  0.53018301  0.40306048  1
  O  O190  1  0.26000497  0.49996153  0.86356757  1
  O  O191  1  0.76529712  0.00172952  0.37525305  1
  O  O192  1  0.75231076  -0.00709456  0.86558739  1
  O  O193  1  0.74079633  0.51417468  0.37189909  1
  O  O194  1  0.75423164  0.51081385  0.88199763  1
  O  O195  1  0.23341175  0.50639680  0.12393692  1
  O  O196  1  0.26064110  0.49909871  0.64275929  1
  O  O197  1  0.23913037  0.99322681  0.12962527  1
  O  O198  1  0.24177355  0.99711891  0.63104840  1
  O  O199  1  0.74109576  0.49323740  0.12579187  1
  O  O200  1  0.73735985  0.48985590  0.62513507  1
  O  O201  1  0.73981357  0.98751946  0.11409557  1
  O  O202  1  0.74611664  0.98452594  0.63122106  1
  O  O203  1  -0.00863677  0.36353529  0.25559035  1
  O  O204  1  0.01508397  0.37377210  0.75245147  1
  O  O205  1  0.00670807  0.86380001  0.24043986  1
  O  O206  1  0.00181436  0.86823934  0.75669027  1
  O  O207  1  0.50644726  0.38024395  0.26380066  1
  O  O208  1  0.49205680  0.36330020  0.76133975  1
  O  O209  1  0.50106112  0.87986035  0.26478227  1
  O  O210  1  0.52222456  0.87690214  0.74755265  1
  O  O211  1  0.51488876  0.12937753  0.24394422  1
  O  O212  1  0.49722696  0.13064605  0.74675076  1
  O  O213  1  0.49200607  0.62236698  0.24540161  1
  O  O214  1  0.50412868  0.62669702  0.73466414  1
  O  O215  1  0.99018777  0.13388168  0.23860413  1
  O  O216  1  1.00589534  0.14409989  0.74976781  1
  O  O217  1  0.99491166  0.63161322  0.24034387  1
  O  O218  1  0.99429732  0.62564302  0.74170212  1
  O  O219  1  0.36394337  0.26303757  0.00451619  1
  O  O220  1  0.37115448  0.25273676  0.50527831  1
  O  O221  1  0.36369337  0.76190031  0.00814397  1
  O  O222  1  0.36422279  0.76793885  0.49520975  1
  O  O223  1  0.86916195  0.25369680  0.00531166  1
  O  O224  1  0.86311566  0.26155935  0.49366449  1
  O  O225  1  0.86926992  0.75777104  0.00352431  1
  O  O226  1  0.86842572  0.74514616  0.50521311  1
  O  O227  1  0.13300062  0.24440482  0.49423197  1
  O  O228  1  0.13900730  0.25832151  0.99422095  1
  O  O229  1  0.14047182  0.75652974  0.50029155  1
  O  O230  1  0.13119260  0.75203799  0.99325569  1
  O  O231  1  0.63212723  0.24669723  0.49030396  1
  O  O232  1  0.62682478  0.23909427  0.99448468  1
  O  O233  1  0.63249824  0.74305190  0.49018958  1
  O  O234  1  0.63670305  0.73957137  1.00517815  1
  O  O235  1  0.49186300  0.24566010  0.13228335  1
  O  O236  1  0.50033231  0.24453733  0.63383549  1
  O  O237  1  0.50265372  0.73767454  0.12834342  1
  O  O238  1  0.50817718  0.73305718  0.61884138  1
  O  O239  1  0.99547643  0.24344027  0.12784528  1
  O  O240  1  1.00927660  0.25629194  0.62847900  1
  O  O241  1  0.99625395  0.74262573  0.12962826  1
  O  O242  1  0.99521731  0.73750225  0.63008637  1
  O  O243  1  0.00169810  0.25497248  0.36467282  1
  O  O244  1  0.00568252  0.26313828  0.87437549  1
  O  O245  1  -0.00022592  0.73909312  0.36022699  1
  O  O246  1  0.00639110  0.75792197  0.87081835  1
  O  O247  1  0.51087759  0.25987412  0.37770935  1
  O  O248  1  0.50236542  0.25672515  0.87153145  1
  O  O249  1  0.51000466  0.76006609  0.38517778  1
  O  O250  1  0.49536141  0.75071259  0.87192326  1
  O  O251  1  0.24652217  0.13740216  0.49634457  1
  O  O252  1  0.25503025  0.14047746  0.99044369  1
  O  O253  1  0.25971013  0.64625610  0.49844794  1
  O  O254  1  0.25139540  0.64286818  1.00988938  1
  O  O255  1  0.74568944  0.13717767  0.50054985  1
  O  O256  1  0.74134148  0.13067078  0.99576948  1
  O  O257  1  0.74628765  0.62690757  0.49216450  1
  O  O258  1  0.74462476  0.63057158  0.99449676  1
  O  O259  1  0.26018210  0.36293986  -0.00813574  1
  O  O260  1  0.25819611  0.36374334  0.49850548  1
  O  O261  1  0.25423552  0.87080772  0.01065488  1
  O  O262  1  0.25324699  0.87309790  0.50410592  1
  O  O263  1  0.75501879  0.36865541  0.00447690  1
  O  O264  1  0.75521129  0.37036290  0.49955088  1
  O  O265  1  0.75658355  0.86614698  0.00369109  1
  O  O266  1  0.75355470  0.86531877  0.50907050  1
  O  O267  1  0.11977279  0.50593055  0.23177581  1
  O  O268  1  0.14263092  0.49094760  0.75625443  1
  O  O269  1  0.12641138  0.99418373  0.24216171  1
  O  O270  1  0.12873652  0.99547255  0.75130996  1
  O  O271  1  0.62954395  0.49315295  0.23967483  1
  O  O272  1  0.62091991  0.50185464  0.73998343  1
  O  O273  1  0.63113123  0.99847631  0.23550699  1
  O  O274  1  0.63646070  0.98392683  0.74468623  1
  O  O275  1  0.36269814  -0.00740718  0.25957892  1
  O  O276  1  0.36726609  0.00160274  0.76071252  1
  O  O277  1  0.37031128  0.51511412  0.25443114  1
  O  O278  1  0.36316173  0.49747430  0.76288886  1
  O  O279  1  0.88069715  0.00906514  0.25823138  1
  O  O280  1  0.85964234  -0.00392957  0.74697624  1
  O  O281  1  0.87722522  0.51325694  0.24226519  1
  O  O282  1  0.88375403  0.50953155  0.74729560  1
  O  O283  1  0.10363769  0.35790117  0.38688610  1
  O  O284  1  0.11855792  0.37581844  0.86395628  1
  O  O285  1  0.12983016  0.87612729  0.36106013  1
  O  O286  1  0.11411852  0.86786330  0.87107132  1
  O  O287  1  0.61903212  0.36865088  0.37161114  1
  O  O288  1  0.60999552  0.36553313  0.88806281  1
  O  O289  1  0.61871752  0.86771712  0.37489133  1
  O  O290  1  0.62554258  0.87381431  0.86508360  1
  O  O291  1  0.37472862  0.12280414  0.12555065  1
  O  O292  1  0.38387642  0.12905165  0.63108477  1
  O  O293  1  0.38594068  0.62621291  0.13335075  1
  O  O294  1  0.39219296  0.62307696  0.61964771  1
  O  O295  1  0.88120496  0.12785596  0.12928369  1
  O  O296  1  0.83997787  0.13553246  0.64045412  1
  O  O297  1  0.88461845  0.62862327  0.12913921  1
  O  O298  1  0.88037827  0.62583380  0.63142542  1
  O  O299  1  0.24606151  0.24729775  0.11006170  1
  O  O300  1  0.25916079  0.25365681  0.61572842  1
  O  O301  1  0.24405149  0.76349255  0.12071525  1
  O  O302  1  0.24793964  0.76548298  0.61386173  1
  O  O303  1  0.75207324  0.25538268  0.11882763  1
  O  O304  1  0.73491854  0.26962388  0.61130128  1
  O  O305  1  0.75566943  0.75564141  0.11256343  1
  O  O306  1  0.75384820  0.75158810  0.61896387  1
  O  O307  1  0.23971685  0.24975952  0.38297272  1
  O  O308  1  0.25174330  0.24169429  0.88274427  1
  O  O309  1  0.24722937  0.74513259  0.38716562  1
  O  O310  1  0.23839610  0.76066565  0.88708758  1
  O  O311  1  0.74067482  0.25057989  0.38248093  1
  O  O312  1  0.73433073  0.25512594  0.88203745  1
  O  O313  1  0.74233309  0.73981190  0.37933622  1
  O  O314  1  0.75741333  0.73622752  0.88637790  1
  O  O315  1  -0.01097583  0.11465837  0.00729253  1
  O  O316  1  0.01212366  0.13707634  0.49995374  1
  O  O317  1  -0.00167229  0.61720887  0.00624532  1
  O  O318  1  0.00195565  0.60861616  0.50402823  1
  O  O319  1  0.51231977  0.12892663  0.00220486  1
  O  O320  1  0.50939626  0.12035724  0.50753161  1
  O  O321  1  0.51227798  0.62943690  0.01216823  1
  O  O322  1  0.50519068  0.61649685  0.50759947  1
  O  O323  1  0.50120265  0.38044731  0.49599364  1
  O  O324  1  0.48267887  0.36930168  0.99084302  1
  O  O325  1  0.49240042  0.88071588  0.49483149  1
  O  O326  1  0.48505033  0.86925007  1.00508043  1
  O  O327  1  0.99031344  0.38699903  0.49491414  1
  O  O328  1  0.99713828  0.38157541  0.99199638  1
  O  O329  1  1.00007840  0.86876541  0.49232187  1
  O  O330  1  0.99214597  0.88007820  0.99419595  1
  O  O331  1  0.50406667  0.49253742  0.38680113  1
  O  O332  1  0.48449170  0.48956542  0.86640424  1
  O  O333  1  0.49573847  0.99158889  0.38205407  1
  O  O334  1  0.48811461  0.99517635  0.86937514  1
  O  O335  1  1.00660442  0.49188224  0.38517672  1
  O  O336  1  1.00131283  0.49096635  0.88204340  1
  O  O337  1  0.98254070  1.00720940  0.37854010  1
  O  O338  1  1.00557274  0.99006125  0.88421656  1
  O  O339  1  0.00311987  0.00535213  0.11762051  1
  O  O340  1  -0.00306349  0.00210577  0.61556040  1
  O  O341  1  0.00907416  0.50599139  0.11482759  1
  O  O342  1  0.00001705  0.50329090  0.60772717  1
  O  O343  1  0.51796760  -0.00262705  0.12484295  1
  O  O344  1  0.51006251  0.00575227  0.61958146  1
  O  O345  1  0.51324105  0.51158087  0.12959679  1
  O  O346  1  0.51063497  0.50458661  0.62111896  1
  O  O347  1  0.23732258  0.40705499  0.30913723  1
  O  O348  1  0.24001075  0.37190585  0.75026730  1
  O  O349  1  0.24064915  0.88381295  0.24263232  1
  O  O350  1  0.24203520  0.88417643  0.74240541  1
  O  O351  1  0.74493952  0.37544376  0.24234530  1
  O  O352  1  0.75968507  0.36326937  0.73804285  1
  O  O353  1  0.74961118  0.86449737  0.23155991  1
  O  O354  1  0.74374325  0.87711839  0.74502995  1
  O  O355  1  0.23924113  0.11054875  0.25063073  1
  O  O356  1  0.25774093  0.12306929  0.75741123  1
  O  O357  1  0.25531424  0.62312432  0.26533897  1
  O  O358  1  0.24924329  0.61872547  0.74768602  1
  O  O359  1  0.76253829  0.13246473  0.24643364  1
  O  O360  1  0.73406650  0.09940503  0.75826861  1
  O  O361  1  0.76000115  0.62467322  0.25463723  1
  O  O362  1  0.76021318  0.62913273  0.76011736  1
  O  O363  1  0.37776022  0.11225288  0.37905542  1
  O  O364  1  0.36899343  0.11730225  0.87245730  1
  O  O365  1  0.37034260  0.62921531  0.36919322  1
  O  O366  1  0.38082962  0.60801696  0.88675860  1
  O  O367  1  0.87027591  0.11926193  0.36444734  1
  O  O368  1  0.86262920  0.15515320  0.84944179  1
  O  O369  1  0.86459017  0.62989487  0.36295338  1
  O  O370  1  0.86945365  0.61888275  0.86594776  1
  O  O371  1  0.12044554  0.38754470  0.12451273  1
  O  O372  1  0.12975564  0.37729194  0.63791492  1
  O  O373  1  0.12951380  0.88401725  0.13347511  1
  O  O374  1  0.13353080  0.87865580  0.63203453  1
  O  O375  1  0.62700655  0.38117389  0.12659158  1
  O  O376  1  0.63431635  0.38816223  0.62537215  1
  O  O377  1  0.63174799  0.88532843  0.12291938  1
  O  O378  1  0.63644469  0.87496470  0.62967545  1
  O  O379  1  0.11212363  0.24303067  0.25752660  1
  O  O380  1  0.11849733  0.26322620  0.75151591  1
  O  O381  1  0.11624594  0.75923674  0.25006531  1
  O  O382  1  0.12089364  0.75724423  0.75819927  1
  O  O383  1  0.62836470  0.25799414  0.26242540  1
  O  O384  1  0.61181123  0.24341948  0.76632596  1
  O  O385  1  0.62991549  0.75117134  0.26296663  1
  O  O386  1  0.63080271  0.76129578  0.74740132  1
  O  O387  1  0.36878711  0.25915678  0.24766325  1
  O  O388  1  0.38532693  0.24223611  0.74724705  1
  O  O389  1  0.36506234  0.73953455  0.24697405  1
  O  O390  1  0.38167927  0.79468319  0.73524562  1
  O  O391  1  0.88302479  0.24228533  0.24268694  1
  O  O392  1  0.90268132  0.26777522  0.73986675  1
  O  O393  1  0.88293233  0.74036748  0.24166758  1
  O  O394  1  0.88213006  0.73641995  0.74435649  1
  O  O395  1  0.38917369  0.49377108  0.50283482  1
  O  O396  1  0.36128552  0.48686746  0.98700060  1
  O  O397  1  0.37967934  0.99494629  0.49029871  1
  O  O398  1  0.36729009  0.99132711  0.99205291  1
  O  O399  1  0.87442289  0.49082221  0.49540065  1
  O  O400  1  0.88755024  0.49274352  1.00113483  1
  O  O401  1  0.87581623  0.99267238  0.48504703  1
  O  O402  1  0.88387813  0.98757159  1.00402479  1
  O  O403  1  0.11217253  -0.00978314  0.01186350  1
  O  O404  1  0.12272424  0.02058510  0.49469604  1
  O  O405  1  0.11734932  0.50134817  0.00652637  1
  O  O406  1  0.11824276  0.48767093  0.49676584  1
  O  O407  1  0.62521983  0.01135968  0.00208044  1
  O  O408  1  0.62315406  0.00320041  0.50449758  1
  O  O409  1  0.62964264  0.51052424  0.01150929  1
  O  O410  1  0.61494261  0.50380648  0.50679186  1
  O  O411  1  0.37734297  0.38790511  0.10994536  1
  O  O412  1  0.37772647  0.36781966  0.61931313  1
  O  O413  1  0.36395508  0.87873091  0.12151982  1
  O  O414  1  0.35866536  0.89363399  0.60957879  1
  O  O415  1  0.87011964  0.36843043  0.11837558  1
  O  O416  1  0.85724842  0.38274587  0.61395477  1
  O  O417  1  0.86911826  0.87036692  0.11447436  1
  O  O418  1  0.86302628  0.86119131  0.62867636  1
  O  O419  1  0.12329126  0.13785506  0.38445988  1
  O  O420  1  0.13978321  0.12677284  0.87194470  1
  O  O421  1  0.13866969  0.63126291  0.37132815  1
  O  O422  1  0.11765755  0.63984889  0.87671824  1
  O  O423  1  0.62781017  0.13306748  0.38205410  1
  O  O424  1  0.62422164  0.12988916  0.88669718  1
  O  O425  1  0.63058231  0.63165165  0.37864992  1
  O  O426  1  0.63307464  0.61588402  0.88679756  1
