# generated using pymatgen
data_V85Zn86O256
_symmetry_space_group_name_H-M   'P 1'
_cell_length_a   16.95345226
_cell_length_b   16.93933081
_cell_length_c   16.93927513
_cell_angle_alpha   90.01283790
_cell_angle_beta   90.05734283
_cell_angle_gamma   89.82754543
_symmetry_Int_Tables_number   1
_chemical_formula_structural   V85Zn86O256
_chemical_formula_sum   'V85 Zn86 O256'
_cell_volume   4864.59874920
_cell_formula_units_Z   1
loop_
 _symmetry_equiv_pos_site_id
 _symmetry_equiv_pos_as_xyz
  1  'x, y, z'
loop_
 _atom_site_type_symbol
 _atom_site_label
 _atom_site_symmetry_multiplicity
 _atom_site_fract_x
 _atom_site_fract_y
 _atom_site_fract_z
 _atom_site_occupancy
  V  V0  1  -0.00216435  0.11969394  0.12034778  1
  V  V1  1  0.62491115  0.61870191  0.50596034  1
  V  V2  1  0.37242183  -0.00208686  0.37623402  1
  V  V3  1  0.75215311  0.25077093  0.50610083  1
  V  V4  1  -0.00174758  0.50353222  -0.01279711  1
  V  V5  1  0.87342328  0.12964336  0.74772776  1
  V  V6  1  -0.00450421  0.25287924  0.24184595  1
  V  V7  1  0.74961045  0.50043058  0.74362746  1
  V  V8  1  0.87734671  -0.00265914  0.37355166  1
  V  V9  1  0.00578422  0.75046288  0.75401602  1
  V  V10  1  0.12670335  0.51542354  0.12079699  1
  V  V11  1  0.75514746  0.74940123  0.00656424  1
  V  V12  1  0.24713969  0.13003472  0.38168916  1
  V  V13  1  0.12708402  0.25165396  0.37894592  1
  V  V14  1  0.49956980  0.11872540  0.12429314  1
  V  V15  1  0.74709579  -0.00455718  0.73888329  1
  V  V16  1  0.62407800  0.12132669  0.00187840  1
  V  V17  1  0.75832655  0.62962411  0.37126426  1
  V  V18  1  0.38918084  0.50254879  0.37644215  1
  V  V19  1  0.62146163  0.75460805  0.36829038  1
  V  V20  1  0.49661804  0.37771401  0.87574708  1
  V  V21  1  0.74152976  0.00068756  0.24724615  1
  V  V22  1  0.37237347  0.24910101  0.12253150  1
  V  V23  1  0.36879115  0.24602306  0.61903264  1
  V  V24  1  0.74442956  0.87923854  0.12376539  1
  V  V25  1  -0.00389613  0.25399326  0.75076142  1
  V  V26  1  0.50043139  -0.00155235  -0.00088928  1
  V  V27  1  0.12348179  0.24654582  0.87481733  1
  V  V28  1  0.62420965  0.12571930  0.50065499  1
  V  V29  1  0.87581712  0.37213268  0.50692459  1
  V  V30  1  0.12472766  -0.00008974  0.62341589  1
  V  V31  1  0.87742122  0.87396108  0.00331686  1
  V  V32  1  0.75228917  0.75592293  0.50646425  1
  V  V33  1  0.24610298  0.24461602  -0.00451601  1
  V  V34  1  0.87737940  0.62071239  0.75542914  1
  V  V35  1  0.50429640  -0.00345395  0.50108792  1
  V  V36  1  0.36658323  -0.00132210  0.87491806  1
  V  V37  1  0.87817366  0.00031297  0.87945473  1
  V  V38  1  0.37589198  0.87215957  0.50087475  1
  V  V39  1  0.12332528  0.87366824  0.74915425  1
  V  V40  1  0.24888700  -0.00203279  0.75228666  1
  V  V41  1  0.74915889  0.12432581  0.87534017  1
  V  V42  1  0.87182771  0.87858888  0.50712315  1
  V  V43  1  0.37189209  0.37968853  -0.00568613  1
  V  V44  1  0.25483649  0.51527000  0.25749814  1
  V  V45  1  0.37729506  0.61513363  0.76191409  1
  V  V46  1  0.23315250  0.62654510  0.88093803  1
  V  V47  1  -0.01651210  0.62994776  0.12748127  1
  V  V48  1  0.62631276  0.37922549  0.74807687  1
  V  V49  1  0.62432997  0.62376859  0.00186214  1
  V  V50  1  0.00070755  -0.00256140  0.49553860  1
  V  V51  1  0.75517839  0.61916722  0.87677824  1
  V  V52  1  0.36893115  0.12285246  0.75477767  1
  V  V53  1  0.25093193  0.87109031  0.62432427  1
  V  V54  1  -0.00042334  0.37644275  0.37303191  1
  V  V55  1  0.87164110  0.13236798  0.24361273  1
  V  V56  1  0.37074339  0.12452264  0.24832856  1
  V  V57  1  0.74422486  0.13135888  0.37462333  1
  V  V58  1  0.50319798  0.11808257  0.62911214  1
  V  V59  1  0.37985005  0.74545391  0.13827006  1
  V  V60  1  0.50224559  0.74792582  0.74949981  1
  V  V61  1  -0.00330423  0.12998283  0.62351641  1
  V  V62  1  0.63034684  0.87623737  0.73598821  1
  V  V63  1  0.49812436  0.50127704  0.00082619  1
  V  V64  1  0.00013622  0.62721714  0.62336958  1
  V  V65  1  0.12969441  0.50040385  0.62464334  1
  V  V66  1  0.00081913  0.87394728  0.87722282  1
  V  V67  1  0.75308172  0.50200845  0.24447186  1
  V  V68  1  0.62590165  0.24999726  0.87900006  1
  V  V69  1  0.49808669  0.62590549  0.14064943  1
  V  V70  1  0.62607103  0.74991361  0.87503610  1
  V  V71  1  -0.01696293  0.75127833  0.25306022  1
  V  V72  1  0.50133114  0.87359612  0.87344870  1
  V  V73  1  0.24485978  0.37768612  0.12619107  1
  V  V74  1  0.87753010  0.37431538  -0.00805042  1
  V  V75  1  0.24350927  0.00030498  0.24961617  1
  V  V76  1  0.25106384  0.87469381  0.12598923  1
  V  V77  1  0.37756839  0.74038895  0.62379029  1
  V  V78  1  0.87956533  0.50710536  0.36998242  1
  V  V79  1  0.12191059  0.11479994  -0.00126132  1
  V  V80  1  0.50281008  0.25439977  0.25346703  1
  V  V81  1  0.12987461  0.75625292  0.37053269  1
  V  V82  1  0.13173113  0.62613796  0.49301622  1
  V  V83  1  0.25030173  0.36789847  0.61641917  1
  V  V84  1  0.12232190  0.37472838  0.75461144  1
  Zn  Zn85  1  0.25651816  0.74269805  0.49211750  1
  Zn  Zn86  1  0.50695013  0.60892240  0.62863346  1
  Zn  Zn87  1  0.75711425  0.36035257  0.12733632  1
  Zn  Zn88  1  0.76420763  0.24576737  0.00940810  1
  Zn  Zn89  1  0.12378754  0.37946366  0.24881720  1
  Zn  Zn90  1  0.11862066  -0.00520497  0.12086792  1
  Zn  Zn91  1  0.51254546  0.47905856  0.50281883  1
  Zn  Zn92  1  0.62822749  0.37329652  0.25148756  1
  Zn  Zn93  1  0.24421847  0.74157244  -0.00023371  1
  Zn  Zn94  1  0.12753493  0.12993346  0.50308616  1
  Zn  Zn95  1  0.75278245  0.37359684  0.62766218  1
  Zn  Zn96  1  0.61669335  0.87489488  0.23970796  1
  Zn  Zn97  1  0.38193230  0.36574391  0.48873446  1
  Zn  Zn98  1  0.25900814  0.49187480  0.75831526  1
  Zn  Zn99  1  0.62395229  0.49579352  0.12739877  1
  Zn  Zn100  1  0.49347360  0.86606131  0.36665006  1
  Zn  Zn101  1  -0.00021665  0.50195689  0.49844471  1
  Zn  Zn102  1  0.56297824  0.31186522  0.41354481  1
  Zn  Zn103  1  0.11151845  0.87971411  0.25292502  1
  Zn  Zn104  1  0.49759623  0.24880974  0.75311084  1
  Zn  Zn105  1  0.87349008  0.75794556  0.62942695  1
  Zn  Zn106  1  0.37818199  0.86650790  -0.00064263  1
  Zn  Zn107  1  0.18146683  0.18915393  0.18682415  1
  Zn  Zn108  1  0.18626121  0.18527819  0.68843408  1
  Zn  Zn109  1  0.18813545  0.69250818  0.18945415  1
  Zn  Zn110  1  0.19264609  0.68544881  0.68984502  1
  Zn  Zn111  1  0.68414985  0.18604139  0.18346307  1
  Zn  Zn112  1  0.68642949  0.18796165  0.68909545  1
  Zn  Zn113  1  0.68920601  0.68470510  0.18571192  1
  Zn  Zn114  1  0.69004605  0.68887933  0.68785851  1
  Zn  Zn115  1  0.31493901  0.31577427  0.31136713  1
  Zn  Zn116  1  0.30877061  0.30924799  0.80928556  1
  Zn  Zn117  1  0.31057316  0.81113551  0.31185492  1
  Zn  Zn118  1  0.31358634  0.80814729  0.81146162  1
  Zn  Zn119  1  0.81006962  0.31630824  0.31763071  1
  Zn  Zn120  1  0.81291976  0.31612769  0.82152514  1
  Zn  Zn121  1  0.80852441  0.81753642  0.31518330  1
  Zn  Zn122  1  0.81304975  0.81010507  0.81328038  1
  Zn  Zn123  1  0.18910576  0.43878493  0.43655004  1
  Zn  Zn124  1  0.18384813  0.44337920  0.93683712  1
  Zn  Zn125  1  0.18754995  0.93567063  0.43851412  1
  Zn  Zn126  1  0.17353016  0.90529860  0.95333605  1
  Zn  Zn127  1  0.69567013  0.43774779  0.43217164  1
  Zn  Zn128  1  0.68969746  0.43687282  0.93942559  1
  Zn  Zn129  1  0.68881162  0.94009669  0.43812952  1
  Zn  Zn130  1  0.68909269  0.93707431  0.93054889  1
  Zn  Zn131  1  0.31000675  0.05903798  0.05998816  1
  Zn  Zn132  1  0.31387502  0.05917910  0.56449305  1
  Zn  Zn133  1  0.31308049  0.56552728  0.06210054  1
  Zn  Zn134  1  0.31652056  0.55504745  0.55937144  1
  Zn  Zn135  1  0.81092782  0.06056582  0.06384639  1
  Zn  Zn136  1  0.81342930  0.06488578  0.56229646  1
  Zn  Zn137  1  0.81903878  0.55921119  0.05897920  1
  Zn  Zn138  1  0.81435337  0.56348283  0.56040202  1
  Zn  Zn139  1  0.43211599  0.43881707  0.18655901  1
  Zn  Zn140  1  0.44097678  0.43426752  0.68049962  1
  Zn  Zn141  1  0.43427029  0.93544439  0.18927104  1
  Zn  Zn142  1  0.43845626  0.93362996  0.68773601  1
  Zn  Zn143  1  0.93501641  0.44013939  0.17983414  1
  Zn  Zn144  1  0.93922021  0.44235884  0.68994190  1
  Zn  Zn145  1  0.93144259  0.93751888  0.18690011  1
  Zn  Zn146  1  0.93654572  0.94308735  0.68853645  1
  Zn  Zn147  1  0.06086362  0.06822551  0.31128059  1
  Zn  Zn148  1  0.06291725  0.06163436  0.81370991  1
  Zn  Zn149  1  0.06577290  0.56748747  0.30599355  1
  Zn  Zn150  1  0.06808101  0.56399003  0.80926014  1
  Zn  Zn151  1  0.55818797  0.06310208  0.31458164  1
  Zn  Zn152  1  0.56213495  0.05741318  0.81278782  1
  Zn  Zn153  1  0.57078078  0.56126350  0.32091996  1
  Zn  Zn154  1  0.56404124  0.56100847  0.81505345  1
  Zn  Zn155  1  0.43311664  0.17990622  0.43844935  1
  Zn  Zn156  1  0.43585180  0.18809442  0.93637043  1
  Zn  Zn157  1  0.43892849  0.68067820  0.43275564  1
  Zn  Zn158  1  0.43305632  0.69006572  0.94358218  1
  Zn  Zn159  1  0.93561028  0.18821985  0.43342029  1
  Zn  Zn160  1  0.94084318  0.19045965  0.93499082  1
  Zn  Zn161  1  0.94264636  0.69440587  0.43725669  1
  Zn  Zn162  1  0.94227930  0.68787252  0.94057415  1
  Zn  Zn163  1  0.05904729  0.31768796  0.05976053  1
  Zn  Zn164  1  0.06115752  0.31400642  0.56301574  1
  Zn  Zn165  1  0.06724885  0.80484928  0.06512894  1
  Zn  Zn166  1  0.06153747  0.81235021  0.55958171  1
  Zn  Zn167  1  0.56682717  0.31268531  0.06973938  1
  Zn  Zn168  1  0.56094420  0.30388067  0.57598993  1
  Zn  Zn169  1  0.56179203  0.80894378  0.06255117  1
  Zn  Zn170  1  0.56118402  0.80569313  0.55808334  1
  O  O171  1  0.11607043  0.12268170  0.11651586  1
  O  O172  1  0.11537727  0.11933817  0.62335088  1
  O  O173  1  0.12669252  0.61822165  0.12351862  1
  O  O174  1  0.11924579  0.61869877  0.62224447  1
  O  O175  1  0.61113797  0.12519242  0.11279753  1
  O  O176  1  0.61268391  0.13001671  0.61752306  1
  O  O177  1  0.61561934  0.62420425  0.11814874  1
  O  O178  1  0.62898951  0.62969772  0.60995679  1
  O  O179  1  0.36707861  0.38965344  0.37613009  1
  O  O180  1  0.38283790  0.36676288  0.88365879  1
  O  O181  1  0.37375519  0.87887682  0.38262393  1
  O  O182  1  0.38346706  0.88108719  0.87400607  1
  O  O183  1  0.88344926  0.38468765  0.38258701  1
  O  O184  1  0.87307672  0.38351853  0.88959233  1
  O  O185  1  0.87030244  0.89156111  0.38364710  1
  O  O186  1  0.88037324  0.88176624  0.88029840  1
  O  O187  1  0.25159549  0.00706985  0.36779394  1
  O  O188  1  0.26337246  -0.01215736  0.87001858  1
  O  O189  1  0.24696909  0.50014646  0.35934128  1
  O  O190  1  0.24295095  0.51544928  0.87084025  1
  O  O191  1  0.75802770  0.01073384  0.36968215  1
  O  O192  1  0.75974580  0.00568813  0.86578584  1
  O  O193  1  0.76173426  0.51086707  0.36698871  1
  O  O194  1  0.74650445  0.51454030  0.86795305  1
  O  O195  1  0.24617378  0.49558643  0.12989573  1
  O  O196  1  0.24114764  0.49089434  0.62915821  1
  O  O197  1  0.24936927  0.99774724  0.13844224  1
  O  O198  1  0.24516485  0.99162756  0.63070071  1
  O  O199  1  0.75257397  0.51365818  0.14141327  1
  O  O200  1  0.75370160  0.50040526  0.63959313  1
  O  O201  1  0.75134776  0.99313092  0.13525239  1
  O  O202  1  0.75379777  1.00574140  0.63942937  1
  O  O203  1  -0.00345795  0.36996081  0.25718241  1
  O  O204  1  0.00951690  0.36463349  0.73921862  1
  O  O205  1  -0.00267683  0.85736963  0.23696518  1
  O  O206  1  0.00038578  0.86758132  0.75407892  1
  O  O207  1  0.49591254  0.35634337  0.24111963  1
  O  O208  1  0.50745258  0.37470620  0.76088323  1
  O  O209  1  0.50865138  0.89404886  0.25913656  1
  O  O210  1  0.50907546  0.86888036  0.75419920  1
  O  O211  1  0.49171805  0.12669783  0.24054957  1
  O  O212  1  0.49087252  0.11965202  0.74308356  1
  O  O213  1  0.50805423  0.61678893  0.23890227  1
  O  O214  1  0.49352081  0.62757006  0.74904017  1
  O  O215  1  0.99065143  0.13392172  0.24304923  1
  O  O216  1  0.99277524  0.13148796  0.74380223  1
  O  O217  1  1.00204424  0.63671226  0.23769007  1
  O  O218  1  0.99581179  0.63138953  0.74489888  1
  O  O219  1  0.36489438  0.25621052  0.00180819  1
  O  O220  1  0.37655619  0.24504050  0.51489536  1
  O  O221  1  0.36660706  0.75131596  0.01306968  1
  O  O222  1  0.37718768  0.75104767  0.50625784  1
  O  O223  1  0.88155928  0.26670293  -0.00507956  1
  O  O224  1  0.86669953  0.26083166  0.49245391  1
  O  O225  1  0.86389188  0.76055762  -0.00803606  1
  O  O226  1  0.87131826  0.76267366  0.49882565  1
  O  O227  1  0.11678994  0.24889988  0.48409846  1
  O  O228  1  0.12797411  0.24708210  0.99205652  1
  O  O229  1  0.12350572  0.74475990  0.48773335  1
  O  O230  1  0.14536497  0.79485686  0.98723663  1
  O  O231  1  0.63111621  0.23922716  0.49827543  1
  O  O232  1  0.61881116  0.23845931  0.99093284  1
  O  O233  1  0.63571626  0.74306721  0.49147883  1
  O  O234  1  0.63417775  0.74367819  0.99461022  1
  O  O235  1  0.49241230  0.23802646  0.13035994  1
  O  O236  1  0.48807508  0.23500161  0.63384435  1
  O  O237  1  0.48871921  0.74230221  0.12260254  1
  O  O238  1  0.49119275  0.74338469  0.62988929  1
  O  O239  1  1.00637380  0.24346793  0.13665148  1
  O  O240  1  1.00611780  0.23926807  0.63520114  1
  O  O241  1  1.00451258  0.73693596  0.13278324  1
  O  O242  1  0.99868095  0.74176213  0.63279655  1
  O  O243  1  0.00468168  0.25803394  0.36522949  1
  O  O244  1  0.01026223  0.24916666  0.86104566  1
  O  O245  1  0.00873213  0.74627953  0.35894830  1
  O  O246  1  -0.00534411  0.76039172  0.86412161  1
  O  O247  1  0.49073853  0.24022681  0.35836874  1
  O  O248  1  0.50697756  0.25950838  0.87556735  1
  O  O249  1  0.51767875  0.74724176  0.37800929  1
  O  O250  1  0.50563261  0.75346337  0.87057563  1
  O  O251  1  0.24897208  0.11802457  0.48609565  1
  O  O252  1  0.23919639  0.13802874  1.00763955  1
  O  O253  1  0.23597991  0.62546432  0.50905176  1
  O  O254  1  0.24863569  0.62190933  0.98617118  1
  O  O255  1  0.74423072  0.12975233  0.49469717  1
  O  O256  1  0.73930269  0.12139114  0.99427814  1
  O  O257  1  0.74592822  0.63300548  0.49161435  1
  O  O258  1  0.74827125  0.62994947  0.99505950  1
  O  O259  1  0.25404596  0.37011316  0.00502771  1
  O  O260  1  0.24956045  0.37683349  0.51412953  1
  O  O261  1  0.26516890  0.89727614  0.02261679  1
  O  O262  1  0.25784117  0.87130900  0.50719277  1
  O  O263  1  0.76252665  0.37597591  0.00140656  1
  O  O264  1  0.75769419  0.36767127  0.50277649  1
  O  O265  1  0.75467803  0.86894858  0.00291820  1
  O  O266  1  0.75916546  0.86831845  0.49612800  1
  O  O267  1  0.13730914  0.49962315  0.24016746  1
  O  O268  1  0.12349898  0.49048384  0.73919032  1
  O  O269  1  0.13237026  0.99942811  0.25191344  1
  O  O270  1  0.12896116  0.99599321  0.74232774  1
  O  O271  1  0.64414417  0.50186068  0.25256342  1
  O  O272  1  0.63560131  0.48949270  0.75844353  1
  O  O273  1  0.63985182  1.00179169  0.25965514  1
  O  O274  1  0.63479140  0.98887613  0.75686199  1
  O  O275  1  0.36324291  0.00623451  0.25604068  1
  O  O276  1  0.37031486  0.00316134  0.75583214  1
  O  O277  1  0.36337468  0.49580162  0.25939765  1
  O  O278  1  0.37770938  0.51248313  0.74409865  1
  O  O279  1  0.86645332  0.00973394  0.25688416  1
  O  O280  1  0.86830614  0.00948273  0.75823193  1
  O  O281  1  0.86903794  0.50085687  0.26168916  1
  O  O282  1  0.86952415  0.51286180  0.75003259  1
  O  O283  1  0.11527609  0.37068376  0.37311256  1
  O  O284  1  0.12895517  0.36682088  0.86175530  1
  O  O285  1  0.12382300  0.86163823  0.37483198  1
  O  O286  1  0.10731688  0.89086289  0.86102436  1
  O  O287  1  0.64064761  0.36981573  0.36319252  1
  O  O288  1  0.61804599  0.36724600  0.87215535  1
  O  O289  1  0.62834244  0.86043404  0.37779881  1
  O  O290  1  0.61958083  0.86731432  0.86814193  1
  O  O291  1  0.38005375  0.12939074  0.12671234  1
  O  O292  1  0.38050283  0.12715556  0.63374017  1
  O  O293  1  0.38265659  0.63620054  0.12286779  1
  O  O294  1  0.37513675  0.63127235  0.63107752  1
  O  O295  1  0.88095228  0.12054264  0.13564472  1
  O  O296  1  0.88448748  0.12077436  0.63716584  1
  O  O297  1  0.88475484  0.62681670  0.12780317  1
  O  O298  1  0.88736460  0.62479235  0.63237385  1
  O  O299  1  0.24997179  0.25879609  0.11632668  1
  O  O300  1  0.25663405  0.25473767  0.63041049  1
  O  O301  1  0.25989709  0.75844937  0.12662071  1
  O  O302  1  0.26174208  0.75350670  0.62432417  1
  O  O303  1  0.75164568  0.24581312  0.12153297  1
  O  O304  1  0.74927216  0.24787038  0.61084547  1
  O  O305  1  0.74815285  0.75627972  0.11270088  1
  O  O306  1  0.75654617  0.74347022  0.61102762  1
  O  O307  1  0.23985804  0.24134169  0.36481544  1
  O  O308  1  0.23849092  0.25396772  0.88534624  1
  O  O309  1  0.23532530  0.74835237  0.37400646  1
  O  O310  1  0.26278487  0.72983523  0.87477922  1
  O  O311  1  0.75405250  0.23756208  0.38433165  1
  O  O312  1  0.74043284  0.24308509  0.88198911  1
  O  O313  1  0.74658318  0.74557992  0.38465046  1
  O  O314  1  0.74560589  0.74035446  0.88339086  1
  O  O315  1  0.00802856  0.13230787  0.00996097  1
  O  O316  1  -0.00405664  0.11821491  0.50868774  1
  O  O317  1  -0.00373936  0.61665768  0.01387809  1
  O  O318  1  0.00897290  0.62669223  0.51030164  1
  O  O319  1  0.50392829  0.11874527  0.00426365  1
  O  O320  1  0.50572660  0.11823289  0.50808217  1
  O  O321  1  0.50388303  0.61537119  0.00360636  1
  O  O322  1  0.52064244  0.62643833  0.49834994  1
  O  O323  1  0.50263565  0.36217967  0.49745785  1
  O  O324  1  0.49232737  0.37961929  0.99663616  1
  O  O325  1  0.49579474  0.88209544  0.49651231  1
  O  O326  1  0.50095543  0.88389633  0.99484596  1
  O  O327  1  0.99366150  0.37631049  0.48952937  1
  O  O328  1  0.99143369  0.39154374  1.00374384  1
  O  O329  1  0.99189400  0.89061170  0.50289077  1
  O  O330  1  0.98774058  0.86642364  0.98993325  1
  O  O331  1  0.49355316  0.49673410  0.37675647  1
  O  O332  1  0.50553362  0.48730798  0.88720266  1
  O  O333  1  0.48992229  1.00622928  0.38947462  1
  O  O334  1  0.49047948  0.99349957  0.88079128  1
  O  O335  1  0.99683095  0.49348629  0.37192173  1
  O  O336  1  1.00853544  0.50935212  0.88866522  1
  O  O337  1  0.98928287  1.01240764  0.38399830  1
  O  O338  1  0.98616213  0.99078896  0.86669775  1
  O  O339  1  0.00073203  0.01434073  0.13234513  1
  O  O340  1  0.00452937  0.01016958  0.61801744  1
  O  O341  1  0.00831805  0.51664854  0.12729607  1
  O  O342  1  0.01124099  0.51033867  0.62443492  1
  O  O343  1  0.48940806  0.00979705  0.11262583  1
  O  O344  1  0.49166958  0.00785404  0.61387360  1
  O  O345  1  0.49851908  0.50683331  0.11684040  1
  O  O346  1  0.50210168  0.49801162  0.61431011  1
  O  O347  1  0.24934196  0.37989740  0.23463218  1
  O  O348  1  0.23956998  0.37458597  0.74055139  1
  O  O349  1  0.25106383  0.88644017  0.24322801  1
  O  O350  1  0.24397707  0.87743787  0.74464305  1
  O  O351  1  0.75871916  0.39299226  0.24832877  1
  O  O352  1  0.74610088  0.38329526  0.75266562  1
  O  O353  1  0.74962900  0.88381664  0.24070881  1
  O  O354  1  0.74305131  0.88187876  0.75539735  1
  O  O355  1  0.25065303  0.11907035  0.25641572  1
  O  O356  1  0.26029470  0.11443644  0.74508357  1
  O  O357  1  0.25146083  0.61342465  0.24566779  1
  O  O358  1  0.26461994  0.62282737  0.75849345  1
  O  O359  1  0.75373756  0.12107085  0.25572999  1
  O  O360  1  0.75607087  0.12011193  0.75524699  1
  O  O361  1  0.75030327  0.61935672  0.26308511  1
  O  O362  1  0.75754633  0.62071485  0.75671948  1
  O  O363  1  0.36341896  0.11894001  0.36912246  1
  O  O364  1  0.38096015  0.11452129  0.86414476  1
  O  O365  1  0.37532918  0.60427619  0.37938645  1
  O  O366  1  0.38173237  0.62122534  0.86256843  1
  O  O367  1  0.86568759  0.11814730  0.36581784  1
  O  O368  1  0.87200254  0.11872977  0.86893593  1
  O  O369  1  0.86996625  0.61806982  0.38601394  1
  O  O370  1  0.86714832  0.63284734  0.86588296  1
  O  O371  1  0.13315221  0.38459820  0.12449396  1
  O  O372  1  0.13046045  0.38010763  0.63052875  1
  O  O373  1  0.13654219  0.87853066  0.13290136  1
  O  O374  1  0.12920146  0.87989222  0.62890135  1
  O  O375  1  0.63387494  0.37889614  0.13373503  1
  O  O376  1  0.62986340  0.36324246  0.64522597  1
  O  O377  1  0.63899527  0.87145151  0.12225018  1
  O  O378  1  0.62067356  0.86719599  0.63699756  1
  O  O379  1  0.11329054  0.25372103  0.25929191  1
  O  O380  1  0.11869443  0.25419259  0.75623080  1
  O  O381  1  0.12091332  0.75118816  0.26231980  1
  O  O382  1  0.11328159  0.75627484  0.74238165  1
  O  O383  1  0.60451402  0.24238979  0.24689672  1
  O  O384  1  0.62458381  0.25589378  0.76461288  1
  O  O385  1  0.63595921  0.75164786  0.26541935  1
  O  O386  1  0.62273899  0.75503403  0.75526466  1
  O  O387  1  0.38009295  0.24324796  0.24170771  1
  O  O388  1  0.37453664  0.23734904  0.74507404  1
  O  O389  1  0.37287240  0.74894898  0.23822721  1
  O  O390  1  0.38283858  0.73785965  0.74222785  1
  O  O391  1  0.88230493  0.24080731  0.25924395  1
  O  O392  1  0.88175917  0.24001852  0.75987938  1
  O  O393  1  0.88391438  0.75045135  0.25861891  1
  O  O394  1  0.88394554  0.74050682  0.74733342  1
  O  O395  1  0.37845762  0.49152932  0.48743944  1
  O  O396  1  0.38357813  0.48843130  1.00462708  1
  O  O397  1  0.38209024  0.99272742  0.49632282  1
  O  O398  1  0.38588214  1.00365842  0.98981370  1
  O  O399  1  0.87685950  0.49269513  0.48871594  1
  O  O400  1  0.89098119  0.49812884  0.99642134  1
  O  O401  1  0.87975180  0.99782781  0.49342339  1
  O  O402  1  0.86755797  0.99053163  0.98790893  1
  O  O403  1  0.13143273  0.01231088  -0.00234019  1
  O  O404  1  0.11573347  0.00231371  0.50374017  1
  O  O405  1  0.11028574  0.49416934  0.01113598  1
  O  O406  1  0.12303053  0.50696753  0.50873067  1
  O  O407  1  0.61252554  0.01039884  -0.01247526  1
  O  O408  1  0.61550382  0.01000195  0.49677536  1
  O  O409  1  0.61528783  0.50469439  0.00286913  1
  O  O410  1  0.63230813  0.51618132  0.49018976  1
  O  O411  1  0.36523353  0.36983045  0.11316987  1
  O  O412  1  0.36586329  0.36111464  0.62819506  1
  O  O413  1  0.37164301  0.86161218  0.12711532  1
  O  O414  1  0.37216480  0.86248190  0.62168050  1
  O  O415  1  0.87038686  0.38652879  0.10657323  1
  O  O416  1  0.87702026  0.38333417  0.61095998  1
  O  O417  1  0.86221622  0.88145647  0.11120833  1
  O  O418  1  0.87846370  0.87824624  0.61237894  1
  O  O419  1  0.13068469  0.13422940  0.37594164  1
  O  O420  1  0.11861008  0.13579807  0.88350796  1
  O  O421  1  0.11758855  0.63467642  0.38557669  1
  O  O422  1  0.13474192  0.63553863  0.86688901  1
  O  O423  1  0.63389202  0.12128967  0.38606187  1
  O  O424  1  0.62662231  0.13170299  0.88065250  1
  O  O425  1  0.63771464  0.63688236  0.38347426  1
  O  O426  1  0.63391063  0.63047482  0.88109886  1
