# generated using pymatgen
data_V85Zn86O256
_symmetry_space_group_name_H-M   'P 1'
_cell_length_a   16.97106196
_cell_length_b   16.96827616
_cell_length_c   16.96396241
_cell_angle_alpha   89.88088856
_cell_angle_beta   90.06132846
_cell_angle_gamma   89.94888052
_symmetry_Int_Tables_number   1
_chemical_formula_structural   V85Zn86O256
_chemical_formula_sum   'V85 Zn86 O256'
_cell_volume   4885.09128300
_cell_formula_units_Z   1
loop_
 _symmetry_equiv_pos_site_id
 _symmetry_equiv_pos_as_xyz
  1  'x, y, z'
loop_
 _atom_site_type_symbol
 _atom_site_label
 _atom_site_symmetry_multiplicity
 _atom_site_fract_x
 _atom_site_fract_y
 _atom_site_fract_z
 _atom_site_occupancy
  V  V0  1  0.74788005  0.74870724  -0.00742268  1
  V  V1  1  -0.00460315  0.62066691  0.63231029  1
  V  V2  1  0.62396182  0.87577143  0.24642048  1
  V  V3  1  0.36961581  0.86966794  -0.00092280  1
  V  V4  1  0.87393791  0.00003717  0.37646475  1
  V  V5  1  0.49920541  0.62264755  0.62729906  1
  V  V6  1  0.87664858  0.24870814  0.62242186  1
  V  V7  1  0.11645919  0.62366493  0.50808487  1
  V  V8  1  0.37991972  0.24765707  0.12229800  1
  V  V9  1  0.87316035  0.62722010  0.24727692  1
  V  V10  1  0.00522082  0.87450833  0.87439123  1
  V  V11  1  0.49984234  0.74755590  0.24701695  1
  V  V12  1  0.36340420  0.25017550  0.61793943  1
  V  V13  1  0.25185615  0.24778526  -0.00183278  1
  V  V14  1  0.12622998  0.12410568  0.00061979  1
  V  V15  1  0.00188375  0.62201725  0.12165630  1
  V  V16  1  0.74776679  0.75006070  0.50067054  1
  V  V17  1  0.37726786  0.62011107  0.75716125  1
  V  V18  1  0.62217465  0.49296400  0.62670036  1
  V  V19  1  0.49846255  0.87341114  0.37235852  1
  V  V20  1  0.87307178  0.87551354  0.50392129  1
  V  V21  1  0.12503354  -0.00138296  0.12450122  1
  V  V22  1  0.37299357  0.61924828  0.25158078  1
  V  V23  1  0.87198232  0.87634789  -0.00328005  1
  V  V24  1  0.61885419  0.61728979  0.49993424  1
  V  V25  1  0.36309915  0.37579139  0.50265674  1
  V  V26  1  0.12265464  0.37682679  0.75756562  1
  V  V27  1  0.49204705  0.88019478  0.86545748  1
  V  V28  1  0.74540575  0.00210592  0.24680197  1
  V  V29  1  0.01495133  0.26072192  0.25323120  1
  V  V30  1  0.50882551  0.37657132  0.38227203  1
  V  V31  1  0.37655693  -0.00142274  0.37508525  1
  V  V32  1  0.73249369  -0.00031991  0.75020747  1
  V  V33  1  0.12810651  0.50139065  0.63065488  1
  V  V34  1  0.62944657  0.62325411  -0.00842244  1
  V  V35  1  0.74898970  0.37331967  0.63305726  1
  V  V36  1  0.50798117  0.25655683  0.25038392  1
  V  V37  1  0.49985584  0.62348871  0.12360623  1
  V  V38  1  0.01228962  0.00098999  0.50437376  1
  V  V39  1  0.75076689  0.37491057  0.12626680  1
  V  V40  1  0.24274942  0.00171668  0.74409627  1
  V  V41  1  0.74920858  0.24609817  -0.00757921  1
  V  V42  1  0.62546910  0.49610329  0.12548010  1
  V  V43  1  0.50557631  0.25350365  0.74702999  1
  V  V44  1  0.74800828  0.62392776  0.37483348  1
  V  V45  1  0.37716554  0.12407785  0.24762521  1
  V  V46  1  0.12288909  0.74980579  0.37753094  1
  V  V47  1  0.74866279  0.51222325  0.75633187  1
  V  V48  1  0.37723903  0.37581649  -0.00764617  1
  V  V49  1  0.62289207  0.74651072  0.37336119  1
  V  V50  1  0.87056031  0.74661935  0.63211782  1
  V  V51  1  0.25215548  0.11838873  0.87450165  1
  V  V52  1  0.24953365  0.74477617  0.50316609  1
  V  V53  1  0.88121596  0.37685161  -0.00910449  1
  V  V54  1  0.86705580  0.12095253  0.75685622  1
  V  V55  1  -0.00002864  0.87512273  0.37580613  1
  V  V56  1  0.00039720  0.25360320  0.75734997  1
  V  V57  1  0.24521922  0.38426199  0.12873521  1
  V  V58  1  0.24931650  -0.00256556  0.24767453  1
  V  V59  1  0.61803291  0.75056202  0.86717197  1
  V  V60  1  0.50932875  0.37111966  0.87081921  1
  V  V61  1  0.87725292  0.51469224  0.87154704  1
  V  V62  1  0.75349987  0.12667879  0.37570649  1
  V  V63  1  0.01035873  0.11675530  0.62767595  1
  V  V64  1  0.24234056  0.87839905  0.62386454  1
  V  V65  1  0.24619698  0.85861872  0.12072489  1
  V  V66  1  0.37447004  0.12257353  0.75151036  1
  V  V67  1  0.37375471  0.49837960  0.37475508  1
  V  V68  1  -0.00107708  0.00108309  0.00061896  1
  V  V69  1  0.50214977  -0.00243624  0.00821890  1
  V  V70  1  0.25759435  0.49528453  0.75941807  1
  V  V71  1  0.87953084  0.49922054  0.38090816  1
  V  V72  1  0.37725046  0.74718754  0.63000701  1
  V  V73  1  0.00858604  0.49865872  -0.00148067  1
  V  V74  1  0.87879955  0.25054416  0.12852456  1
  V  V75  1  0.74219058  0.87972788  0.12162490  1
  V  V76  1  0.12819698  0.64408461  -0.00772029  1
  V  V77  1  0.49701376  0.49838190  -0.00811999  1
  V  V78  1  0.88410622  0.38131913  0.50233671  1
  V  V79  1  0.62576222  0.12324074  0.50359980  1
  V  V80  1  0.50516134  -0.00069982  0.50454486  1
  V  V81  1  0.00040113  0.75087313  0.75291703  1
  V  V82  1  0.12350703  0.87027858  0.24959231  1
  V  V83  1  0.24213096  0.12844406  0.38419836  1
  V  V84  1  0.74726835  0.49581616  0.24943949  1
  Zn  Zn85  1  0.50409716  0.12336732  0.62768829  1
  Zn  Zn86  1  0.75061019  0.25079109  0.49827072  1
  Zn  Zn87  1  0.51557620  0.11254176  0.13209468  1
  Zn  Zn88  1  0.12246080  0.87968975  0.74990835  1
  Zn  Zn89  1  0.87200696  0.75008988  0.12325574  1
  Zn  Zn90  1  0.12290837  0.25426558  0.87894883  1
  Zn  Zn91  1  0.61274849  0.86707343  0.73924743  1
  Zn  Zn92  1  0.63479738  0.24168865  0.86462079  1
  Zn  Zn93  1  0.15964706  0.28048465  0.41060064  1
  Zn  Zn94  1  0.23973808  0.61684618  0.37022936  1
  Zn  Zn95  1  0.37512099  0.87221094  0.49998361  1
  Zn  Zn96  1  0.73285975  0.88820036  0.61803935  1
  Zn  Zn97  1  0.36751016  0.74207837  0.12087159  1
  Zn  Zn98  1  -0.00205632  0.75042713  0.24831889  1
  Zn  Zn99  1  0.88004579  0.12716390  0.25335699  1
  Zn  Zn100  1  0.00337347  0.12589049  0.12944467  1
  Zn  Zn101  1  0.86571446  0.00735457  0.88043418  1
  Zn  Zn102  1  0.25485823  0.63868947  0.88323174  1
  Zn  Zn103  1  0.18523867  0.44843610  0.28055093  1
  Zn  Zn104  1  0.01661576  0.38213016  0.37550606  1
  Zn  Zn105  1  0.63659094  0.11178400  -0.00046608  1
  Zn  Zn106  1  0.63136060  0.25428765  0.37126659  1
  Zn  Zn107  1  0.19232244  0.18799102  0.18703746  1
  Zn  Zn108  1  0.18619249  0.19146820  0.68760958  1
  Zn  Zn109  1  0.17084552  0.65112180  0.20127628  1
  Zn  Zn110  1  0.20250558  0.70519614  0.72353825  1
  Zn  Zn111  1  0.68721070  0.18464485  0.18208788  1
  Zn  Zn112  1  0.68820786  0.18482704  0.68396538  1
  Zn  Zn113  1  0.68680543  0.68762200  0.18157308  1
  Zn  Zn114  1  0.68746815  0.68631957  0.68458838  1
  Zn  Zn115  1  0.31987690  0.31075172  0.31147455  1
  Zn  Zn116  1  0.31363535  0.30887548  0.81063668  1
  Zn  Zn117  1  0.31020460  0.80585797  0.31021461  1
  Zn  Zn118  1  0.31221958  0.81279145  0.81358320  1
  Zn  Zn119  1  0.81998617  0.31285524  0.31508571  1
  Zn  Zn120  1  0.81787433  0.31618959  0.81127912  1
  Zn  Zn121  1  0.81010476  0.81392065  0.31386433  1
  Zn  Zn122  1  0.80729197  0.81932287  0.81089870  1
  Zn  Zn123  1  0.19107852  0.44554822  0.45112092  1
  Zn  Zn124  1  0.19221342  0.43933133  0.93650358  1
  Zn  Zn125  1  0.19125923  0.93573379  0.43596677  1
  Zn  Zn126  1  0.18914719  0.93738762  0.93727986  1
  Zn  Zn127  1  0.69529312  0.43542330  0.44356180  1
  Zn  Zn128  1  0.68920782  0.43225737  0.93559223  1
  Zn  Zn129  1  0.68520647  0.93721678  0.43331959  1
  Zn  Zn130  1  0.68165159  0.93702722  0.92785183  1
  Zn  Zn131  1  0.31608481  0.05448320  0.06022981  1
  Zn  Zn132  1  0.31460193  0.06304656  0.56291093  1
  Zn  Zn133  1  0.31088944  0.56420575  0.06003077  1
  Zn  Zn134  1  0.30942695  0.55873828  0.56685267  1
  Zn  Zn135  1  0.81470936  0.06463533  0.06670846  1
  Zn  Zn136  1  0.81400379  0.06334690  0.56616950  1
  Zn  Zn137  1  0.81433773  0.56222313  0.05894474  1
  Zn  Zn138  1  0.80896123  0.56314859  0.56549911  1
  Zn  Zn139  1  0.43559907  0.43523449  0.18731560  1
  Zn  Zn140  1  0.43795541  0.43475685  0.68433200  1
  Zn  Zn141  1  0.43217335  0.93093022  0.18439023  1
  Zn  Zn142  1  0.42879084  0.93878960  0.68371863  1
  Zn  Zn143  1  0.93938282  0.43841512  0.18546355  1
  Zn  Zn144  1  0.93686384  0.43762986  0.69287822  1
  Zn  Zn145  1  0.93407671  0.93752429  0.18641852  1
  Zn  Zn146  1  0.93197527  0.93731314  0.68817717  1
  Zn  Zn147  1  0.06059659  0.06399722  0.31116793  1
  Zn  Zn148  1  0.06073921  0.06242851  0.81649041  1
  Zn  Zn149  1  0.05720614  0.56642230  0.31573248  1
  Zn  Zn150  1  0.06096346  0.56476796  0.81319610  1
  Zn  Zn151  1  0.56519451  0.06461624  0.31575034  1
  Zn  Zn152  1  0.55832471  0.06762183  0.82316744  1
  Zn  Zn153  1  0.55904235  0.55725247  0.31196082  1
  Zn  Zn154  1  0.56358514  0.55968489  0.80898892  1
  Zn  Zn155  1  0.43849184  0.18809904  0.43610229  1
  Zn  Zn156  1  0.44206927  0.18362429  0.93332668  1
  Zn  Zn157  1  0.43784874  0.68434800  0.43913146  1
  Zn  Zn158  1  0.44106058  0.69188138  0.93689192  1
  Zn  Zn159  1  0.99037325  0.20875998  0.45706565  1
  Zn  Zn160  1  0.93720387  0.18779602  0.94064423  1
  Zn  Zn161  1  0.93596289  0.68750116  0.44029877  1
  Zn  Zn162  1  0.93739459  0.68917413  0.93602300  1
  Zn  Zn163  1  0.06470474  0.31429622  0.06391999  1
  Zn  Zn164  1  0.06612372  0.31858250  0.57314637  1
  Zn  Zn165  1  0.05810367  0.81076011  0.06440589  1
  Zn  Zn166  1  0.05916142  0.80992579  0.56631067  1
  Zn  Zn167  1  0.56453224  0.31117566  0.06286618  1
  Zn  Zn168  1  0.56104239  0.30769828  0.55979966  1
  Zn  Zn169  1  0.55933013  0.81143437  0.05797632  1
  Zn  Zn170  1  0.55886800  0.80881133  0.55970704  1
  O  O171  1  0.12843533  0.11671185  0.11803897  1
  O  O172  1  0.10851823  0.12746528  0.63190387  1
  O  O173  1  0.11001306  0.62909478  0.10670640  1
  O  O174  1  0.11347838  0.62006855  0.62353347  1
  O  O175  1  0.62374096  0.12852934  0.11065836  1
  O  O176  1  0.62349128  0.12661199  0.60864836  1
  O  O177  1  0.62084310  0.61476139  0.11371612  1
  O  O178  1  0.61792286  0.61720285  0.61917209  1
  O  O179  1  0.38046601  0.37900826  0.38521991  1
  O  O180  1  0.38332620  0.36830024  0.88777636  1
  O  O181  1  0.37810607  0.88390137  0.37208641  1
  O  O182  1  0.38594667  0.86653443  0.88092811  1
  O  O183  1  0.87286502  0.38535062  0.38619498  1
  O  O184  1  0.87351433  0.38330069  0.88689562  1
  O  O185  1  0.87858706  0.87851240  0.38465212  1
  O  O186  1  0.87844681  0.87874925  0.88680353  1
  O  O187  1  0.25936084  0.00544082  0.36835588  1
  O  O188  1  0.24868003  0.01128736  0.86517176  1
  O  O189  1  0.26364995  0.50076635  0.37444691  1
  O  O190  1  0.24946814  0.50971511  0.86201398  1
  O  O191  1  0.75469955  0.00481179  0.36677423  1
  O  O192  1  0.75102691  -0.00273438  0.85806784  1
  O  O193  1  0.75545332  0.50359141  0.36628248  1
  O  O194  1  0.75549665  0.49494650  0.86334096  1
  O  O195  1  0.25819024  0.48303905  0.12019297  1
  O  O196  1  0.23583874  0.50420810  0.63872557  1
  O  O197  1  0.24398403  0.99033925  0.13037668  1
  O  O198  1  0.25690125  0.98998844  0.62939078  1
  O  O199  1  0.74582175  0.49438294  0.12911096  1
  O  O200  1  0.74582642  0.49405257  0.63701118  1
  O  O201  1  0.75489666  0.99097225  0.13431590  1
  O  O202  1  0.75596119  1.00144962  0.64288942  1
  O  O203  1  0.00177637  0.36623514  0.24676220  1
  O  O204  1  0.00621451  0.36346129  0.74783359  1
  O  O205  1  0.00397528  0.87326674  0.25660909  1
  O  O206  1  -0.00366674  0.87272825  0.75844975  1
  O  O207  1  0.49156056  0.36524844  0.26310739  1
  O  O208  1  0.49179768  0.36607609  0.75987314  1
  O  O209  1  0.50436772  0.86869254  0.25307377  1
  O  O210  1  0.49324959  0.88299367  0.76182495  1
  O  O211  1  0.49161309  0.13122406  0.25080910  1
  O  O212  1  0.48879158  0.13209619  0.74989513  1
  O  O213  1  0.49424040  0.62706996  0.24390606  1
  O  O214  1  0.49175437  0.61544219  0.73748254  1
  O  O215  1  0.99794941  0.13945171  0.24898390  1
  O  O216  1  0.99049390  0.12773187  0.74190068  1
  O  O217  1  0.98663967  0.62580590  0.24054330  1
  O  O218  1  1.00030995  0.63673616  0.74297121  1
  O  O219  1  0.37459863  0.25423775  0.00608042  1
  O  O220  1  0.37869333  0.25544771  0.51090565  1
  O  O221  1  0.37862563  0.76130188  0.00351741  1
  O  O222  1  0.36494341  0.74536496  0.50812485  1
  O  O223  1  0.87122383  0.25860441  0.00755382  1
  O  O224  1  0.88253672  0.25795940  0.51404643  1
  O  O225  1  0.86390115  0.75877519  -0.00229752  1
  O  O226  1  0.86887291  0.75851429  0.50640411  1
  O  O227  1  0.09363400  0.24874361  0.49245532  1
  O  O228  1  0.13274658  0.24288259  1.00011534  1
  O  O229  1  0.13138248  0.74381112  0.49988740  1
  O  O230  1  0.12003383  0.74323252  0.99530755  1
  O  O231  1  0.62826052  0.23893025  0.49349812  1
  O  O232  1  0.64741027  0.25816640  1.00375355  1
  O  O233  1  0.62778483  0.73734953  0.49245762  1
  O  O234  1  0.62919226  0.74182313  0.99170802  1
  O  O235  1  0.49154502  0.25229032  0.13085496  1
  O  O236  1  0.49149320  0.24865098  0.63301592  1
  O  O237  1  0.50189187  0.74005549  0.13005796  1
  O  O238  1  0.48844277  0.73498565  0.61722628  1
  O  O239  1  0.99385985  0.25189000  0.13353992  1
  O  O240  1  0.99246391  0.23888014  0.63691518  1
  O  O241  1  0.99132875  0.73840444  0.12639446  1
  O  O242  1  0.98786383  0.74457821  0.63250394  1
  O  O243  1  -0.00495718  0.26141396  0.35699669  1
  O  O244  1  0.00295890  0.24181524  0.86164157  1
  O  O245  1  0.00451139  0.75728480  0.37653383  1
  O  O246  1  -0.01278336  0.76199206  0.86384898  1
  O  O247  1  0.49978771  0.26066160  0.36706648  1
  O  O248  1  0.49715403  0.25711588  0.86369657  1
  O  O249  1  0.50407245  0.75298309  0.36938482  1
  O  O250  1  0.50936906  0.76462403  0.88003092  1
  O  O251  1  0.25559185  0.11898177  0.48290824  1
  O  O252  1  0.24924685  0.12578194  0.99267960  1
  O  O253  1  0.23965209  0.63355395  0.50450237  1
  O  O254  1  0.23380427  0.62242229  0.99931911  1
  O  O255  1  0.74470693  0.12373486  0.49262489  1
  O  O256  1  0.75873499  0.14317978  1.00257288  1
  O  O257  1  0.74067366  0.63006099  0.49452155  1
  O  O258  1  0.73920038  0.63454247  1.00513448  1
  O  O259  1  0.26037397  0.36973845  0.00461394  1
  O  O260  1  0.26344304  0.36557386  0.49513521  1
  O  O261  1  0.25625807  0.87896421  0.00857456  1
  O  O262  1  0.25227979  0.86398652  0.50592706  1
  O  O263  1  0.76137284  0.37047434  0.00902509  1
  O  O264  1  0.76348978  0.37122195  0.51275835  1
  O  O265  1  0.75269314  0.87200522  0.00405061  1
  O  O266  1  0.75703420  0.87022216  0.49816782  1
  O  O267  1  0.14086551  0.54393776  0.24758007  1
  O  O268  1  0.13360224  0.49684339  0.74989441  1
  O  O269  1  0.12887379  0.99106902  0.24484258  1
  O  O270  1  0.13800196  1.00203623  0.75055241  1
  O  O271  1  0.63571483  0.50670398  0.23768874  1
  O  O272  1  0.63876691  0.50064347  0.74145299  1
  O  O273  1  0.63740971  0.99270217  0.25681761  1
  O  O274  1  0.63178170  1.00837546  0.75160072  1
  O  O275  1  0.37237516  0.00550125  0.25571944  1
  O  O276  1  0.36370768  0.01630964  0.74222595  1
  O  O277  1  0.38072546  0.50804209  0.25911013  1
  O  O278  1  0.36424493  0.50220076  0.74374089  1
  O  O279  1  0.86383433  -0.00026559  0.25693309  1
  O  O280  1  0.87179206  0.01438049  0.75258171  1
  O  O281  1  0.86544252  0.50902238  0.25580160  1
  O  O282  1  0.86461864  0.49597654  0.76376772  1
  O  O283  1  0.13375200  0.38749863  0.36978980  1
  O  O284  1  0.12801255  0.37471552  0.86283305  1
  O  O285  1  0.12002108  0.86963281  0.36960083  1
  O  O286  1  0.10860036  0.88141721  0.87449733  1
  O  O287  1  0.61296006  0.37686371  0.38324375  1
  O  O288  1  0.61331685  0.36423645  0.88008235  1
  O  O289  1  0.61895081  0.86616370  0.36699026  1
  O  O290  1  0.61006298  0.86742332  0.86681320  1
  O  O291  1  0.37633357  0.13109501  0.13323536  1
  O  O292  1  0.37700193  0.13757768  0.62955604  1
  O  O293  1  0.38126119  0.62293730  0.13220129  1
  O  O294  1  0.38309897  0.62547397  0.62918723  1
  O  O295  1  0.87864716  0.13912950  0.12796037  1
  O  O296  1  0.87996199  0.13379847  0.63675154  1
  O  O297  1  0.87764630  0.62618389  0.13214391  1
  O  O298  1  0.88276253  0.63539748  0.61790317  1
  O  O299  1  0.26438567  0.25469976  0.11861764  1
  O  O300  1  0.26422539  0.24954998  0.62731965  1
  O  O301  1  0.24355295  0.75861289  0.13049972  1
  O  O302  1  0.25663222  0.75566010  0.62060445  1
  O  O303  1  0.76000234  0.25973316  0.12012092  1
  O  O304  1  0.76078018  0.25600905  0.62505235  1
  O  O305  1  0.74939051  0.75975877  0.11202023  1
  O  O306  1  0.75786396  0.74784347  0.61739275  1
  O  O307  1  0.25445626  0.23424389  0.36855910  1
  O  O308  1  0.24804094  0.23960926  0.88035888  1
  O  O309  1  0.24352426  0.74660220  0.38799178  1
  O  O310  1  0.23445303  0.73792396  0.83276901  1
  O  O311  1  0.75184822  0.24164384  0.37540987  1
  O  O312  1  0.75348215  0.25982475  0.88907690  1
  O  O313  1  0.74256626  0.74351249  0.37959385  1
  O  O314  1  0.73791505  0.76159569  0.88711397  1
  O  O315  1  0.00668356  0.11903106  0.00286050  1
  O  O316  1  -0.01011499  0.11353972  0.51927199  1
  O  O317  1  0.00545338  0.62014374  0.00317314  1
  O  O318  1  0.00859568  0.63329132  0.51432608  1
  O  O319  1  0.48585878  0.10187935  0.00099797  1
  O  O320  1  0.50866058  0.11641570  0.49492404  1
  O  O321  1  0.50686224  0.61541616  0.00313903  1
  O  O322  1  0.51108330  0.62271192  0.50836862  1
  O  O323  1  0.48942110  0.36765445  0.48545295  1
  O  O324  1  0.49574347  0.37878939  0.99316435  1
  O  O325  1  0.49667275  0.88131178  0.48976226  1
  O  O326  1  0.49212305  0.88071783  0.99362124  1
  O  O327  1  0.98658818  0.37910277  0.50131273  1
  O  O328  1  0.99002403  0.38498777  1.00949765  1
  O  O329  1  0.99137493  0.88091823  0.49788387  1
  O  O330  1  0.98992717  0.87887026  0.99460565  1
  O  O331  1  0.49125130  0.48380428  0.37128537  1
  O  O332  1  0.50890645  0.48930978  0.88515190  1
  O  O333  1  0.49238626  0.99410328  0.37803029  1
  O  O334  1  0.49863826  0.98382066  0.88459054  1
  O  O335  1  0.98358838  0.49817808  0.36910554  1
  O  O336  1  0.98374183  0.50465304  0.88073828  1
  O  O337  1  0.99357293  0.99586169  0.38380622  1
  O  O338  1  0.99268288  0.99261358  0.88239989  1
  O  O339  1  0.00578239  0.00025763  0.11883100  1
  O  O340  1  -0.00382568  0.00961320  0.62207617  1
  O  O341  1  -0.01124315  0.51275482  0.11186105  1
  O  O342  1  0.00726396  0.51245280  0.63907738  1
  O  O343  1  0.49759905  -0.00595463  0.11424627  1
  O  O344  1  0.48858374  0.00295610  0.60756491  1
  O  O345  1  0.50950169  0.50026853  0.11626448  1
  O  O346  1  0.51340478  0.50449334  0.62883130  1
  O  O347  1  0.25857840  0.37215587  0.23491092  1
  O  O348  1  0.24494513  0.38836869  0.75526672  1
  O  O349  1  0.24341649  0.87727856  0.24261387  1
  O  O350  1  0.25101019  0.88687157  0.74155189  1
  O  O351  1  0.75897918  0.38620206  0.23970172  1
  O  O352  1  0.75471113  0.37986238  0.73735317  1
  O  O353  1  0.74534757  0.88085267  0.24175565  1
  O  O354  1  0.74208526  0.88981397  0.74557299  1
  O  O355  1  0.26181189  0.11803067  0.25442472  1
  O  O356  1  0.25391488  0.12138228  0.75425801  1
  O  O357  1  0.27093757  0.63737597  0.25602985  1
  O  O358  1  0.26317482  0.60881985  0.74518337  1
  O  O359  1  0.75113659  0.11724429  0.25649912  1
  O  O360  1  0.76053813  0.11894213  0.74732032  1
  O  O361  1  0.75472316  0.61676999  0.25241304  1
  O  O362  1  0.75191576  0.61063804  0.74696093  1
  O  O363  1  0.37056137  0.11702848  0.36494249  1
  O  O364  1  0.36355957  0.13349260  0.86187842  1
  O  O365  1  0.38092249  0.61197882  0.37037901  1
  O  O366  1  0.37953903  0.63050213  0.86105025  1
  O  O367  1  0.86158606  0.11659263  0.37512491  1
  O  O368  1  0.87737451  0.12852144  0.86000269  1
  O  O369  1  0.86871238  0.61901106  0.36942018  1
  O  O370  1  0.86887919  0.61311497  0.88030191  1
  O  O371  1  0.14618952  0.37143488  0.11982890  1
  O  O372  1  0.11898048  0.39025602  0.64131431  1
  O  O373  1  0.12842737  0.87835955  0.12907519  1
  O  O374  1  0.13881502  0.86998456  0.62577679  1
  O  O375  1  0.63730569  0.38643066  0.11781508  1
  O  O376  1  0.63542842  0.38321562  0.61372116  1
  O  O377  1  0.63564706  0.86887266  0.12875090  1
  O  O378  1  0.62249478  0.86674674  0.62799236  1
  O  O379  1  0.11467533  0.24917338  0.24589071  1
  O  O380  1  0.11793348  0.26018569  0.75002586  1
  O  O381  1  0.12187866  0.75024934  0.25993708  1
  O  O382  1  0.10266839  0.76044268  0.73958141  1
  O  O383  1  0.61225937  0.24538181  0.25027157  1
  O  O384  1  0.61063984  0.24262421  0.74635867  1
  O  O385  1  0.62034970  0.75254574  0.25411665  1
  O  O386  1  0.63038026  0.74417224  0.76399565  1
  O  O387  1  0.38465935  0.24133553  0.24142792  1
  O  O388  1  0.38045196  0.24468510  0.73719304  1
  O  O389  1  0.38522958  0.74042637  0.24894147  1
  O  O390  1  0.37160476  0.73649112  0.73482656  1
  O  O391  1  0.88224055  0.25272783  0.23877257  1
  O  O392  1  0.88042828  0.24275524  0.74386730  1
  O  O393  1  0.87093163  0.73718379  0.25063663  1
  O  O394  1  0.87741325  0.75958907  0.73816921  1
  O  O395  1  0.36975336  0.48455403  0.49590657  1
  O  O396  1  0.38906661  0.49082403  1.00502853  1
  O  O397  1  0.38319234  0.99948748  0.48638410  1
  O  O398  1  0.38396773  0.98046463  1.00298948  1
  O  O399  1  0.86538103  0.49529812  0.49061596  1
  O  O400  1  0.87805947  0.49577356  0.98818272  1
  O  O401  1  0.87919250  0.98976662  0.49728147  1
  O  O402  1  0.87795276  0.99270951  1.00058278  1
  O  O403  1  0.11912772  0.00443723  0.00521486  1
  O  O404  1  0.11099650  -0.00677481  0.49636705  1
  O  O405  1  0.11031742  0.49939857  -0.00683664  1
  O  O406  1  0.12959512  0.51339817  0.51583941  1
  O  O407  1  0.60722212  -0.00726226  -0.00336244  1
  O  O408  1  0.61429367  0.00760041  0.48965053  1
  O  O409  1  0.62116370  0.50500611  0.00520813  1
  O  O410  1  0.63692965  0.51017235  0.51196852  1
  O  O411  1  0.37252065  0.36519081  0.11378235  1
  O  O412  1  0.38013306  0.36479278  0.61122140  1
  O  O413  1  0.36225615  0.86667101  0.11966055  1
  O  O414  1  0.36655652  0.86272614  0.62197485  1
  O  O415  1  0.86746430  0.37097186  0.11650090  1
  O  O416  1  0.87077416  0.36961718  0.62215805  1
  O  O417  1  0.86393543  0.87312128  0.11335959  1
  O  O418  1  0.87261843  0.86671556  0.61435021  1
  O  O419  1  0.14271267  0.11932361  0.37010472  1
  O  O420  1  0.13510083  0.12675043  0.88200063  1
  O  O421  1  0.12153320  0.63123211  0.39259866  1
  O  O422  1  0.11954447  0.62378160  0.89124355  1
  O  O423  1  0.63852089  0.12651198  0.38166194  1
  O  O424  1  0.61535203  0.13415045  0.89147759  1
  O  O425  1  0.62713037  0.62454164  0.38117640  1
  O  O426  1  0.61557690  0.63160071  0.88574882  1
