# generated using pymatgen
data_V85Zn86O256
_symmetry_space_group_name_H-M   'P 1'
_cell_length_a   16.95351733
_cell_length_b   16.94332399
_cell_length_c   16.94779043
_cell_angle_alpha   90.05831406
_cell_angle_beta   89.96674674
_cell_angle_gamma   90.01799084
_symmetry_Int_Tables_number   1
_chemical_formula_structural   V85Zn86O256
_chemical_formula_sum   'V85 Zn86 O256'
_cell_volume   4868.23120290
_cell_formula_units_Z   1
loop_
 _symmetry_equiv_pos_site_id
 _symmetry_equiv_pos_as_xyz
  1  'x, y, z'
loop_
 _atom_site_type_symbol
 _atom_site_label
 _atom_site_symmetry_multiplicity
 _atom_site_fract_x
 _atom_site_fract_y
 _atom_site_fract_z
 _atom_site_occupancy
  V  V0  1  0.12187210  0.87499282  0.75445838  1
  V  V1  1  0.87390789  0.87269246  0.49895273  1
  V  V2  1  0.74955958  0.87350580  0.62409293  1
  V  V3  1  0.87539012  0.24486363  0.62464176  1
  V  V4  1  0.62720609  0.88250068  0.25173273  1
  V  V5  1  0.11235369  0.61962298  0.50400774  1
  V  V6  1  0.37685043  0.87382464  -0.00163896  1
  V  V7  1  0.63221789  0.49621802  0.64263760  1
  V  V8  1  0.75403240  0.62556048  0.87616418  1
  V  V9  1  0.62009451  0.51620357  0.12634075  1
  V  V10  1  0.00129509  0.62283989  0.13002331  1
  V  V11  1  0.24795335  -0.00121334  0.24759055  1
  V  V12  1  0.37664925  0.12768377  0.75046701  1
  V  V13  1  0.25057556  0.38959217  0.62641937  1
  V  V14  1  0.49875560  0.25754882  0.25702693  1
  V  V15  1  0.35780214  0.62643057  0.75564458  1
  V  V16  1  0.62096447  0.61680933  0.49338746  1
  V  V17  1  0.35950830  0.49665166  0.86989710  1
  V  V18  1  0.12427314  0.12816805  0.49686196  1
  V  V19  1  0.61951658  0.87016735  0.75111062  1
  V  V20  1  0.75197785  0.12377478  0.87246812  1
  V  V21  1  0.50272616  0.50652463  -0.00656197  1
  V  V22  1  0.24545222  0.13040958  0.87645337  1
  V  V23  1  0.50627963  0.62443427  0.63972941  1
  V  V24  1  0.75451234  0.00379065  0.74847466  1
  V  V25  1  0.49929362  0.12594436  0.62587109  1
  V  V26  1  0.37508644  0.12415420  0.25063558  1
  V  V27  1  0.88217602  0.87550047  -0.00407322  1
  V  V28  1  0.74631512  0.12247826  0.37233917  1
  V  V29  1  0.00142774  0.12024551  0.12206714  1
  V  V30  1  0.12591857  0.37747550  0.74987599  1
  V  V31  1  0.12921642  0.74585799  0.87370862  1
  V  V32  1  0.62408702  0.26486876  0.87152365  1
  V  V33  1  -0.00004505  0.75087417  0.75344530  1
  V  V34  1  0.00159415  0.24536868  0.74965060  1
  V  V35  1  0.87972736  -0.00314463  0.87237440  1
  V  V36  1  0.85954689  0.62100323  0.25046934  1
  V  V37  1  0.12549249  -0.00104657  0.62269331  1
  V  V38  1  0.00042518  0.87361349  0.37324956  1
  V  V39  1  -0.00099327  0.00043903  0.49838380  1
  V  V40  1  0.87688494  0.62307744  0.75424902  1
  V  V41  1  0.88100868  0.74299643  0.62463324  1
  V  V42  1  0.37282050  0.26173997  0.12416382  1
  V  V43  1  0.38629537  0.37886709  0.49877876  1
  V  V44  1  0.09894429  0.50310731  0.62539273  1
  V  V45  1  0.25078195  0.87121028  0.12419870  1
  V  V46  1  0.38031104  0.75019931  0.62317316  1
  V  V47  1  0.24456228  0.25777780  0.00036862  1
  V  V48  1  0.38286614  0.74272502  0.12421443  1
  V  V49  1  -0.00269614  0.49990399  -0.00419162  1
  V  V50  1  0.86297240  0.50225918  0.36813659  1
  V  V51  1  0.74599331  0.74915776  -0.00025356  1
  V  V52  1  0.38725595  0.49678560  0.38075505  1
  V  V53  1  0.87614313  0.74855743  0.12502400  1
  V  V54  1  0.00946769  0.37739532  0.37345545  1
  V  V55  1  0.37970326  0.00042853  0.87521309  1
  V  V56  1  0.62273438  0.12647877  0.49929909  1
  V  V57  1  -0.00078102  0.12481821  0.62446496  1
  V  V58  1  0.62425069  -0.00098152  0.62498901  1
  V  V59  1  0.75080723  0.88323864  0.12972307  1
  V  V60  1  0.24490197  0.25404042  0.49817031  1
  V  V61  1  0.87633571  0.25026267  0.12869483  1
  V  V62  1  0.50088876  0.12358082  0.12352330  1
  V  V63  1  0.00223808  0.36932833  0.87542019  1
  V  V64  1  0.25530998  0.87321256  0.61686751  1
  V  V65  1  0.74651127  0.25026072  0.00282680  1
  V  V66  1  0.74855652  0.74272885  0.49409580  1
  V  V67  1  0.13150072  0.49248419  0.12708730  1
  V  V68  1  0.87881786  0.38299552  0.49837704  1
  V  V69  1  0.24329519  0.13089635  0.37214585  1
  V  V70  1  0.63259428  0.37797709  0.25298740  1
  V  V71  1  0.74936469  0.25483922  0.50036801  1
  V  V72  1  0.25068622  0.49359348  0.25028332  1
  V  V73  1  0.49413214  0.87043917  0.37722972  1
  V  V74  1  0.62170056  0.74788012  0.87353878  1
  V  V75  1  0.50443991  0.26528514  0.75389432  1
  V  V76  1  0.25072436  0.00185224  0.74832082  1
  V  V77  1  0.87103186  -0.00044939  0.37333667  1
  V  V78  1  0.87498988  0.37767872  -0.00129719  1
  V  V79  1  0.86987987  0.12003852  0.24960229  1
  V  V80  1  0.12574945  0.74676735  0.37592886  1
  V  V81  1  0.13250259  0.62335456  -0.00411633  1
  V  V82  1  0.37534103  0.25393604  0.62662061  1
  V  V83  1  0.49256192  -0.00563191  0.49964337  1
  V  V84  1  0.38192456  0.62295640  0.24800578  1
  Zn  Zn85  1  0.49615202  0.86471070  0.87003486  1
  Zn  Zn86  1  0.12421813  0.87007850  0.24761136  1
  Zn  Zn87  1  0.80724232  0.46575482  0.81674174  1
  Zn  Zn88  1  0.25193314  0.62271588  0.38083949  1
  Zn  Zn89  1  0.12314657  0.12465781  -0.00404835  1
  Zn  Zn90  1  0.00585837  -0.00367146  -0.00893339  1
  Zn  Zn91  1  0.61461953  0.26098841  0.38151112  1
  Zn  Zn92  1  0.01485166  0.24299969  0.26091068  1
  Zn  Zn93  1  0.62286143  0.12403672  -0.00065691  1
  Zn  Zn94  1  0.25502713  0.74288362  -0.00841605  1
  Zn  Zn95  1  0.62764251  0.74545039  0.37211930  1
  Zn  Zn96  1  0.38307297  0.37206418  -0.01306126  1
  Zn  Zn97  1  0.75415919  0.38780523  0.13241536  1
  Zn  Zn98  1  0.50498694  -0.00107754  0.00012139  1
  Zn  Zn99  1  0.00089960  0.74837083  0.25082538  1
  Zn  Zn100  1  0.13324877  0.36514281  0.24988476  1
  Zn  Zn101  1  0.74561382  0.37600683  0.64349356  1
  Zn  Zn102  1  0.36950034  -0.00738360  0.38109287  1
  Zn  Zn103  1  0.12427942  -0.00336362  0.11827793  1
  Zn  Zn104  1  0.25418517  0.74784369  0.49944185  1
  Zn  Zn105  1  0.50397362  0.74637314  0.24855865  1
  Zn  Zn106  1  0.62956795  0.00439776  0.12540104  1
  Zn  Zn107  1  0.18699925  0.18939535  0.18129743  1
  Zn  Zn108  1  0.18713690  0.19132907  0.68511820  1
  Zn  Zn109  1  0.19384217  0.68123772  0.18898810  1
  Zn  Zn110  1  0.18574332  0.68713321  0.68238729  1
  Zn  Zn111  1  0.68469379  0.19265368  0.18971687  1
  Zn  Zn112  1  0.68517995  0.18836280  0.68826557  1
  Zn  Zn113  1  0.68568007  0.69657693  0.18667518  1
  Zn  Zn114  1  0.69368797  0.68580916  0.68917464  1
  Zn  Zn115  1  0.31467512  0.31398254  0.31444960  1
  Zn  Zn116  1  0.31032719  0.31360042  0.81079287  1
  Zn  Zn117  1  0.31271505  0.80783170  0.31152175  1
  Zn  Zn118  1  0.31042911  0.81150339  0.80572908  1
  Zn  Zn119  1  0.81483234  0.31040873  0.31575869  1
  Zn  Zn120  1  0.81915729  0.29745732  0.81411213  1
  Zn  Zn121  1  0.81322208  0.80901549  0.30991172  1
  Zn  Zn122  1  0.81006417  0.81388493  0.81178879  1
  Zn  Zn123  1  0.19223955  0.44411192  0.44054519  1
  Zn  Zn124  1  0.18537996  0.43707262  0.93661137  1
  Zn  Zn125  1  0.18631984  0.93816353  0.43446286  1
  Zn  Zn126  1  0.19024386  0.93852112  0.93649149  1
  Zn  Zn127  1  0.68634068  0.43988488  0.43922408  1
  Zn  Zn128  1  0.68304550  0.44071166  0.95018129  1
  Zn  Zn129  1  0.68351935  0.93576492  0.43785703  1
  Zn  Zn130  1  0.68765821  0.93598755  0.93947662  1
  Zn  Zn131  1  0.31353500  0.06510530  0.06127545  1
  Zn  Zn132  1  0.31116206  0.06607728  0.56302555  1
  Zn  Zn133  1  0.31660193  0.55703883  0.06181563  1
  Zn  Zn134  1  0.31299652  0.57016690  0.56063081  1
  Zn  Zn135  1  0.81497071  0.06306535  0.05758019  1
  Zn  Zn136  1  0.81053706  0.06307876  0.55892032  1
  Zn  Zn137  1  0.80875200  0.56321148  0.06343292  1
  Zn  Zn138  1  0.80962827  0.56181862  0.56375000  1
  Zn  Zn139  1  0.44372101  0.44060807  0.18843173  1
  Zn  Zn140  1  0.43801428  0.44619534  0.68584394  1
  Zn  Zn141  1  0.43855108  0.93522433  0.18999841  1
  Zn  Zn142  1  0.43727510  0.93704223  0.68691155  1
  Zn  Zn143  1  0.94226190  0.43706271  0.19106819  1
  Zn  Zn144  1  0.92322168  0.42662210  0.69327050  1
  Zn  Zn145  1  0.93697154  0.93679772  0.18744887  1
  Zn  Zn146  1  0.93758508  0.93429216  0.68552205  1
  Zn  Zn147  1  0.06083074  0.06114760  0.30831929  1
  Zn  Zn148  1  0.06435337  0.06319441  0.80981473  1
  Zn  Zn149  1  0.05924902  0.55533909  0.31694043  1
  Zn  Zn150  1  0.05910195  0.56280433  0.81147526  1
  Zn  Zn151  1  0.56085236  0.06109136  0.31419741  1
  Zn  Zn152  1  0.56628159  0.06760437  0.81181820  1
  Zn  Zn153  1  0.56492849  0.55772506  0.31067527  1
  Zn  Zn154  1  0.56462609  0.56369003  0.81827132  1
  Zn  Zn155  1  0.43180706  0.18658027  0.43916849  1
  Zn  Zn156  1  0.43832227  0.19146778  0.93695797  1
  Zn  Zn157  1  0.44290372  0.68238331  0.44039982  1
  Zn  Zn158  1  0.43851299  0.68089240  0.93816962  1
  Zn  Zn159  1  0.93682166  0.19097258  0.43619030  1
  Zn  Zn160  1  0.93565863  0.18566731  0.93731553  1
  Zn  Zn161  1  0.93708373  0.68391837  0.43547495  1
  Zn  Zn162  1  0.94201467  0.69148127  0.93645149  1
  Zn  Zn163  1  0.06222875  0.30891409  0.06501691  1
  Zn  Zn164  1  0.06044311  0.31649692  0.56067875  1
  Zn  Zn165  1  0.06442153  0.80880985  0.06091425  1
  Zn  Zn166  1  0.06311081  0.81144626  0.56247118  1
  Zn  Zn167  1  0.55925757  0.32158154  0.06606526  1
  Zn  Zn168  1  0.56461575  0.31485166  0.56924713  1
  Zn  Zn169  1  0.56429339  0.81369288  0.06217538  1
  Zn  Zn170  1  0.56206852  0.80761387  0.56205160  1
  O  O171  1  0.11193929  0.12168095  0.12282823  1
  O  O172  1  0.12138850  0.11841765  0.61723892  1
  O  O173  1  0.11768218  0.61773954  0.11794335  1
  O  O174  1  0.12169333  0.61186892  0.61937589  1
  O  O175  1  0.61396257  0.12622332  0.12668901  1
  O  O176  1  0.61940187  0.11923812  0.61926739  1
  O  O177  1  0.62265427  0.61518117  0.13703902  1
  O  O178  1  0.61931556  0.61953862  0.62604071  1
  O  O179  1  0.37049859  0.38759887  0.38439434  1
  O  O180  1  0.37298313  0.39254253  0.86604437  1
  O  O181  1  0.38771723  0.87514949  0.36896661  1
  O  O182  1  0.37380485  0.88105684  0.87891402  1
  O  O183  1  0.87775944  0.38566150  0.37920279  1
  O  O184  1  0.88426505  0.37549501  0.88709226  1
  O  O185  1  0.87924650  0.87903546  0.37921123  1
  O  O186  1  0.86760020  0.88404483  0.88434051  1
  O  O187  1  0.25166801  0.00803806  0.36644754  1
  O  O188  1  0.26133718  0.00744163  0.86839586  1
  O  O189  1  0.25784779  0.50320736  0.36643733  1
  O  O190  1  0.26007706  0.50174997  0.87629032  1
  O  O191  1  0.75490149  0.01411161  0.38556682  1
  O  O192  1  0.75574806  0.00529706  0.86730534  1
  O  O193  1  0.76380278  0.49827684  0.37401398  1
  O  O194  1  0.74758336  0.51837000  0.89320201  1
  O  O195  1  0.24140988  0.50520650  0.13476885  1
  O  O196  1  0.25097283  0.49017285  0.62241832  1
  O  O197  1  0.25296959  0.99065885  0.13147020  1
  O  O198  1  0.24619849  0.99497546  0.62874018  1
  O  O199  1  0.72914831  0.49923929  0.11216946  1
  O  O200  1  0.73716313  0.50038354  0.62858015  1
  O  O201  1  0.75278442  0.98699122  0.11969225  1
  O  O202  1  0.74567935  0.99601011  0.62968836  1
  O  O203  1  0.00509228  0.37168547  0.26187039  1
  O  O204  1  0.00361530  0.36756897  0.75777703  1
  O  O205  1  0.00313719  0.87187239  0.25669926  1
  O  O206  1  0.01237635  0.86670064  0.74318642  1
  O  O207  1  0.50988743  0.36362638  0.24632094  1
  O  O208  1  0.49533409  0.36351419  0.74311582  1
  O  O209  1  0.50773753  0.87285239  0.25894430  1
  O  O210  1  0.51462090  0.88053097  0.75155035  1
  O  O211  1  0.49101144  0.13060278  0.24504355  1
  O  O212  1  0.49466910  0.13077318  0.74341179  1
  O  O213  1  0.48638060  0.62518819  0.25590744  1
  O  O214  1  0.49975009  0.62806765  0.74138623  1
  O  O215  1  0.98884253  0.12636706  0.24239701  1
  O  O216  1  1.01095973  0.13639300  0.73972009  1
  O  O217  1  0.99550484  0.62049962  0.23791785  1
  O  O218  1  0.99234912  0.64109687  0.75487272  1
  O  O219  1  0.36971023  0.25409918  0.00717172  1
  O  O220  1  0.36535608  0.25807443  0.50586879  1
  O  O221  1  0.37290552  0.75546630  0.00405456  1
  O  O222  1  0.37297679  0.73629213  0.51787824  1
  O  O223  1  0.86817958  0.25795038  0.00692612  1
  O  O224  1  0.86599631  0.25684933  0.50513281  1
  O  O225  1  0.87063446  0.75832943  0.00433513  1
  O  O226  1  0.87002083  0.75079763  0.50618134  1
  O  O227  1  0.13770221  0.24601222  0.50812263  1
  O  O228  1  0.14044666  0.24777978  1.00499714  1
  O  O229  1  0.12452437  0.73859654  0.49450611  1
  O  O230  1  0.12617486  0.74118997  0.99065390  1
  O  O231  1  0.63214869  0.24765657  0.50048049  1
  O  O232  1  0.63493512  0.25236189  0.99436041  1
  O  O233  1  0.63378623  0.73929981  0.50071480  1
  O  O234  1  0.63808017  0.75917971  0.99121453  1
  O  O235  1  0.49168215  0.24189970  0.13451286  1
  O  O236  1  0.49583080  0.24473591  0.63341693  1
  O  O237  1  0.48627989  0.75570384  0.12527106  1
  O  O238  1  0.49398157  0.73760971  0.62467064  1
  O  O239  1  0.98784199  0.24013402  0.12327406  1
  O  O240  1  0.99385949  0.24560037  0.62762129  1
  O  O241  1  0.99588267  0.73736049  0.12434798  1
  O  O242  1  0.98870798  0.75499943  0.63361699  1
  O  O243  1  -0.01004175  0.26834370  0.37318790  1
  O  O244  1  -0.00675321  0.25831258  0.86554506  1
  O  O245  1  0.00854623  0.75487127  0.37489252  1
  O  O246  1  0.01323121  0.75365548  0.86534572  1
  O  O247  1  0.49695536  0.24289040  0.36279425  1
  O  O248  1  0.51165936  0.24578841  0.86642711  1
  O  O249  1  0.50330539  0.75913017  0.37693700  1
  O  O250  1  0.51647826  0.74639923  0.88223543  1
  O  O251  1  0.24585145  0.13330118  0.49215390  1
  O  O252  1  0.25120193  0.13333271  0.99120850  1
  O  O253  1  0.23439160  0.62765427  0.50041079  1
  O  O254  1  0.23560174  0.62397975  1.00636567  1
  O  O255  1  0.74375078  0.13497446  0.49426301  1
  O  O256  1  0.74968749  0.13613751  0.99350465  1
  O  O257  1  0.73682105  0.63418574  0.50836120  1
  O  O258  1  0.76133275  0.64235781  0.99274257  1
  O  O259  1  0.25314583  0.36053954  -0.00740405  1
  O  O260  1  0.25579842  0.36983781  0.50784047  1
  O  O261  1  0.26122225  0.87292085  0.00690058  1
  O  O262  1  0.24585072  0.87556863  0.51319176  1
  O  O263  1  0.76060385  0.36585987  0.00116982  1
  O  O264  1  0.75676172  0.36502675  0.49983525  1
  O  O265  1  0.76043310  0.86739083  0.00784263  1
  O  O266  1  0.75406541  0.86731662  0.50527585  1
  O  O267  1  0.13412525  0.50071773  0.24315640  1
  O  O268  1  0.11383685  0.49185708  0.73572176  1
  O  O269  1  0.13815635  0.99733554  0.24557790  1
  O  O270  1  0.12984190  0.99271008  0.74328080  1
  O  O271  1  0.61964765  0.48727920  0.23923477  1
  O  O272  1  0.62645772  0.50265301  0.74220486  1
  O  O273  1  0.62164132  0.98785251  0.24696860  1
  O  O274  1  0.63428995  0.99308395  0.74521914  1
  O  O275  1  0.36523606  0.00936830  0.24992576  1
  O  O276  1  0.37040350  0.00604667  0.75591998  1
  O  O277  1  0.37142473  0.50298962  0.25853314  1
  O  O278  1  0.38030068  0.51390418  0.76065324  1
  O  O279  1  0.87592079  0.01226027  0.25578153  1
  O  O280  1  0.86253929  -0.01022083  0.75558717  1
  O  O281  1  0.87417001  0.50456363  0.25809407  1
  O  O282  1  0.89078984  0.51891058  0.75384307  1
  O  O283  1  0.11163685  0.38430439  0.38035277  1
  O  O284  1  0.11417083  0.38051340  0.86306461  1
  O  O285  1  0.11947940  0.86420587  0.37477353  1
  O  O286  1  0.13213537  0.86907911  0.86032963  1
  O  O287  1  0.62734364  0.37890436  0.36046692  1
  O  O288  1  0.63778195  0.36359885  0.87680926  1
  O  O289  1  0.61690697  0.87411207  0.36748856  1
  O  O290  1  0.62498594  0.86745980  0.86735886  1
  O  O291  1  0.38025011  0.13247906  0.13507631  1
  O  O292  1  0.37857764  0.13362219  0.63065980  1
  O  O293  1  0.36767079  0.63301435  0.13395416  1
  O  O294  1  0.38690862  0.62531200  0.63675888  1
  O  O295  1  0.87920628  0.12987721  0.13084842  1
  O  O296  1  0.88214388  0.13667718  0.61378558  1
  O  O297  1  0.88216606  0.62653359  0.13132402  1
  O  O298  1  0.86754492  0.63655395  0.63555452  1
  O  O299  1  0.26129742  0.24136850  0.10874049  1
  O  O300  1  0.25643165  0.25917700  0.61662636  1
  O  O301  1  0.25988942  0.75848718  0.12424372  1
  O  O302  1  0.25718598  0.75859232  0.62459049  1
  O  O303  1  0.76020799  0.24765110  0.11611574  1
  O  O304  1  0.75686463  0.25089156  0.61847784  1
  O  O305  1  0.75639573  0.75827433  0.11655359  1
  O  O306  1  0.75979180  0.75529345  0.61770027  1
  O  O307  1  0.25588877  0.24201535  0.38594899  1
  O  O308  1  0.26005634  0.24130945  0.88757035  1
  O  O309  1  0.23929220  0.74810385  0.37875357  1
  O  O310  1  0.23498747  0.75130409  0.87217770  1
  O  O311  1  0.74996271  0.24024741  0.38658684  1
  O  O312  1  0.74640978  0.24199430  0.88145061  1
  O  O313  1  0.75031433  0.75316857  0.38977362  1
  O  O314  1  0.74445079  0.74699083  0.88254311  1
  O  O315  1  -0.00023826  0.12330418  0.00840582  1
  O  O316  1  0.00492357  0.12075620  0.50248384  1
  O  O317  1  0.00482541  0.61692581  0.00834885  1
  O  O318  1  0.01255919  0.62665700  0.50141631  1
  O  O319  1  0.49891389  0.12578987  0.01198811  1
  O  O320  1  0.50334713  0.11941332  0.50549647  1
  O  O321  1  0.48758165  0.60659465  0.00842771  1
  O  O322  1  0.51709708  0.62845162  0.51444770  1
  O  O323  1  0.48499056  0.36904251  0.50601640  1
  O  O324  1  0.49467067  0.39270305  1.00580702  1
  O  O325  1  0.50765860  0.88450939  0.49224269  1
  O  O326  1  0.48648787  0.87647131  0.99652357  1
  O  O327  1  0.98815144  0.37040426  0.48832967  1
  O  O328  1  0.99550797  0.37782915  0.99436739  1
  O  O329  1  0.99423631  0.88038239  0.49433977  1
  O  O330  1  0.98627028  0.87540669  1.00695963  1
  O  O331  1  0.48567784  0.49775696  0.37229619  1
  O  O332  1  0.49721884  0.50488832  0.88788781  1
  O  O333  1  0.49662997  0.99242802  0.38396613  1
  O  O334  1  0.48702429  1.00219498  0.87388572  1
  O  O335  1  0.98623662  0.48451068  0.37293747  1
  O  O336  1  1.00344886  0.49038643  0.88913967  1
  O  O337  1  0.99323608  0.99499791  0.37948822  1
  O  O338  1  0.98375160  1.00902150  0.87020630  1
  O  O339  1  -0.00133846  0.01005878  0.12223462  1
  O  O340  1  0.00433854  0.00422694  0.61869741  1
  O  O341  1  0.00797684  0.50607567  0.11702956  1
  O  O342  1  0.00174570  0.49350173  0.62310144  1
  O  O343  1  0.49661553  0.01301722  0.12522523  1
  O  O344  1  0.50410590  0.00479349  0.61879062  1
  O  O345  1  0.51278840  0.49941726  0.12018431  1
  O  O346  1  0.51304605  0.51513907  0.62872598  1
  O  O347  1  0.25059128  0.38821685  0.25490808  1
  O  O348  1  0.23624432  0.36762779  0.73879649  1
  O  O349  1  0.25242838  0.88260174  0.24140640  1
  O  O350  1  0.24182780  0.88186248  0.73907010  1
  O  O351  1  0.73768057  0.36572880  0.24881908  1
  O  O352  1  0.79499240  0.38275236  0.74543457  1
  O  O353  1  0.74261029  0.86833387  0.24022545  1
  O  O354  1  0.74148753  0.88410393  0.74393975  1
  O  O355  1  0.25605806  0.11918329  0.25342980  1
  O  O356  1  0.25560612  0.12379013  0.75480205  1
  O  O357  1  0.26292599  0.61424549  0.25558930  1
  O  O358  1  0.25966510  0.62110415  0.74247702  1
  O  O359  1  0.75716347  0.13280370  0.26096991  1
  O  O360  1  0.74507169  0.11310099  0.75653131  1
  O  O361  1  0.76112752  0.63067379  0.24664596  1
  O  O362  1  0.76444089  0.63040272  0.76244557  1
  O  O363  1  0.36294566  0.12338117  0.36462304  1
  O  O364  1  0.36818777  0.11828395  0.87027603  1
  O  O365  1  0.37521604  0.61271909  0.37159822  1
  O  O366  1  0.37372682  0.62035733  0.86147982  1
  O  O367  1  0.86758565  0.12121556  0.36846973  1
  O  O368  1  0.85988963  0.11649932  0.87929567  1
  O  O369  1  0.88260200  0.61002386  0.36582118  1
  O  O370  1  0.86779796  0.63596862  0.86707100  1
  O  O371  1  0.11767696  0.38979922  0.12565134  1
  O  O372  1  0.12786661  0.39009891  0.62672518  1
  O  O373  1  0.13807962  0.87242423  0.12534986  1
  O  O374  1  0.13316202  0.87920999  0.63192716  1
  O  O375  1  0.63024226  0.37708462  0.13877496  1
  O  O376  1  0.62735094  0.39146144  0.62405105  1
  O  O377  1  0.63379934  0.87552255  0.13281882  1
  O  O378  1  0.62944954  0.87858120  0.63114454  1
  O  O379  1  0.12716111  0.25286706  0.24820742  1
  O  O380  1  0.11233445  0.26539729  0.73676189  1
  O  O381  1  0.12444299  0.74524075  0.26237107  1
  O  O382  1  0.11918124  0.75429826  0.75270202  1
  O  O383  1  0.61624382  0.26013593  0.25476407  1
  O  O384  1  0.61724186  0.24790237  0.75791756  1
  O  O385  1  0.62151504  0.76167132  0.25407447  1
  O  O386  1  0.63618541  0.76156773  0.75873978  1
  O  O387  1  0.37796830  0.24276488  0.24494666  1
  O  O388  1  0.38283779  0.24651560  0.74640835  1
  O  O389  1  0.37633164  0.73987295  0.24191851  1
  O  O390  1  0.37127485  0.73516449  0.74127320  1
  O  O391  1  0.87427375  0.24010606  0.24033192  1
  O  O392  1  0.89018763  0.24808936  0.73651685  1
  O  O393  1  0.87964665  0.73885848  0.24406434  1
  O  O394  1  0.88197060  0.74896072  0.74411426  1
  O  O395  1  0.37090564  0.49571325  0.48820928  1
  O  O396  1  0.37783978  0.49754715  0.98506478  1
  O  O397  1  0.38775841  1.00595542  0.50103765  1
  O  O398  1  0.37450338  0.99155135  0.99086930  1
  O  O399  1  0.86744601  0.49132060  0.49006535  1
  O  O400  1  0.88574612  0.48830602  1.01159129  1
  O  O401  1  0.87972221  0.99344306  0.49450452  1
  O  O402  1  0.87608696  0.99184710  0.98928153  1
  O  O403  1  0.12214655  0.00293695  0.00010387  1
  O  O404  1  0.11853220  0.00631777  0.50341565  1
  O  O405  1  0.11826571  0.50480749  0.00621124  1
  O  O406  1  0.12406300  0.50899806  0.51338030  1
  O  O407  1  0.62202303  0.00354602  0.00470798  1
  O  O408  1  0.61553416  0.00612544  0.50622162  1
  O  O409  1  0.61124109  0.50307439  0.01159007  1
  O  O410  1  0.63167670  0.51430584  0.50940744  1
  O  O411  1  0.37700748  0.36240065  0.13071694  1
  O  O412  1  0.36785857  0.37506034  0.61964799  1
  O  O413  1  0.36912713  0.86765992  0.11780106  1
  O  O414  1  0.36716605  0.86344302  0.63447887  1
  O  O415  1  0.87588361  0.36659791  0.11943570  1
  O  O416  1  0.87734255  0.36151895  0.61062212  1
  O  O417  1  0.86872331  0.86908881  0.11987524  1
  O  O418  1  0.86964956  0.86586690  0.61790100  1
  O  O419  1  0.13604704  0.11996168  0.37887119  1
  O  O420  1  0.14129447  0.12128388  0.87304627  1
  O  O421  1  0.12198304  0.62810168  0.38723269  1
  O  O422  1  0.11736867  0.63105726  0.88527026  1
  O  O423  1  0.63194904  0.12750903  0.38030596  1
  O  O424  1  0.63824876  0.13245211  0.87793254  1
  O  O425  1  0.61835426  0.62298880  0.38944595  1
  O  O426  1  0.64053881  0.63821621  0.86643021  1
