# generated using pymatgen
data_V85Zn86O256
_symmetry_space_group_name_H-M   'P 1'
_cell_length_a   17.00230255
_cell_length_b   17.01142860
_cell_length_c   17.03662345
_cell_angle_alpha   90.02171243
_cell_angle_beta   89.89306567
_cell_angle_gamma   89.98844167
_symmetry_Int_Tables_number   1
_chemical_formula_structural   V85Zn86O256
_chemical_formula_sum   'V85 Zn86 O256'
_cell_volume   4927.55244163
_cell_formula_units_Z   1
loop_
 _symmetry_equiv_pos_site_id
 _symmetry_equiv_pos_as_xyz
  1  'x, y, z'
loop_
 _atom_site_type_symbol
 _atom_site_label
 _atom_site_symmetry_multiplicity
 _atom_site_fract_x
 _atom_site_fract_y
 _atom_site_fract_z
 _atom_site_occupancy
  V  V0  1  0.25101177  -0.00315573  0.24764985  1
  V  V1  1  0.24344322  0.74674329  0.49782982  1
  V  V2  1  0.24939823  0.24973074  -0.00542721  1
  V  V3  1  0.12854139  -0.00280660  0.12353331  1
  V  V4  1  0.50310724  0.74591359  0.24762917  1
  V  V5  1  0.62943972  0.74670909  0.37656030  1
  V  V6  1  0.87624552  0.75819276  0.62456915  1
  V  V7  1  0.87622168  0.12680114  0.25164885  1
  V  V8  1  0.25071116  0.87201211  0.12479979  1
  V  V9  1  0.66219464  0.74704932  0.90690940  1
  V  V10  1  0.37834173  0.12252805  0.24554991  1
  V  V11  1  0.12491862  0.50048252  0.13098763  1
  V  V12  1  0.12324489  0.61988628  -0.00095877  1
  V  V13  1  0.77246090  0.50500457  0.25557590  1
  V  V14  1  0.62840704  0.62800966  0.49940099  1
  V  V15  1  0.86599763  0.00400119  0.87695792  1
  V  V16  1  0.51102852  0.50559065  0.00471237  1
  V  V17  1  0.37256651  0.50129661  0.37515349  1
  V  V18  1  0.37637920  0.62199185  0.24663105  1
  V  V19  1  0.62506163  0.12921505  0.49858448  1
  V  V20  1  0.00153606  0.00213433  -0.00190774  1
  V  V21  1  0.12689088  0.87482673  0.74952707  1
  V  V22  1  0.24382666  0.37561839  0.12553397  1
  V  V23  1  0.12572674  0.12694818  0.49653886  1
  V  V24  1  0.86784410  0.63226074  0.75610954  1
  V  V25  1  0.74958746  0.12842035  0.37497603  1
  V  V26  1  0.37470642  0.37762787  -0.00093253  1
  V  V27  1  0.11942423  0.75006493  0.36995319  1
  V  V28  1  0.74799348  0.00039745  0.24595890  1
  V  V29  1  0.62806071  0.00030352  0.62920805  1
  V  V30  1  0.25137489  0.00038832  0.75002558  1
  V  V31  1  0.25130577  0.74822168  -0.00092071  1
  V  V32  1  0.49823856  0.25381600  0.74779222  1
  V  V33  1  0.25110732  0.87447744  0.62309142  1
  V  V34  1  0.62730612  0.25101698  0.37711933  1
  V  V35  1  0.50205466  0.77146745  0.75685343  1
  V  V36  1  0.50114470  0.24754118  0.24705827  1
  V  V37  1  0.24869613  0.25077576  0.49504583  1
  V  V38  1  0.12449282  0.37215615  0.75319448  1
  V  V39  1  0.87273270  0.86719857  0.00679139  1
  V  V40  1  0.37444651  0.12663795  0.74815128  1
  V  V41  1  0.37522428  0.50275578  0.87310802  1
  V  V42  1  0.62453270  0.37813111  0.74991482  1
  V  V43  1  0.61942544  0.50949980  0.62587690  1
  V  V44  1  -0.00663821  -0.00270820  0.49991990  1
  V  V45  1  -0.00551464  0.87305855  0.38023521  1
  V  V46  1  0.49825015  0.50933909  0.50287750  1
  V  V47  1  0.38208506  0.74531207  0.62073325  1
  V  V48  1  0.00221479  0.87714244  0.87351170  1
  V  V49  1  0.49951029  0.87405077  0.37402408  1
  V  V50  1  0.37490339  0.87442103  0.49645470  1
  V  V51  1  0.38539169  0.62475236  0.74367461  1
  V  V52  1  0.12770726  0.12700020  -0.00482710  1
  V  V53  1  0.62647303  0.87519529  0.24502485  1
  V  V54  1  0.24875354  0.49992868  0.74570314  1
  V  V55  1  0.87099217  0.12353983  0.75478207  1
  V  V56  1  0.74688308  0.51119555  0.75627768  1
  V  V57  1  0.37445496  0.37550856  0.49884273  1
  V  V58  1  0.49873103  -0.00023264  0.49783237  1
  V  V59  1  0.00168008  0.12720038  0.12638843  1
  V  V60  1  0.38367707  0.86951255  -0.00718979  1
  V  V61  1  0.75177576  0.37276263  0.61527085  1
  V  V62  1  0.12729783  -0.00149193  0.62430058  1
  V  V63  1  0.00455942  0.24979385  0.76075984  1
  V  V64  1  0.86969356  0.25486256  0.11760931  1
  V  V65  1  0.12603503  0.74932569  0.87253644  1
  V  V66  1  0.23790568  0.62340036  0.37535902  1
  V  V67  1  0.37686580  0.74464313  0.12340455  1
  V  V68  1  0.25664582  0.12523477  0.87459448  1
  V  V69  1  0.25049639  0.62492964  0.87243457  1
  V  V70  1  -0.00034495  0.37108504  0.39703831  1
  V  V71  1  -0.01194324  0.62901312  0.12681501  1
  V  V72  1  0.49879867  0.37642147  0.37470029  1
  V  V73  1  0.63160548  0.38172971  0.24642660  1
  V  V74  1  0.11222900  0.51299680  0.61983298  1
  V  V75  1  0.24644802  0.12610974  0.37148406  1
  V  V76  1  0.75043336  0.88511734  0.63160012  1
  V  V77  1  0.50071591  0.37834944  0.87234876  1
  V  V78  1  0.50255154  0.00480285  -0.00015990  1
  V  V79  1  0.50071962  0.12734664  0.62412550  1
  V  V80  1  0.37776841  0.24884498  0.12458002  1
  V  V81  1  0.00134275  0.12736030  0.62580535  1
  V  V82  1  0.00090337  0.74541008  0.74360660  1
  V  V83  1  0.75152334  0.76033572  0.50252754  1
  V  V84  1  0.37451275  0.25090568  0.62150027  1
  Zn  Zn85  1  0.75890253  0.86436314  0.12557079  1
  Zn  Zn86  1  -0.01390742  0.49617297  0.00160695  1
  Zn  Zn87  1  0.38337676  -0.00994134  0.86923300  1
  Zn  Zn88  1  0.12987338  0.35423523  0.27131293  1
  Zn  Zn89  1  0.63993075  0.13104011  -0.00056970  1
  Zn  Zn90  1  0.88223936  0.49813637  0.38295073  1
  Zn  Zn91  1  -0.00010180  0.37968252  0.87929818  1
  Zn  Zn92  1  0.61193108  0.01989385  0.12842258  1
  Zn  Zn93  1  0.64488471  0.24087127  0.87968988  1
  Zn  Zn94  1  0.88064939  0.26371936  0.61341136  1
  Zn  Zn95  1  0.52589658  0.62181968  0.11935030  1
  Zn  Zn96  1  0.74075090  0.37448252  0.11137284  1
  Zn  Zn97  1  0.87119720  -0.00382044  0.37955271  1
  Zn  Zn98  1  0.73721021  0.00557329  0.76217713  1
  Zn  Zn99  1  0.11901377  0.87266559  0.24703723  1
  Zn  Zn100  1  0.86502506  0.37287866  -0.01600331  1
  Zn  Zn101  1  -0.03207531  0.75835317  0.22441084  1
  Zn  Zn102  1  0.24802818  0.49630605  0.25274756  1
  Zn  Zn103  1  0.01117677  0.24587225  0.26474555  1
  Zn  Zn104  1  0.37467528  -0.00191275  0.37244702  1
  Zn  Zn105  1  0.24771372  0.37605740  0.62232042  1
  Zn  Zn106  1  0.87463788  0.50435408  0.87676521  1
  Zn  Zn107  1  0.18973393  0.18476408  0.18266477  1
  Zn  Zn108  1  0.18744360  0.18835523  0.68490617  1
  Zn  Zn109  1  0.18565417  0.68507891  0.18848350  1
  Zn  Zn110  1  0.19068350  0.68658626  0.68518184  1
  Zn  Zn111  1  0.68838998  0.18806213  0.18259087  1
  Zn  Zn112  1  0.68756602  0.19077808  0.69296217  1
  Zn  Zn113  1  0.70752169  0.68893169  0.20082390  1
  Zn  Zn114  1  0.68424820  0.69513068  0.68896624  1
  Zn  Zn115  1  0.31130564  0.31202531  0.31147654  1
  Zn  Zn116  1  0.31405570  0.31442577  0.81192995  1
  Zn  Zn117  1  0.31200603  0.80890173  0.31037787  1
  Zn  Zn118  1  0.31544424  0.80891228  0.80944348  1
  Zn  Zn119  1  0.82094271  0.31487734  0.31773793  1
  Zn  Zn120  1  0.81806392  0.31958481  0.80081769  1
  Zn  Zn121  1  0.80848758  0.81735756  0.32038498  1
  Zn  Zn122  1  0.81082836  0.82081901  0.81508344  1
  Zn  Zn123  1  0.17770304  0.43957821  0.43830973  1
  Zn  Zn124  1  0.18594315  0.43747601  0.93507601  1
  Zn  Zn125  1  0.18498197  0.93694732  0.43411581  1
  Zn  Zn126  1  0.19405870  0.93666230  0.93630469  1
  Zn  Zn127  1  0.68893271  0.44117525  0.43242654  1
  Zn  Zn128  1  0.69259064  0.43561616  0.93806602  1
  Zn  Zn129  1  0.68544585  0.94001704  0.43825728  1
  Zn  Zn130  1  0.67999147  0.92550914  0.93891583  1
  Zn  Zn131  1  0.31963918  0.05847310  0.06055145  1
  Zn  Zn132  1  0.31350208  0.06249338  0.56104859  1
  Zn  Zn133  1  0.31232969  0.56025094  0.06025487  1
  Zn  Zn134  1  0.30729611  0.56435860  0.56148249  1
  Zn  Zn135  1  0.81243904  0.05866408  0.06624858  1
  Zn  Zn136  1  0.81934524  0.08681602  0.55916199  1
  Zn  Zn137  1  0.80393439  0.55028715  0.07318415  1
  Zn  Zn138  1  0.80280018  0.57536006  0.57922225  1
  Zn  Zn139  1  0.44002679  0.43659008  0.18557535  1
  Zn  Zn140  1  0.43497246  0.43878215  0.68334500  1
  Zn  Zn141  1  0.43699394  0.93267413  0.18262606  1
  Zn  Zn142  1  0.43568937  0.94114230  0.68058072  1
  Zn  Zn143  1  0.95210966  0.43173366  0.19573660  1
  Zn  Zn144  1  0.93336830  0.44082693  0.68952791  1
  Zn  Zn145  1  0.93994039  0.94057913  0.19221576  1
  Zn  Zn146  1  0.93677340  0.93922908  0.68761765  1
  Zn  Zn147  1  0.06410538  0.05888315  0.31268819  1
  Zn  Zn148  1  0.06550901  0.06465436  0.81493026  1
  Zn  Zn149  1  0.02550890  0.57576757  0.32599653  1
  Zn  Zn150  1  0.05937498  0.56075867  0.81022101  1
  Zn  Zn151  1  0.56135920  0.06141062  0.31197900  1
  Zn  Zn152  1  0.55871213  0.06328634  0.82079192  1
  Zn  Zn153  1  0.56286048  0.56299492  0.31503458  1
  Zn  Zn154  1  0.56993965  0.57491331  0.82143231  1
  Zn  Zn155  1  0.43636315  0.18672791  0.43285234  1
  Zn  Zn156  1  0.47320255  0.20189189  0.95339032  1
  Zn  Zn157  1  0.43598268  0.68761646  0.43378404  1
  Zn  Zn158  1  0.44305669  0.68592194  0.93304815  1
  Zn  Zn159  1  0.92898308  0.19918228  0.44440785  1
  Zn  Zn160  1  0.81121885  0.19046379  0.93400714  1
  Zn  Zn161  1  0.92665830  0.68575748  0.43984578  1
  Zn  Zn162  1  0.93871563  0.68731468  0.93631028  1
  Zn  Zn163  1  0.05707159  0.31214370  0.05707542  1
  Zn  Zn164  1  0.06882192  0.31656807  0.56843323  1
  Zn  Zn165  1  0.06376797  0.81163961  0.05830481  1
  Zn  Zn166  1  0.06303018  0.81325973  0.56106778  1
  Zn  Zn167  1  0.56639850  0.31318842  0.06119671  1
  Zn  Zn168  1  0.56335638  0.31808450  0.56208700  1
  Zn  Zn169  1  0.56525402  0.80788216  0.05989314  1
  Zn  Zn170  1  0.56410169  0.81708455  0.56617577  1
  O  O171  1  0.12209810  0.11654303  0.11387801  1
  O  O172  1  0.12007767  0.11760553  0.61804067  1
  O  O173  1  0.12564556  0.61790038  0.11393555  1
  O  O174  1  0.12703450  0.61309244  0.63105907  1
  O  O175  1  0.62414186  0.13023392  0.11529288  1
  O  O176  1  0.62057603  0.12431764  0.61446528  1
  O  O177  1  0.65063155  0.62379762  0.11941102  1
  O  O178  1  0.62486830  0.61582370  0.61602431  1
  O  O179  1  0.37857083  0.38108732  0.37896783  1
  O  O180  1  0.38088656  0.38490170  0.87752673  1
  O  O181  1  0.38138888  0.87329333  0.37856342  1
  O  O182  1  0.36349337  0.87382230  0.88861989  1
  O  O183  1  0.89003546  0.37711913  0.37881525  1
  O  O184  1  0.88190391  0.38478236  0.86553832  1
  O  O185  1  0.88881698  0.87552168  0.37605670  1
  O  O186  1  0.88450191  0.88588817  0.88579605  1
  O  O187  1  0.25278502  0.00841549  0.36779592  1
  O  O188  1  0.25566701  0.00804179  0.86776640  1
  O  O189  1  0.25318039  0.50828276  0.37561850  1
  O  O190  1  0.25472246  0.50473929  0.86414268  1
  O  O191  1  0.74790139  0.01004048  0.36652040  1
  O  O192  1  0.76274595  -0.01143530  0.87560070  1
  O  O193  1  0.76211577  0.48711340  0.36254744  1
  O  O194  1  0.74438303  0.50082583  0.85740291  1
  O  O195  1  0.24563468  0.48895941  0.12448689  1
  O  O196  1  0.24721329  0.49959805  0.63651979  1
  O  O197  1  0.24748692  0.99339327  0.12772086  1
  O  O198  1  0.24670271  0.99519089  0.62961139  1
  O  O199  1  0.75614737  0.48102021  0.15166008  1
  O  O200  1  0.73663910  0.49584723  0.63280681  1
  O  O201  1  0.74912513  0.99449094  0.14103297  1
  O  O202  1  0.74253058  0.99818429  0.61632258  1
  O  O203  1  0.01347056  0.36384824  0.25993849  1
  O  O204  1  0.00592392  0.35963656  0.74295332  1
  O  O205  1  -0.00157012  0.86625745  0.25955290  1
  O  O206  1  0.00804050  0.86923775  0.75465662  1
  O  O207  1  0.50657249  0.36659650  0.25568410  1
  O  O208  1  0.50567769  0.37718730  0.75318940  1
  O  O209  1  0.50808792  0.86657464  0.25326795  1
  O  O210  1  0.49079960  0.87068372  0.74794833  1
  O  O211  1  0.49014371  0.13586558  0.25630597  1
  O  O212  1  0.49311098  0.13341354  0.74298149  1
  O  O213  1  0.49429742  0.62641113  0.24496996  1
  O  O214  1  0.48550437  0.62293947  0.75085713  1
  O  O215  1  0.99271402  0.11834970  0.24212566  1
  O  O216  1  1.00445470  0.13458692  0.74536268  1
  O  O217  1  1.00357565  0.63646399  0.22895488  1
  O  O218  1  0.99246548  0.64178019  0.75169564  1
  O  O219  1  0.37303575  0.25614984  0.00884979  1
  O  O220  1  0.36925213  0.25413600  0.50188715  1
  O  O221  1  0.37059307  0.74987474  0.00357937  1
  O  O222  1  0.36701586  0.75371725  0.50287052  1
  O  O223  1  0.87458993  0.24849903  0.01640847  1
  O  O224  1  0.85908718  0.19627395  0.52806322  1
  O  O225  1  0.88639869  0.76954586  -0.00427799  1
  O  O226  1  0.86211881  0.74533575  0.51054744  1
  O  O227  1  0.13774170  0.23568596  0.50922456  1
  O  O228  1  0.13877160  0.23822268  1.00803648  1
  O  O229  1  0.13765247  0.75456520  0.49157527  1
  O  O230  1  0.13189966  0.74061182  0.99185565  1
  O  O231  1  0.61460079  0.24261243  0.48703053  1
  O  O232  1  0.58367997  0.23983280  0.98126701  1
  O  O233  1  0.62776800  0.74636922  0.49583132  1
  O  O234  1  0.64863721  0.75387929  1.00924314  1
  O  O235  1  0.48591851  0.26041568  0.13623235  1
  O  O236  1  0.49501085  0.24753114  0.62766783  1
  O  O237  1  0.49694655  0.73947607  0.13006495  1
  O  O238  1  0.48464261  0.75720434  0.62732008  1
  O  O239  1  0.99531209  0.23286287  0.12292400  1
  O  O240  1  1.00262213  0.23514587  0.62606643  1
  O  O241  1  1.00490150  0.73559774  0.11658260  1
  O  O242  1  0.99106957  0.76186011  0.63354739  1
  O  O243  1  -0.00647681  0.25826190  0.37904165  1
  O  O244  1  0.00230509  0.25062561  0.85742313  1
  O  O245  1  0.00986644  0.75800556  0.38884988  1
  O  O246  1  0.00789448  0.75731577  0.86494788  1
  O  O247  1  0.50526262  0.25533071  0.36565978  1
  O  O248  1  0.48482515  0.27086252  0.86114568  1
  O  O249  1  0.50921892  0.75401574  0.36873825  1
  O  O250  1  0.48792456  0.75308192  0.85482755  1
  O  O251  1  0.24628515  0.12934628  0.49121313  1
  O  O252  1  0.24834171  0.12994602  0.99452694  1
  O  O253  1  0.25755886  0.63613550  0.48546342  1
  O  O254  1  0.24414015  0.62882804  0.99230904  1
  O  O255  1  0.73101115  0.11599249  0.48641626  1
  O  O256  1  0.75373620  0.12062693  0.99875806  1
  O  O257  1  0.73513543  0.64106281  0.50847290  1
  O  O258  1  0.69782637  0.61092931  1.05605776  1
  O  O259  1  0.25430601  0.36741130  0.00343932  1
  O  O260  1  0.25595977  0.36396088  0.49794283  1
  O  O261  1  0.25648601  0.86644334  0.00652049  1
  O  O262  1  0.25458791  0.86673725  0.50191014  1
  O  O263  1  0.74997236  0.36621944  0.00032269  1
  O  O264  1  0.73987071  0.38452711  0.51705358  1
  O  O265  1  0.76944315  0.88255506  0.00746709  1
  O  O266  1  0.74432069  0.86682788  0.50781210  1
  O  O267  1  0.12795057  0.50257536  0.23250623  1
  O  O268  1  0.13458041  0.49552513  0.74378257  1
  O  O269  1  0.13301490  0.99745919  0.24107500  1
  O  O270  1  0.13152453  0.99469887  0.74491580  1
  O  O271  1  0.62342989  0.48271132  0.25896079  1
  O  O272  1  0.62507816  0.50060181  0.74324195  1
  O  O273  1  0.62859922  0.99215765  0.24809699  1
  O  O274  1  0.62348044  1.01482591  0.73238142  1
  O  O275  1  0.37196761  0.00806241  0.24686456  1
  O  O276  1  0.36869072  0.00867296  0.74763419  1
  O  O277  1  0.37527548  0.50644551  0.25594873  1
  O  O278  1  0.36772289  0.50582038  0.75092886  1
  O  O279  1  0.86653159  0.00978679  0.25372890  1
  O  O280  1  0.88112635  0.00641642  0.76472576  1
  O  O281  1  0.87424821  0.49537958  0.25260736  1
  O  O282  1  0.86212320  0.51680583  0.74415113  1
  O  O283  1  0.11373517  0.36668512  0.38473409  1
  O  O284  1  0.12247731  0.38055528  0.85775160  1
  O  O285  1  0.11551259  0.86792673  0.37094705  1
  O  O286  1  0.12336036  0.86988795  0.86922994  1
  O  O287  1  0.61884140  0.36634443  0.36909864  1
  O  O288  1  0.61396781  0.37953698  0.86145202  1
  O  O289  1  0.61917006  0.86677649  0.36735035  1
  O  O290  1  0.63433504  0.84178287  0.87672118  1
  O  O291  1  0.36591079  0.13682382  0.13585746  1
  O  O292  1  0.38107898  0.13071780  0.62786094  1
  O  O293  1  0.36850434  0.62708542  0.13753718  1
  O  O294  1  0.36726890  0.63550475  0.63114750  1
  O  O295  1  0.88359534  0.12914725  0.13340039  1
  O  O296  1  0.89760508  0.10363280  0.64554946  1
  O  O297  1  0.89061935  0.62016654  0.11422533  1
  O  O298  1  0.86695628  0.64984410  0.64069107  1
  O  O299  1  0.25936413  0.25715471  0.11466478  1
  O  O300  1  0.25715777  0.24831509  0.61166931  1
  O  O301  1  0.25525973  0.75167052  0.11889829  1
  O  O302  1  0.25734635  0.75447317  0.61526578  1
  O  O303  1  0.76737942  0.25599315  0.13634485  1
  O  O304  1  0.74090363  0.27222190  0.63098640  1
  O  O305  1  0.79419452  0.75622325  0.16567164  1
  O  O306  1  0.75292023  0.76573281  0.62136365  1
  O  O307  1  0.25767209  0.23804253  0.38477726  1
  O  O308  1  0.25885449  0.24337529  0.88770434  1
  O  O309  1  0.24147052  0.74382112  0.37985649  1
  O  O310  1  0.24464723  0.74338579  0.87737298  1
  O  O311  1  0.73862396  0.23871556  0.36706843  1
  O  O312  1  0.75428351  0.24977925  0.85809631  1
  O  O313  1  0.73762070  0.75726513  0.38773796  1
  O  O314  1  0.76111390  0.74482625  0.88049257  1
  O  O315  1  0.01309980  0.11297962  0.00848767  1
  O  O316  1  0.01263212  0.11614868  0.50742099  1
  O  O317  1  0.01263659  0.62484309  0.00499069  1
  O  O318  1  -0.04823685  0.58207963  0.51681940  1
  O  O319  1  0.48484927  0.10339640  0.00609596  1
  O  O320  1  0.50643724  0.12159119  0.50214818  1
  O  O321  1  0.49607757  0.61019070  0.00048791  1
  O  O322  1  0.50689218  0.61615404  0.49494106  1
  O  O323  1  0.49480779  0.38572028  0.49367530  1
  O  O324  1  0.49321204  0.38658819  0.99075207  1
  O  O325  1  0.49503616  0.87945840  0.49370934  1
  O  O326  1  0.48733730  0.87088041  1.00243450  1
  O  O327  1  0.99665766  0.36457243  0.49842689  1
  O  O328  1  0.99058791  0.37734764  0.99622124  1
  O  O329  1  1.00903500  0.88779069  0.49272746  1
  O  O330  1  0.99933333  0.88717414  0.99444181  1
  O  O331  1  0.49343921  0.49669907  0.38473633  1
  O  O332  1  0.49548463  0.49505994  0.88029573  1
  O  O333  1  0.49817713  0.99259671  0.37982999  1
  O  O334  1  0.49642766  0.99581353  0.89065474  1
  O  O335  1  1.00607683  0.47613993  0.37794360  1
  O  O336  1  0.99625064  0.50059160  0.87965640  1
  O  O337  1  1.00062595  0.99125849  0.38272648  1
  O  O338  1  0.99810374  0.99756053  0.88363071  1
  O  O339  1  0.00681327  0.00783798  0.11822586  1
  O  O340  1  0.01001708  0.00278154  0.61818845  1
  O  O341  1  0.00986609  0.51188905  0.12139246  1
  O  O342  1  0.01432474  0.49898542  0.63766862  1
  O  O343  1  0.50215678  -0.01422502  0.10912357  1
  O  O344  1  0.50745555  0.00819611  0.61707116  1
  O  O345  1  0.49850140  0.50090381  0.10968304  1
  O  O346  1  0.50723479  0.49543978  0.61239322  1
  O  O347  1  0.24599767  0.37480327  0.23928962  1
  O  O348  1  0.24489443  0.38381742  0.74949206  1
  O  O349  1  0.25160900  0.87988844  0.24193320  1
  O  O350  1  0.24680247  0.87925217  0.74308989  1
  O  O351  1  0.73447774  0.37155069  0.25710791  1
  O  O352  1  0.73649977  0.39030355  0.73999053  1
  O  O353  1  0.74047274  0.88784910  0.25812641  1
  O  O354  1  0.75437678  0.88727878  0.73619757  1
  O  O355  1  0.25888653  0.11851568  0.25516650  1
  O  O356  1  0.25292939  0.12205705  0.75589802  1
  O  O357  1  0.25871385  0.62310882  0.25986191  1
  O  O358  1  0.25871440  0.61792147  0.75415487  1
  O  O359  1  0.75456667  0.11801491  0.25682239  1
  O  O360  1  0.76738758  0.11953463  0.73540015  1
  O  O361  1  0.75185096  0.60258611  0.25579700  1
  O  O362  1  0.75367707  0.62177170  0.74228611  1
  O  O363  1  0.36605864  0.12261774  0.36304341  1
  O  O364  1  0.36307029  0.12365136  0.86657672  1
  O  O365  1  0.36804345  0.62154421  0.36356032  1
  O  O366  1  0.36921545  0.62055378  0.86369551  1
  O  O367  1  0.86309685  0.12425153  0.36701080  1
  O  O368  1  0.87784933  0.11570635  0.86411113  1
  O  O369  1  0.91923074  0.60792131  0.36509766  1
  O  O370  1  0.87807515  0.62795898  0.85911526  1
  O  O371  1  0.13605445  0.38277289  0.11485607  1
  O  O372  1  0.13070367  0.38504571  0.63809001  1
  O  O373  1  0.13185654  0.87930970  0.12427499  1
  O  O374  1  0.13308546  0.87880396  0.62979232  1
  O  O375  1  0.62337529  0.36514350  0.14357551  1
  O  O376  1  0.62677808  0.38861946  0.63258034  1
  O  O377  1  0.63429350  0.86475078  0.14214556  1
  O  O378  1  0.63390761  0.89125034  0.61863081  1
  O  O379  1  0.12520441  0.24130190  0.24932247  1
  O  O380  1  0.11534532  0.25759241  0.74179174  1
  O  O381  1  0.12696403  0.75203281  0.26376764  1
  O  O382  1  0.12036819  0.75512783  0.75183666  1
  O  O383  1  0.61616581  0.25481572  0.25994482  1
  O  O384  1  0.61505840  0.26470459  0.74816828  1
  O  O385  1  0.62526069  0.75353047  0.25964972  1
  O  O386  1  0.59825348  0.75066053  0.73326519  1
  O  O387  1  0.38085490  0.24369128  0.24422403  1
  O  O388  1  0.37736214  0.24675455  0.74025032  1
  O  O389  1  0.38232089  0.74005296  0.24506658  1
  O  O390  1  0.38132558  0.74357390  0.73865717  1
  O  O391  1  0.87836976  0.23381461  0.24563979  1
  O  O392  1  0.89144654  0.23944953  0.73889571  1
  O  O393  1  0.84917412  0.75434966  0.23367628  1
  O  O394  1  0.88337926  0.75249823  0.74570609  1
  O  O395  1  0.38041433  0.49757960  0.49594728  1
  O  O396  1  0.37922655  0.49520509  0.99166113  1
  O  O397  1  0.38095757  0.99291972  0.49804697  1
  O  O398  1  0.38266507  0.98471363  1.00027556  1
  O  O399  1  0.89310552  0.53087736  0.51259590  1
  O  O400  1  0.86639324  0.49808125  0.99460855  1
  O  O401  1  0.89080260  1.01024415  0.49883820  1
  O  O402  1  0.88798163  0.99726633  0.99326526  1
  O  O403  1  0.12187764  0.00568878  0.00286534  1
  O  O404  1  0.12296651  0.00935018  0.50501677  1
  O  O405  1  0.13044029  0.51086002  0.00644122  1
  O  O406  1  0.13126095  0.49790049  0.52224943  1
  O  O407  1  0.61018628  -0.00642848  0.00160108  1
  O  O408  1  0.61653020  0.01037702  0.50502786  1
  O  O409  1  0.60860740  0.49504161  -0.00774079  1
  O  O410  1  0.61805547  0.50974542  0.50357769  1
  O  O411  1  0.36431524  0.36848290  0.12124510  1
  O  O412  1  0.37179460  0.36910326  0.61603660  1
  O  O413  1  0.36931123  0.86196480  0.11673444  1
  O  O414  1  0.36808797  0.86697628  0.61576913  1
  O  O415  1  0.88782433  0.35382217  0.13300246  1
  O  O416  1  0.85690130  0.37715155  0.63107507  1
  O  O417  1  0.88438009  0.88369915  0.10957236  1
  O  O418  1  0.86645655  0.86849699  0.62744112  1
  O  O419  1  0.13634388  0.11787278  0.38464412  1
  O  O420  1  0.14069875  0.11973358  0.88635392  1
  O  O421  1  0.13233624  0.63159466  0.36905853  1
  O  O422  1  0.13045257  0.62922655  0.88039423  1
  O  O423  1  0.62792502  0.13268769  0.37818984  1
  O  O424  1  0.62493169  0.12733350  0.88137432  1
  O  O425  1  0.62051766  0.63717663  0.38520811  1
  O  O426  1  0.62035136  0.65819900  0.87358694  1
