# generated using pymatgen
data_V85Zn86O256
_symmetry_space_group_name_H-M   'P 1'
_cell_length_a   16.98628587
_cell_length_b   16.97761491
_cell_length_c   16.97515343
_cell_angle_alpha   89.94988232
_cell_angle_beta   89.91032383
_cell_angle_gamma   90.02392770
_symmetry_Int_Tables_number   1
_chemical_formula_structural   V85Zn86O256
_chemical_formula_sum   'V85 Zn86 O256'
_cell_volume   4895.39882802
_cell_formula_units_Z   1
loop_
 _symmetry_equiv_pos_site_id
 _symmetry_equiv_pos_as_xyz
  1  'x, y, z'
loop_
 _atom_site_type_symbol
 _atom_site_label
 _atom_site_symmetry_multiplicity
 _atom_site_fract_x
 _atom_site_fract_y
 _atom_site_fract_z
 _atom_site_occupancy
  V  V0  1  0.24705417  0.62510807  0.87334707  1
  V  V1  1  0.25071511  0.37357276  0.12293895  1
  V  V2  1  0.87616485  0.62495312  0.75133823  1
  V  V3  1  -0.00632621  -0.00222998  -0.00813687  1
  V  V4  1  0.87446998  0.11798191  0.75469615  1
  V  V5  1  0.49503250  0.87688289  0.87783203  1
  V  V6  1  0.74985654  0.62334560  0.87539677  1
  V  V7  1  0.37465945  0.23987497  0.12879752  1
  V  V8  1  0.62284959  0.49580037  0.13247238  1
  V  V9  1  0.11794987  0.50098564  0.11827263  1
  V  V10  1  0.37407754  0.87690522  -0.00029769  1
  V  V11  1  0.12115003  0.37357806  0.75139692  1
  V  V12  1  0.50230757  0.23985435  0.74937845  1
  V  V13  1  0.12833260  0.62535232  0.49964112  1
  V  V14  1  0.50104990  0.50110912  0.49855195  1
  V  V15  1  0.62223905  0.75541080  0.37306163  1
  V  V16  1  0.00137775  0.50188892  0.50021974  1
  V  V17  1  0.62741735  0.24947481  0.37916903  1
  V  V18  1  0.62826348  0.37374298  0.75134961  1
  V  V19  1  0.49018800  0.62199787  0.13375059  1
  V  V20  1  0.75161387  0.37692519  0.62635859  1
  V  V21  1  0.87568891  0.25120513  0.12417045  1
  V  V22  1  0.24322284  0.88070008  0.63606910  1
  V  V23  1  0.00172680  0.62774906  0.62567681  1
  V  V24  1  0.87691387  0.75153188  0.62749642  1
  V  V25  1  0.25139521  0.76013859  0.49922668  1
  V  V26  1  0.12311357  0.25072973  0.87363302  1
  V  V27  1  0.62395101  0.74827482  0.87516640  1
  V  V28  1  0.50126075  0.62361454  0.62513324  1
  V  V29  1  0.51334244  0.12667828  0.60242244  1
  V  V30  1  0.26183807  0.11362563  0.85788902  1
  V  V31  1  0.62223918  0.62291931  0.00081747  1
  V  V32  1  0.37684079  0.62089566  0.74943879  1
  V  V33  1  0.25438704  0.50520245  0.24914867  1
  V  V34  1  0.75141292  0.49901637  0.75236667  1
  V  V35  1  0.25043552  0.87574511  0.12676600  1
  V  V36  1  0.00093890  0.88298063  0.37529021  1
  V  V37  1  0.75508487  0.11856340  0.87766271  1
  V  V38  1  0.07538101  0.03417681  0.62260007  1
  V  V39  1  0.37376680  0.24309244  0.62466824  1
  V  V40  1  0.87643604  0.12233697  0.24815941  1
  V  V41  1  0.37386707  0.50228840  0.36939665  1
  V  V42  1  0.00068333  0.12371037  0.12240637  1
  V  V43  1  0.12962655  0.49858988  0.62240793  1
  V  V44  1  0.50574981  0.24992217  0.24868378  1
  V  V45  1  0.00014621  0.24565638  0.75140264  1
  V  V46  1  0.74992435  0.25189892  0.00067661  1
  V  V47  1  0.25067709  0.24195599  -0.00158084  1
  V  V48  1  0.12522545  0.74960261  0.37448779  1
  V  V49  1  0.11878047  0.62246489  -0.00254067  1
  V  V50  1  0.50485932  0.11969639  0.12909233  1
  V  V51  1  0.12408416  -0.00040826  0.12232441  1
  V  V52  1  0.50672680  -0.00399408  0.00848067  1
  V  V53  1  0.49889669  0.49783908  0.00036843  1
  V  V54  1  0.87670577  0.00069406  0.37682807  1
  V  V55  1  0.12344981  0.87487584  0.24885540  1
  V  V56  1  0.37528641  0.37116895  0.50210208  1
  V  V57  1  0.75270609  0.87784752  0.62530408  1
  V  V58  1  0.50016006  0.37160276  0.87527445  1
  V  V59  1  0.50817767  0.37691415  0.36810244  1
  V  V60  1  0.75669749  0.62654240  0.36942268  1
  V  V61  1  0.87808396  0.24621699  0.62814667  1
  V  V62  1  0.62715873  0.00573612  0.60781145  1
  V  V63  1  0.62614266  0.24194965  0.87810547  1
  V  V64  1  0.24521076  0.74845349  -0.00220942  1
  V  V65  1  0.01436833  0.75240714  0.75295367  1
  V  V66  1  0.48892709  0.75603094  0.25536569  1
  V  V67  1  0.74834840  0.74953364  0.00476427  1
  V  V68  1  0.88780264  0.37925406  -0.00268445  1
  V  V69  1  0.74549527  0.37551548  0.12920719  1
  V  V70  1  0.87180853  0.87293265  -0.00626856  1
  V  V71  1  0.37459214  0.01498964  0.37777413  1
  V  V72  1  -0.00792267  0.74055732  0.24641349  1
  V  V73  1  0.01346138  0.86988915  0.87162252  1
  V  V74  1  0.50034473  0.74914658  0.75145403  1
  V  V75  1  0.39449316  0.88018517  0.49307621  1
  V  V76  1  0.88128207  0.87887012  0.50277871  1
  V  V77  1  0.62835055  0.62419292  0.50010740  1
  V  V78  1  0.75645202  0.50575663  0.24703643  1
  V  V79  1  0.37576947  0.49612050  0.87445768  1
  V  V80  1  0.12156739  0.37306245  0.24846568  1
  V  V81  1  0.87378478  0.37834847  0.49881690  1
  V  V82  1  0.00165762  0.37502061  0.37239309  1
  V  V83  1  0.75022028  0.12885629  0.38140300  1
  V  V84  1  0.88957886  0.49635577  0.87886729  1
  Zn  Zn85  1  -0.01041901  0.61899526  0.12042921  1
  Zn  Zn86  1  0.74437752  0.24659761  0.50646620  1
  Zn  Zn87  1  0.25253134  0.49352321  0.74899733  1
  Zn  Zn88  1  0.24757635  0.36512802  0.62285431  1
  Zn  Zn89  1  0.62025980  0.88163261  0.23832702  1
  Zn  Zn90  1  0.75219093  0.75131040  0.49774592  1
  Zn  Zn91  1  0.87895283  0.50746373  0.36712615  1
  Zn  Zn92  1  0.25639567  0.63096946  0.36998337  1
  Zn  Zn93  1  0.86690266  0.74516024  0.13074475  1
  Zn  Zn94  1  0.22987683  0.17004361  0.40608830  1
  Zn  Zn95  1  0.37663847  0.74851567  0.62137425  1
  Zn  Zn96  1  0.62444590  0.87747111  0.74815696  1
  Zn  Zn97  1  0.36803909  0.74214731  0.13390826  1
  Zn  Zn98  1  0.63247137  0.11645042  0.01073992  1
  Zn  Zn99  1  0.24657216  0.02186038  0.27320793  1
  Zn  Zn100  1  0.73662436  0.00199726  0.24339955  1
  Zn  Zn101  1  0.12393450  0.11970487  -0.00809209  1
  Zn  Zn102  1  0.74217879  0.88957455  0.12234169  1
  Zn  Zn103  1  0.74191281  0.00133506  0.75485408  1
  Zn  Zn104  1  0.00104124  0.25099698  0.24867687  1
  Zn  Zn105  1  0.37532435  0.37070281  -0.00271604  1
  Zn  Zn106  1  0.62658928  0.49875407  0.62606306  1
  Zn  Zn107  1  0.18813025  0.18521380  0.19441580  1
  Zn  Zn108  1  0.18722544  0.17556582  0.68041874  1
  Zn  Zn109  1  0.18299738  0.68614393  0.18461479  1
  Zn  Zn110  1  0.19335748  0.68827695  0.68461344  1
  Zn  Zn111  1  0.68783550  0.18823973  0.19313003  1
  Zn  Zn112  1  0.69055305  0.18696174  0.68954403  1
  Zn  Zn113  1  0.67740163  0.68818564  0.18965118  1
  Zn  Zn114  1  0.68915560  0.68841532  0.68728891  1
  Zn  Zn115  1  0.32197956  0.31168373  0.30629043  1
  Zn  Zn116  1  0.31179601  0.30702249  0.80758875  1
  Zn  Zn117  1  0.31108194  0.82576184  0.31797130  1
  Zn  Zn118  1  0.31444281  0.80671390  0.81541154  1
  Zn  Zn119  1  0.81308960  0.31495707  0.31024496  1
  Zn  Zn120  1  0.81426396  0.31279899  0.81616243  1
  Zn  Zn121  1  0.80636567  0.81625584  0.31116991  1
  Zn  Zn122  1  0.81645978  0.81386948  0.81314691  1
  Zn  Zn123  1  0.20916356  0.37963524  0.41471097  1
  Zn  Zn124  1  0.18647789  0.43668127  0.93610465  1
  Zn  Zn125  1  0.19424932  1.01298812  0.47187715  1
  Zn  Zn126  1  0.18792327  0.93693320  0.93529453  1
  Zn  Zn127  1  0.69006334  0.43900202  0.43420989  1
  Zn  Zn128  1  0.68992137  0.43609682  0.93969469  1
  Zn  Zn129  1  0.65932288  0.96273072  0.40278899  1
  Zn  Zn130  1  0.68161299  0.93418230  0.93853225  1
  Zn  Zn131  1  0.31450199  0.05917394  0.05856351  1
  Zn  Zn132  1  0.32035392  0.06243723  0.56614446  1
  Zn  Zn133  1  0.31077522  0.55942585  0.05891093  1
  Zn  Zn134  1  0.31306456  0.56368679  0.55700457  1
  Zn  Zn135  1  0.81325895  0.06104606  0.06253031  1
  Zn  Zn136  1  0.82069904  0.06011631  0.56484092  1
  Zn  Zn137  1  0.81517672  0.56350018  0.06054418  1
  Zn  Zn138  1  0.81313181  0.56356187  0.56312301  1
  Zn  Zn139  1  0.43557446  0.43231237  0.18597998  1
  Zn  Zn140  1  0.44180275  0.43360714  0.68763279  1
  Zn  Zn141  1  0.42955216  0.94202899  0.19685303  1
  Zn  Zn142  1  0.39697481  0.93342724  0.69002204  1
  Zn  Zn143  1  0.93421396  0.43848036  0.18323109  1
  Zn  Zn144  1  0.93971395  0.43666148  0.68994878  1
  Zn  Zn145  1  0.93194829  0.93265494  0.18252361  1
  Zn  Zn146  1  0.94251292  0.94147954  0.69273996  1
  Zn  Zn147  1  0.07924212  0.07987362  0.30626360  1
  Zn  Zn148  1  0.07049237  0.06071395  0.80760887  1
  Zn  Zn149  1  0.06695658  0.55851260  0.31147374  1
  Zn  Zn150  1  0.06557223  0.56399796  0.80921967  1
  Zn  Zn151  1  0.55577882  0.06884860  0.31411008  1
  Zn  Zn152  1  0.52138711  0.02784659  0.77533560  1
  Zn  Zn153  1  0.56479102  0.56679903  0.31243006  1
  Zn  Zn154  1  0.56345369  0.55973531  0.81331947  1
  Zn  Zn155  1  0.43366858  0.18827286  0.43335698  1
  Zn  Zn156  1  0.43871685  0.18028605  0.94003281  1
  Zn  Zn157  1  0.43682831  0.68706401  0.43687390  1
  Zn  Zn158  1  0.43283148  0.68677219  0.94206118  1
  Zn  Zn159  1  0.92817166  0.20063470  0.42846620  1
  Zn  Zn160  1  0.93796461  0.19011590  0.93766069  1
  Zn  Zn161  1  0.93905992  0.69212880  0.43886388  1
  Zn  Zn162  1  0.93449582  0.68924898  0.93501951  1
  Zn  Zn163  1  0.06534244  0.30970832  0.06176758  1
  Zn  Zn164  1  0.05701400  0.31098057  0.56390942  1
  Zn  Zn165  1  0.06064421  0.81020229  0.06003771  1
  Zn  Zn166  1  0.06667694  0.82002241  0.56302488  1
  Zn  Zn167  1  0.56272801  0.31080529  0.06165158  1
  Zn  Zn168  1  0.56298587  0.31577661  0.56095607  1
  Zn  Zn169  1  0.56125388  0.80794121  0.06917731  1
  Zn  Zn170  1  0.56828974  0.81092778  0.56443395  1
  O  O171  1  0.12013168  0.11262737  0.12375905  1
  O  O172  1  0.10325889  0.13279590  0.62255377  1
  O  O173  1  0.12380993  0.61587150  0.11462593  1
  O  O174  1  0.12090120  0.61819096  0.62079142  1
  O  O175  1  0.61070788  0.13255434  0.12620877  1
  O  O176  1  0.62583996  0.11864932  0.62009882  1
  O  O177  1  0.61361291  0.61444178  0.11975025  1
  O  O178  1  0.62231647  0.62292838  0.61566036  1
  O  O179  1  0.38927483  0.38205001  0.38238946  1
  O  O180  1  0.38110797  0.37705981  0.87349073  1
  O  O181  1  0.37921756  0.87941179  0.38944790  1
  O  O182  1  0.38388589  0.86302923  0.88963175  1
  O  O183  1  0.87977781  0.38118326  0.38331755  1
  O  O184  1  0.86995613  0.38417444  0.88531829  1
  O  O185  1  0.88092658  0.88161142  0.38171735  1
  O  O186  1  0.88316256  0.87308308  0.88773373  1
  O  O187  1  0.26061795  -0.01091233  0.38453611  1
  O  O188  1  0.24411664  0.01597452  0.88044552  1
  O  O189  1  0.26041002  0.48702214  0.36255370  1
  O  O190  1  0.25741192  0.50677571  0.87298907  1
  O  O191  1  0.76579508  0.01256895  0.37242029  1
  O  O192  1  0.74029997  0.01501660  0.87744917  1
  O  O193  1  0.75035517  0.50781769  0.36309912  1
  O  O194  1  0.75503472  0.50559863  0.86984506  1
  O  O195  1  0.24497571  0.49099778  0.12866034  1
  O  O196  1  0.23785987  0.50209594  0.62599570  1
  O  O197  1  0.23912185  0.99012859  0.12061697  1
  O  O198  1  0.26013641  0.98014605  0.62380237  1
  O  O199  1  0.74138806  0.49552533  0.12870261  1
  O  O200  1  0.75095803  0.49444536  0.63403066  1
  O  O201  1  0.74713477  1.00521945  0.12997221  1
  O  O202  1  0.74345477  0.99608765  0.62701184  1
  O  O203  1  0.00504478  0.38114328  0.25495767  1
  O  O204  1  0.01212668  0.36369556  0.74724097  1
  O  O205  1  0.00643545  0.86630945  0.25461633  1
  O  O206  1  -0.00629929  0.86787802  0.76484330  1
  O  O207  1  0.49604884  0.36508450  0.25871586  1
  O  O208  1  0.50930363  0.36429408  0.75587819  1
  O  O209  1  0.49850416  0.85872591  0.24478686  1
  O  O210  1  0.49674275  0.85849658  0.76137337  1
  O  O211  1  0.50041806  0.13858117  0.24159896  1
  O  O212  1  0.51327205  0.14008550  0.73947421  1
  O  O213  1  0.50360975  0.63270926  0.24027370  1
  O  O214  1  0.49764211  0.62959283  0.74678684  1
  O  O215  1  0.99312298  0.12808600  0.24301815  1
  O  O216  1  0.98851287  0.13840155  0.76088524  1
  O  O217  1  1.00575295  0.63865518  0.25174372  1
  O  O218  1  0.99552362  0.63307418  0.74568392  1
  O  O219  1  0.36611025  0.25025087  0.00931707  1
  O  O220  1  0.38807821  0.26026094  0.51347362  1
  O  O221  1  0.36320616  0.75702700  0.00815879  1
  O  O222  1  0.36878573  0.75868806  0.49521653  1
  O  O223  1  0.86899120  0.25858587  0.00465604  1
  O  O224  1  0.87806630  0.26183233  0.51004876  1
  O  O225  1  0.86167999  0.75530947  -0.00346060  1
  O  O226  1  0.87472048  0.75975356  0.50856205  1
  O  O227  1  0.10613870  0.23701107  0.48701467  1
  O  O228  1  0.13335521  0.24714054  0.99158789  1
  O  O229  1  0.13040506  0.74706225  0.49110903  1
  O  O230  1  0.13871143  0.74131518  1.00591340  1
  O  O231  1  0.62783957  0.25671955  0.48479367  1
  O  O232  1  0.63177282  0.24882503  0.99282481  1
  O  O233  1  0.62652506  0.73568307  0.49530542  1
  O  O234  1  0.62931738  0.74234565  0.99383920  1
  O  O235  1  0.49354428  0.24449862  0.12909759  1
  O  O236  1  0.50420970  0.24134606  0.62951796  1
  O  O237  1  0.49483023  0.73890791  0.13800727  1
  O  O238  1  0.50251229  0.74256915  0.63615240  1
  O  O239  1  0.99333259  0.24208813  0.12346374  1
  O  O240  1  0.98691539  0.25443550  0.63694727  1
  O  O241  1  1.00371765  0.74914694  0.14049888  1
  O  O242  1  0.99667107  0.74793786  0.63297629  1
  O  O243  1  -0.00783749  0.27031314  0.36644449  1
  O  O244  1  0.01407767  0.24746673  0.86907983  1
  O  O245  1  0.00647790  0.75721477  0.36561702  1
  O  O246  1  -0.00232078  0.76138741  0.86802889  1
  O  O247  1  0.50582423  0.25592815  0.36767969  1
  O  O248  1  0.50704373  0.25012033  0.86994109  1
  O  O249  1  0.50693270  0.73754713  0.36079842  1
  O  O250  1  0.50416042  0.75160492  0.87152354  1
  O  O251  1  0.24126048  0.11391667  0.50498546  1
  O  O252  1  0.24655299  0.13395423  0.99878216  1
  O  O253  1  0.24512824  0.63618223  0.49462381  1
  O  O254  1  0.24403002  0.63061281  0.99351732  1
  O  O255  1  0.76651219  0.13074147  0.48533740  1
  O  O256  1  0.75164688  0.13336596  0.99390513  1
  O  O257  1  0.74223818  0.62419727  0.49249109  1
  O  O258  1  0.74202270  0.63086985  0.99355781  1
  O  O259  1  0.24777698  0.36207313  0.00894310  1
  O  O260  1  0.27023266  0.38121270  0.50907253  1
  O  O261  1  0.25404088  0.86795161  0.00538329  1
  O  O262  1  0.25311850  0.86210193  0.50941387  1
  O  O263  1  0.75625799  0.37031297  0.01148004  1
  O  O264  1  0.76073186  0.37642845  0.50457040  1
  O  O265  1  0.75534965  0.86533992  -0.00400338  1
  O  O266  1  0.76715738  0.87329180  0.51455306  1
  O  O267  1  0.13391222  0.49230023  0.23856941  1
  O  O268  1  0.12431740  0.49034866  0.74012751  1
  O  O269  1  0.12044622  0.98600345  0.23867330  1
  O  O270  1  0.09962588  0.99987648  0.71731665  1
  O  O271  1  0.63323372  0.50329658  0.23768199  1
  O  O272  1  0.63286710  0.49176939  0.75066120  1
  O  O273  1  0.62864482  0.98603531  0.29196765  1
  O  O274  1  0.62327759  0.99453286  0.73245267  1
  O  O275  1  0.36032123  -0.00338614  0.26903937  1
  O  O276  1  0.41335015  0.00989920  0.75980227  1
  O  O277  1  0.36609382  0.49069783  0.25654363  1
  O  O278  1  0.37587295  0.50325691  0.75550856  1
  O  O279  1  0.87985189  0.01083498  0.25761712  1
  O  O280  1  0.87067574  0.01595752  0.75006641  1
  O  O281  1  0.86105740  0.50193000  0.24686518  1
  O  O282  1  0.87140470  0.50425696  0.75776336  1
  O  O283  1  0.11161137  0.38714935  0.36029809  1
  O  O284  1  0.13430914  0.36320478  0.86382309  1
  O  O285  1  0.11535200  0.86404146  0.36385439  1
  O  O286  1  0.11255753  0.87067289  0.87907260  1
  O  O287  1  0.61446883  0.37045140  0.37686658  1
  O  O288  1  0.62138654  0.36425138  0.87227626  1
  O  O289  1  0.62808565  0.85292996  0.39174463  1
  O  O290  1  0.61415635  0.86489086  0.87270797  1
  O  O291  1  0.38224796  0.13381764  0.12033767  1
  O  O292  1  0.39759003  0.13725088  0.61613368  1
  O  O293  1  0.38515426  0.62220276  0.12085914  1
  O  O294  1  0.38368291  0.62449618  0.62985770  1
  O  O295  1  0.88120548  0.13012191  0.13167047  1
  O  O296  1  0.86354848  0.14050912  0.63765292  1
  O  O297  1  0.87890354  0.63257895  0.11848803  1
  O  O298  1  0.88203979  0.63048572  0.63044417  1
  O  O299  1  0.25459972  0.25129784  0.12145003  1
  O  O300  1  0.27164769  0.24291447  0.62962938  1
  O  O301  1  0.24909875  0.75790257  0.11916290  1
  O  O302  1  0.25629396  0.75237595  0.61468380  1
  O  O303  1  0.75396275  0.25733003  0.12231812  1
  O  O304  1  0.75914749  0.25911040  0.62499191  1
  O  O305  1  0.74373428  0.74448235  0.10968241  1
  O  O306  1  0.75755877  0.75932146  0.62505306  1
  O  O307  1  0.24611591  0.27714495  0.37705203  1
  O  O308  1  0.24425447  0.24181845  0.88147971  1
  O  O309  1  0.23996976  0.75273169  0.37893490  1
  O  O310  1  0.25623484  0.73633770  0.88567191  1
  O  O311  1  0.74461524  0.24714339  0.37484076  1
  O  O312  1  0.74343993  0.24521033  0.88119005  1
  O  O313  1  0.74245412  0.74106225  0.37572101  1
  O  O314  1  0.74390672  0.74358150  0.88136991  1
  O  O315  1  0.00034220  0.11437336  0.00276942  1
  O  O316  1  0.06119229  0.17012227  0.47029999  1
  O  O317  1  0.01667504  0.63679916  -0.00279956  1
  O  O318  1  0.00681671  0.62290970  0.50591737  1
  O  O319  1  0.50148728  0.11250075  0.00972714  1
  O  O320  1  0.51078832  0.13524387  0.50464042  1
  O  O321  1  0.50316041  0.61788267  0.00878677  1
  O  O322  1  0.50892881  0.62060636  0.50387429  1
  O  O323  1  0.49580428  0.38221664  0.49071476  1
  O  O324  1  0.49823364  0.37921196  0.99347586  1
  O  O325  1  0.49251422  0.86939163  0.50332778  1
  O  O326  1  0.49155090  0.87468191  0.99872356  1
  O  O327  1  0.99309575  0.38164650  0.49223043  1
  O  O328  1  0.98679962  0.37183792  1.00595421  1
  O  O329  1  0.99058222  0.86648579  0.48865375  1
  O  O330  1  0.99450511  0.87601132  0.98955211  1
  O  O331  1  0.49606089  0.49439582  0.37553750  1
  O  O332  1  0.49583627  0.49232097  0.88044198  1
  O  O333  1  0.47607519  1.01384716  0.37502045  1
  O  O334  1  0.50491749  0.98042343  0.89013970  1
  O  O335  1  0.99658265  0.49537860  0.38053584  1
  O  O336  1  0.98842942  0.50389981  0.87016911  1
  O  O337  1  0.99380187  0.98762199  0.36617249  1
  O  O338  1  1.00873290  0.98761249  0.88387476  1
  O  O339  1  0.00644931  0.00123604  0.11582474  1
  O  O340  1  -0.02665810  0.02064069  0.61689283  1
  O  O341  1  0.01434844  0.50164256  0.12946136  1
  O  O342  1  0.00869823  0.50642133  0.62200619  1
  O  O343  1  0.49055425  0.00997519  0.12351312  1
  O  O344  1  0.51780869  0.01946227  0.61636421  1
  O  O345  1  0.50513606  0.50140233  0.12268269  1
  O  O346  1  0.50452281  0.50518750  0.61783689  1
  O  O347  1  0.24237840  0.38187664  0.23651732  1
  O  O348  1  0.23795638  0.37254632  0.74200414  1
  O  O349  1  0.23704053  0.87044555  0.23935005  1
  O  O350  1  0.27065617  0.86727336  0.73393849  1
  O  O351  1  0.75464782  0.38443867  0.23588472  1
  O  O352  1  0.74739731  0.37925556  0.74614422  1
  O  O353  1  0.74540815  0.88020987  0.24408244  1
  O  O354  1  0.75267082  0.87815510  0.73855278  1
  O  O355  1  0.19331449  0.12202364  0.28778732  1
  O  O356  1  0.25159855  0.12562658  0.75866546  1
  O  O357  1  0.24235942  0.61005062  0.25171545  1
  O  O358  1  0.25699487  0.62375116  0.75908137  1
  O  O359  1  0.76313218  0.12721713  0.26041175  1
  O  O360  1  0.75768089  0.12651228  0.76143439  1
  O  O361  1  0.74227313  0.61869681  0.25860594  1
  O  O362  1  0.75671122  0.62034936  0.75528494  1
  O  O363  1  0.35901198  0.11787778  0.38633366  1
  O  O364  1  0.35945255  0.13058527  0.87829238  1
  O  O365  1  0.37278430  0.60650061  0.38044832  1
  O  O366  1  0.36788040  0.61657900  0.87150549  1
  O  O367  1  0.87619602  0.12054866  0.36775531  1
  O  O368  1  0.86406348  0.13451546  0.86824354  1
  O  O369  1  0.86111883  0.62528614  0.38401573  1
  O  O370  1  0.86951400  0.61637456  0.87105809  1
  O  O371  1  0.13231365  0.38296052  0.12566764  1
  O  O372  1  0.12545515  0.38089038  0.62850329  1
  O  O373  1  0.12995992  0.87974097  0.12868997  1
  O  O374  1  0.14385727  0.86205470  0.63252178  1
  O  O375  1  0.63381516  0.38406936  0.11905899  1
  O  O376  1  0.63371781  0.37587105  0.63143565  1
  O  O377  1  0.62744887  0.87436696  0.12485989  1
  O  O378  1  0.63594332  0.88483851  0.62239379  1
  O  O379  1  0.11908425  0.27048877  0.23587165  1
  O  O380  1  0.11855030  0.25447060  0.75388313  1
  O  O381  1  0.11768724  0.75603168  0.25578441  1
  O  O382  1  0.11274749  0.74195887  0.74804263  1
  O  O383  1  0.61492558  0.25155354  0.26104785  1
  O  O384  1  0.62242810  0.25511177  0.75942638  1
  O  O385  1  0.61301366  0.75289617  0.25939548  1
  O  O386  1  0.61585038  0.74951498  0.75594921  1
  O  O387  1  0.38748491  0.25262389  0.23701072  1
  O  O388  1  0.39005810  0.25611241  0.73368264  1
  O  O389  1  0.38436738  0.75273694  0.25522800  1
  O  O390  1  0.38787077  0.73816155  0.75063146  1
  O  O391  1  0.87647135  0.24086424  0.24298613  1
  O  O392  1  0.88235207  0.24819321  0.74636703  1
  O  O393  1  0.89017172  0.75534780  0.25261068  1
  O  O394  1  0.88332289  0.74284968  0.74588665  1
  O  O395  1  0.38295368  0.49246792  0.49233483  1
  O  O396  1  0.38072810  0.49385717  0.99284122  1
  O  O397  1  0.37739891  0.98587098  0.49435494  1
  O  O398  1  0.38478086  0.98363314  1.00591819  1
  O  O399  1  0.88258651  0.49076833  0.50300883  1
  O  O400  1  0.86978438  0.49090597  0.99024683  1
  O  O401  1  0.87546442  0.99157787  0.48744485  1
  O  O402  1  0.88731523  0.99001064  1.00449832  1
  O  O403  1  0.11419081  -0.00312846  0.00900893  1
  O  O404  1  0.11035028  -0.01405489  0.53821344  1
  O  O405  1  0.13271983  0.50846627  0.00813185  1
  O  O406  1  0.11793556  0.50670688  0.51048437  1
  O  O407  1  0.61073795  -0.00152215  0.00380386  1
  O  O408  1  0.63590349  -0.00275860  0.50898514  1
  O  O409  1  0.61903847  0.50357365  0.00916464  1
  O  O410  1  0.62093079  0.50999427  0.49839653  1
  O  O411  1  0.36347691  0.36411507  0.12218254  1
  O  O412  1  0.38139274  0.36273564  0.61800177  1
  O  O413  1  0.36153634  0.87362166  0.12090739  1
  O  O414  1  0.36888086  0.86674533  0.60719719  1
  O  O415  1  0.86572955  0.37171536  0.11693175  1
  O  O416  1  0.87186219  0.36931054  0.61877305  1
  O  O417  1  0.87272412  0.86527140  0.10883591  1
  O  O418  1  0.87385168  0.87283753  0.62128207  1
  O  O419  1  0.10397835  0.12424972  0.41513175  1
  O  O420  1  0.13627015  0.13464899  0.87257961  1
  O  O421  1  0.12593553  0.63638045  0.37920628  1
  O  O422  1  0.13876296  0.61528674  0.88221262  1
  O  O423  1  0.63933064  0.13643387  0.37072034  1
  O  O424  1  0.63520257  0.13854261  0.87996049  1
  O  O425  1  0.63403365  0.63117706  0.38291828  1
  O  O426  1  0.62932209  0.62806507  0.88083354  1
