# generated using pymatgen
data_V85Zn86O256
_symmetry_space_group_name_H-M   'P 1'
_cell_length_a   16.99584775
_cell_length_b   16.98970256
_cell_length_c   16.98210898
_cell_angle_alpha   90.08857757
_cell_angle_beta   90.12638435
_cell_angle_gamma   89.99802052
_symmetry_Int_Tables_number   1
_chemical_formula_structural   V85Zn86O256
_chemical_formula_sum   'V85 Zn86 O256'
_cell_volume   4903.64086310
_cell_formula_units_Z   1
loop_
 _symmetry_equiv_pos_site_id
 _symmetry_equiv_pos_as_xyz
  1  'x, y, z'
loop_
 _atom_site_type_symbol
 _atom_site_label
 _atom_site_symmetry_multiplicity
 _atom_site_fract_x
 _atom_site_fract_y
 _atom_site_fract_z
 _atom_site_occupancy
  V  V0  1  0.75029889  -0.00228907  0.25203528  1
  V  V1  1  0.75018576  0.12519534  0.37610800  1
  V  V2  1  0.37305437  0.24973393  0.62490238  1
  V  V3  1  0.63175501  0.50732658  0.62761281  1
  V  V4  1  0.25183389  0.50681139  0.74835576  1
  V  V5  1  0.12407150  0.62438630  0.49900986  1
  V  V6  1  0.74943479  0.87219857  0.12740187  1
  V  V7  1  0.87633988  -0.00119005  0.37605379  1
  V  V8  1  0.37550858  0.37390251  0.50237620  1
  V  V9  1  0.36650909  0.12285338  0.75568922  1
  V  V10  1  0.00485185  0.00049136  0.50696258  1
  V  V11  1  0.24849575  0.89510429  0.62897663  1
  V  V12  1  0.62255112  0.62472187  0.00081072  1
  V  V13  1  0.75029448  0.24922184  0.50248558  1
  V  V14  1  0.25415778  0.87267394  0.09906313  1
  V  V15  1  0.34414904  0.35468661  -0.02355310  1
  V  V16  1  0.12776729  0.75124306  0.37596397  1
  V  V17  1  0.12657238  0.63331027  0.00003896  1
  V  V18  1  0.12338138  0.49914317  0.62563379  1
  V  V19  1  0.87641565  0.86791337  0.50556509  1
  V  V20  1  0.87725530  0.13058632  0.24995170  1
  V  V21  1  -0.00477065  0.36858906  0.87556722  1
  V  V22  1  0.12207283  0.88877447  0.74575441  1
  V  V23  1  0.48652342  0.62743076  0.63420074  1
  V  V24  1  0.87073753  0.61507435  0.75159463  1
  V  V25  1  0.48911162  0.62261690  0.12701693  1
  V  V26  1  -0.00491769  0.74881505  0.74602223  1
  V  V27  1  0.13968586  0.87775500  0.25218837  1
  V  V28  1  0.25413064  0.62674594  0.36929154  1
  V  V29  1  -0.00017737  0.62512641  0.12387490  1
  V  V30  1  0.50372890  0.50861589  0.50079781  1
  V  V31  1  0.12618234  0.50199060  0.12483025  1
  V  V32  1  0.24728985  0.12139191  0.37141669  1
  V  V33  1  0.50062745  0.12371241  0.12513367  1
  V  V34  1  0.62951244  0.49761338  0.12809615  1
  V  V35  1  0.50034006  -0.00281114  0.50069885  1
  V  V36  1  0.36398350  0.00055207  0.87618470  1
  V  V37  1  0.37258222  0.12245573  0.25073035  1
  V  V38  1  0.62610195  0.24911809  0.37709280  1
  V  V39  1  0.50027887  0.24868407  0.25044911  1
  V  V40  1  0.74832807  0.74751931  0.00074801  1
  V  V41  1  0.74554449  0.74422483  0.49741423  1
  V  V42  1  0.63490951  0.37788483  0.74904013  1
  V  V43  1  0.12645584  0.12274174  0.51681785  1
  V  V44  1  0.63497101  0.24279232  0.87969198  1
  V  V45  1  0.37259002  0.25086438  0.12453368  1
  V  V46  1  0.62345137  -0.00087610  0.12640243  1
  V  V47  1  0.49616073  0.49653868  -0.00062745  1
  V  V48  1  0.24486985  0.62954206  0.87821811  1
  V  V49  1  0.87436916  0.74797528  0.12752015  1
  V  V50  1  0.37419843  0.50391343  0.87008656  1
  V  V51  1  0.50254241  0.12396258  0.62666687  1
  V  V52  1  0.12113929  0.25406017  0.37615476  1
  V  V53  1  0.63373620  0.37575193  0.25060126  1
  V  V54  1  0.48883893  0.74657947  0.24725329  1
  V  V55  1  0.37167901  0.75071813  0.10163883  1
  V  V56  1  0.49886744  0.87219401  0.37497301  1
  V  V57  1  0.12083749  0.36619557  0.75419240  1
  V  V58  1  0.50545209  0.37407842  0.87487399  1
  V  V59  1  -0.00692954  0.62873467  0.62259749  1
  V  V60  1  0.63109765  -0.00459333  0.62341336  1
  V  V61  1  0.00513363  -0.00276080  0.00257678  1
  V  V62  1  0.87602430  0.87566004  -0.00253124  1
  V  V63  1  0.00524217  0.12255674  0.12687826  1
  V  V64  1  0.75300978  0.36413479  0.11253503  1
  V  V65  1  0.00246727  0.87556895  0.37495452  1
  V  V66  1  0.24926635  0.37294773  0.13045173  1
  V  V67  1  0.88365424  0.24734829  0.63008011  1
  V  V68  1  0.87988872  0.37472170  0.48425288  1
  V  V69  1  0.75137538  0.00034823  0.76423924  1
  V  V70  1  -0.00184279  0.49462992  0.48853068  1
  V  V71  1  0.49888094  0.37408126  0.37450204  1
  V  V72  1  0.00084384  0.75105529  0.25072555  1
  V  V73  1  0.62262242  0.74986065  0.86893506  1
  V  V74  1  0.86727392  0.61554353  0.25734333  1
  V  V75  1  0.50149672  0.87768588  0.87504331  1
  V  V76  1  -0.00162624  0.87360290  0.87451987  1
  V  V77  1  0.00001443  0.25709992  0.25304188  1
  V  V78  1  0.37464940  0.50315789  0.36925371  1
  V  V79  1  0.49961075  -0.00139809  -0.00102504  1
  V  V80  1  0.62243570  0.87153522  0.24952995  1
  V  V81  1  0.13291431  0.00016894  0.12756034  1
  V  V82  1  0.37112758  -0.00265566  0.37202081  1
  V  V83  1  0.87187086  0.12233581  0.76032189  1
  V  V84  1  0.25484059  0.74806680  0.51410342  1
  Zn  Zn85  1  0.37951843  0.86969632  0.51682675  1
  Zn  Zn86  1  0.12801294  0.75543687  0.87674793  1
  Zn  Zn87  1  0.25328878  0.50549752  0.24899498  1
  Zn  Zn88  1  0.24786454  0.25041410  0.49985649  1
  Zn  Zn89  1  0.81110793  0.18786278  -0.05506544  1
  Zn  Zn90  1  0.75686845  0.86816637  0.62807410  1
  Zn  Zn91  1  0.62620383  0.12476801  0.50042784  1
  Zn  Zn92  1  -0.00728093  0.49787589  -0.00451992  1
  Zn  Zn93  1  0.75591094  0.38094987  0.62761990  1
  Zn  Zn94  1  0.11941232  0.38198125  0.25805666  1
  Zn  Zn95  1  0.62186865  0.73630964  0.37458603  1
  Zn  Zn96  1  0.86387165  0.49062813  0.88617762  1
  Zn  Zn97  1  0.62748392  0.87133975  0.74835691  1
  Zn  Zn98  1  0.47137384  0.76316298  0.72867379  1
  Zn  Zn99  1  0.63809188  0.12582903  0.00237364  1
  Zn  Zn100  1  0.74394946  0.61752555  0.86332792  1
  Zn  Zn101  1  0.24888120  0.37513884  0.62581464  1
  Zn  Zn102  1  0.20763156  0.22670347  -0.03267613  1
  Zn  Zn103  1  0.00338409  0.12294465  0.62973722  1
  Zn  Zn104  1  0.87875963  0.25492961  0.10214058  1
  Zn  Zn105  1  0.73950777  0.60647672  0.37868952  1
  Zn  Zn106  1  0.50375988  0.24991331  0.75024793  1
  Zn  Zn107  1  0.18682065  0.19026696  0.18784979  1
  Zn  Zn108  1  0.15790649  0.15641449  0.74257195  1
  Zn  Zn109  1  0.19085996  0.69326741  0.18458143  1
  Zn  Zn110  1  0.18029884  0.68868720  0.69212263  1
  Zn  Zn111  1  0.68950810  0.18770688  0.18821520  1
  Zn  Zn112  1  0.68960814  0.18744471  0.69121102  1
  Zn  Zn113  1  0.68283174  0.68518621  0.19075806  1
  Zn  Zn114  1  0.68832318  0.68831648  0.67897839  1
  Zn  Zn115  1  0.30945495  0.31060073  0.31317305  1
  Zn  Zn116  1  0.31039987  0.31364207  0.80189999  1
  Zn  Zn117  1  0.31596126  0.80668395  0.31553958  1
  Zn  Zn118  1  0.30564045  0.82239907  0.80979986  1
  Zn  Zn119  1  0.81365503  0.43772924  0.31055905  1
  Zn  Zn120  1  0.81459178  0.31235803  0.81091363  1
  Zn  Zn121  1  0.81366574  0.80884958  0.31702673  1
  Zn  Zn122  1  0.81121094  0.80725089  0.81226278  1
  Zn  Zn123  1  0.18997149  0.43883756  0.43899412  1
  Zn  Zn124  1  0.17948161  0.44177763  0.93606416  1
  Zn  Zn125  1  0.18849389  0.93768598  0.44352817  1
  Zn  Zn126  1  0.17968044  1.06152508  0.92882430  1
  Zn  Zn127  1  0.68572444  0.43414819  0.44439990  1
  Zn  Zn128  1  0.68976463  0.44002308  0.93701823  1
  Zn  Zn129  1  0.68822385  0.93288071  0.43827705  1
  Zn  Zn130  1  0.68584983  0.93683632  0.94225344  1
  Zn  Zn131  1  0.31197596  0.06548210  0.06005341  1
  Zn  Zn132  1  0.31509145  0.06477871  0.55878587  1
  Zn  Zn133  1  0.31180133  0.55454811  0.05488266  1
  Zn  Zn134  1  0.31233082  0.56288247  0.55938106  1
  Zn  Zn135  1  0.81647910  0.05768489  0.06712871  1
  Zn  Zn136  1  0.81451054  0.06022511  0.56256749  1
  Zn  Zn137  1  0.81069864  0.56006179  0.06509112  1
  Zn  Zn138  1  0.81529812  0.56175226  0.55765978  1
  Zn  Zn139  1  0.43735645  0.43248267  0.18560686  1
  Zn  Zn140  1  0.44289354  0.43957497  0.68905648  1
  Zn  Zn141  1  0.43143303  0.93396282  0.18593264  1
  Zn  Zn142  1  0.43730422  0.94090103  0.69230357  1
  Zn  Zn143  1  0.93737651  0.43772943  0.17647137  1
  Zn  Zn144  1  0.93907510  0.43619730  0.68487683  1
  Zn  Zn145  1  0.93916544  0.93601602  0.18909471  1
  Zn  Zn146  1  0.93369531  0.93907540  0.68825213  1
  Zn  Zn147  1  0.06534691  0.06099176  0.31449728  1
  Zn  Zn148  1  0.04278511  0.05876189  0.81683044  1
  Zn  Zn149  1  0.06267239  0.56628275  0.30936313  1
  Zn  Zn150  1  0.05864165  0.55717893  0.81356971  1
  Zn  Zn151  1  0.56157119  0.06095477  0.31292940  1
  Zn  Zn152  1  0.56367096  0.06134220  0.80819311  1
  Zn  Zn153  1  0.55991097  0.56054283  0.30980230  1
  Zn  Zn154  1  0.56213192  0.56267639  0.80941219  1
  Zn  Zn155  1  0.43833131  0.18531434  0.43846818  1
  Zn  Zn156  1  0.44475724  0.18576592  0.93728850  1
  Zn  Zn157  1  0.43609812  0.68807683  0.44154548  1
  Zn  Zn158  1  0.41165593  0.71138370  0.89565528  1
  Zn  Zn159  1  0.93961563  0.18610137  0.43838697  1
  Zn  Zn160  1  1.00174171  0.20680444  0.95461579  1
  Zn  Zn161  1  0.93699918  0.68677115  0.43633299  1
  Zn  Zn162  1  0.93845748  0.68563459  0.93588926  1
  Zn  Zn163  1  0.06553083  0.31678310  0.06470632  1
  Zn  Zn164  1  0.06248968  0.31111490  0.56303859  1
  Zn  Zn165  1  0.06534554  0.81215486  0.06564967  1
  Zn  Zn166  1  0.06568509  0.81282606  0.56314689  1
  Zn  Zn167  1  0.56331182  0.30973590  0.06109998  1
  Zn  Zn168  1  0.56189090  0.31568130  0.56452835  1
  Zn  Zn169  1  0.55872859  0.81159751  0.06023439  1
  Zn  Zn170  1  0.56694485  0.80829835  0.56052205  1
  O  O171  1  0.11575621  0.11183180  0.13818486  1
  O  O172  1  0.12513740  0.13193023  0.61988392  1
  O  O173  1  0.12242619  0.62162110  0.12038248  1
  O  O174  1  0.11589864  0.61540966  0.61925970  1
  O  O175  1  0.61751433  0.11671936  0.12942032  1
  O  O176  1  0.61706708  0.11591129  0.62503377  1
  O  O177  1  0.61501432  0.61572663  0.12117354  1
  O  O178  1  0.61732695  0.60984319  0.62799773  1
  O  O179  1  0.37849003  0.38027597  0.38364315  1
  O  O180  1  0.38833521  0.38258399  0.87316047  1
  O  O181  1  0.38525516  0.88211563  0.37342290  1
  O  O182  1  0.38613304  0.89543910  0.86755644  1
  O  O183  1  0.87639006  0.37001707  0.38635655  1
  O  O184  1  0.89056793  0.37852235  0.85815320  1
  O  O185  1  0.88380016  0.88083570  0.38045715  1
  O  O186  1  0.88322947  0.86477610  0.88817296  1
  O  O187  1  0.26062422  0.00800693  0.38339974  1
  O  O188  1  0.26660406  -0.00327706  0.87807413  1
  O  O189  1  0.25719730  0.50889510  0.37514193  1
  O  O190  1  0.25505740  0.50368494  0.86665796  1
  O  O191  1  0.75442904  0.00440567  0.37049815  1
  O  O192  1  0.74448808  -0.00315957  0.86267174  1
  O  O193  1  0.75404587  0.49539445  0.38403103  1
  O  O194  1  0.75064496  0.50593592  0.87355530  1
  O  O195  1  0.24361641  0.49608518  0.13046692  1
  O  O196  1  0.24068354  0.50256151  0.63012766  1
  O  O197  1  0.24336781  0.98547597  0.11643421  1
  O  O198  1  0.24617345  0.99322335  0.62085925  1
  O  O199  1  0.73391293  0.48935743  0.12275895  1
  O  O200  1  0.73443733  0.50012020  0.61486364  1
  O  O201  1  0.74430385  0.99063384  0.13413330  1
  O  O202  1  0.73991483  0.99629046  0.62515714  1
  O  O203  1  -0.00176818  0.36053266  0.24233207  1
  O  O204  1  0.01687063  0.38218779  0.75062777  1
  O  O205  1  0.00896193  0.86916067  0.25585507  1
  O  O206  1  0.00104153  0.86963305  0.75274298  1
  O  O207  1  0.50632237  0.36661773  0.25509421  1
  O  O208  1  0.51072293  0.37624895  0.76115384  1
  O  O209  1  0.50181000  0.86723323  0.25516364  1
  O  O210  1  0.50568444  0.87469011  0.75976497  1
  O  O211  1  0.49351421  0.12963253  0.24581905  1
  O  O212  1  0.49432840  0.12532020  0.73751247  1
  O  O213  1  0.50086871  0.63253461  0.23514445  1
  O  O214  1  0.49904521  0.62445706  0.73613105  1
  O  O215  1  0.99496567  0.12631004  0.24519287  1
  O  O216  1  0.97597954  0.11070580  0.74134579  1
  O  O217  1  0.99278223  0.63197930  0.24393322  1
  O  O218  1  0.99339260  0.62981026  0.74159985  1
  O  O219  1  0.38860903  0.26277049  0.00755318  1
  O  O220  1  0.37843025  0.25924054  0.50577585  1
  O  O221  1  0.38081206  0.74915018  0.00321744  1
  O  O222  1  0.36090463  0.75555035  0.49645701  1
  O  O223  1  0.89705417  0.23841404  -0.00666302  1
  O  O224  1  0.87250197  0.25831926  0.50739718  1
  O  O225  1  0.86920920  0.75447769  0.00723734  1
  O  O226  1  0.86910783  0.76157770  0.49100278  1
  O  O227  1  0.12463552  0.24040688  0.49402618  1
  O  O228  1  0.10357465  0.23308660  1.00251581  1
  O  O229  1  0.13298314  0.74412649  0.49464250  1
  O  O230  1  0.12257445  0.73778805  0.99827449  1
  O  O231  1  0.63271826  0.25104175  0.49719806  1
  O  O232  1  0.62112640  0.24676158  0.98390545  1
  O  O233  1  0.64010383  0.75400499  0.49220280  1
  O  O234  1  0.62831280  0.74246128  0.99502833  1
  O  O235  1  0.49496063  0.24463242  0.13109354  1
  O  O236  1  0.49314113  0.24073895  0.62472824  1
  O  O237  1  0.48986466  0.74351020  0.12673222  1
  O  O238  1  0.50560732  0.73384733  0.62291871  1
  O  O239  1  0.99914996  0.23790685  0.13694273  1
  O  O240  1  0.98632036  0.24705816  0.62424929  1
  O  O241  1  0.99524154  0.74553802  0.13135831  1
  O  O242  1  1.00731147  0.73703902  0.62978305  1
  O  O243  1  0.01097999  0.24075504  0.36589185  1
  O  O244  1  0.00275736  0.26984730  0.85874652  1
  O  O245  1  0.00907213  0.75529413  0.37143379  1
  O  O246  1  0.00210109  0.75885749  0.86743110  1
  O  O247  1  0.50516696  0.25341995  0.37099864  1
  O  O248  1  0.50944786  0.26096585  0.87246630  1
  O  O249  1  0.49576815  0.75645231  0.36646653  1
  O  O250  1  0.51347905  0.76499114  0.88448807  1
  O  O251  1  0.24224109  0.12674867  0.49224892  1
  O  O252  1  0.24726374  0.12527531  0.99318341  1
  O  O253  1  0.24397981  0.63050817  0.49283159  1
  O  O254  1  0.23794960  0.61549726  0.98987294  1
  O  O255  1  0.74960639  0.13142262  0.49439484  1
  O  O256  1  0.74957723  0.11353370  0.99960600  1
  O  O257  1  0.76511827  0.64110911  0.49422416  1
  O  O258  1  0.73223624  0.62991458  1.00787597  1
  O  O259  1  0.24738581  0.38763901  0.01767501  1
  O  O260  1  0.26404950  0.37475125  0.50464304  1
  O  O261  1  0.24738501  0.87005162  0.00448948  1
  O  O262  1  0.24655036  0.86866084  0.51853622  1
  O  O263  1  0.74114438  0.37197816  0.01425666  1
  O  O264  1  0.76480561  0.36538394  0.50454023  1
  O  O265  1  0.75802026  0.86925598  0.00612448  1
  O  O266  1  0.76097023  0.86650155  0.49803941  1
  O  O267  1  0.12700136  0.50100701  0.23954966  1
  O  O268  1  0.13156848  0.49598588  0.73922411  1
  O  O269  1  0.12115918  0.98803815  0.23995919  1
  O  O270  1  0.10830018  0.98595865  0.74434876  1
  O  O271  1  0.61106917  0.48598599  0.23684361  1
  O  O272  1  0.62072775  0.49282385  0.73633986  1
  O  O273  1  0.62915906  0.99193292  0.24616132  1
  O  O274  1  0.63817109  1.00003465  0.74184889  1
  O  O275  1  0.38164319  0.00622818  0.26371394  1
  O  O276  1  0.38015371  0.01461521  0.76156275  1
  O  O277  1  0.37669671  0.49301958  0.26592559  1
  O  O278  1  0.36486781  0.49215609  0.75919740  1
  O  O279  1  0.87068841  0.00507993  0.25620436  1
  O  O280  1  0.85939877  0.00781521  0.74447877  1
  O  O281  1  0.87904475  0.51072425  0.24649496  1
  O  O282  1  0.87756537  0.51416776  0.74481856  1
  O  O283  1  0.13389368  0.35941927  0.37636980  1
  O  O284  1  0.11916111  0.38189250  0.85917930  1
  O  O285  1  0.12268382  0.87193761  0.37039660  1
  O  O286  1  0.11049397  0.87288674  0.85619792  1
  O  O287  1  0.61838023  0.36934773  0.36878885  1
  O  O288  1  0.62138715  0.36858178  0.86783794  1
  O  O289  1  0.60959725  0.87585408  0.36866343  1
  O  O290  1  0.61959814  0.86721269  0.87408351  1
  O  O291  1  0.38032442  0.12964828  0.13079233  1
  O  O292  1  0.38323563  0.12847970  0.63278915  1
  O  O293  1  0.38287614  0.63004940  0.11249977  1
  O  O294  1  0.38732699  0.61976980  0.62423309  1
  O  O295  1  0.88850405  0.11841422  0.13714911  1
  O  O296  1  0.87533300  0.13813642  0.62261757  1
  O  O297  1  0.88006844  0.63059050  0.13464586  1
  O  O298  1  0.88755859  0.61940036  0.63129657  1
  O  O299  1  0.25507369  0.26017885  0.12583487  1
  O  O300  1  0.26974078  0.25369960  0.62052220  1
  O  O301  1  0.25897006  0.76228274  0.12386411  1
  O  O302  1  0.24389212  0.74689624  0.61641614  1
  O  O303  1  0.75221015  0.25999613  0.12586312  1
  O  O304  1  0.75610381  0.24789484  0.61287540  1
  O  O305  1  0.75242557  0.75440785  0.12104063  1
  O  O306  1  0.74499830  0.75374721  0.60560656  1
  O  O307  1  0.24262749  0.23885646  0.37815475  1
  O  O308  1  0.27497513  0.29543118  0.90764821  1
  O  O309  1  0.24641590  0.74368450  0.38506866  1
  O  O310  1  0.24491628  0.73314601  0.86910699  1
  O  O311  1  0.74291001  0.24232529  0.39091905  1
  O  O312  1  0.73888256  0.25194181  0.87474463  1
  O  O313  1  0.74546070  0.74985559  0.38487386  1
  O  O314  1  0.74001947  0.74331273  0.88290131  1
  O  O315  1  -0.00637133  0.10487452  0.01574459  1
  O  O316  1  0.00945966  0.11709955  0.50203936  1
  O  O317  1  0.00952162  0.62594264  0.00742680  1
  O  O318  1  0.00284880  0.61716712  0.50494099  1
  O  O319  1  0.50685459  0.11535763  0.00722085  1
  O  O320  1  0.50029488  0.11741466  0.51113150  1
  O  O321  1  0.51053557  0.61538204  0.01072875  1
  O  O322  1  0.49670128  0.61400698  0.50877377  1
  O  O323  1  0.49136412  0.38241424  0.49472466  1
  O  O324  1  0.50827120  0.38319530  0.98691396  1
  O  O325  1  0.49774132  0.87667890  0.49191119  1
  O  O326  1  0.50395337  0.88838135  0.99065429  1
  O  O327  1  0.98780170  0.37895760  0.50361327  1
  O  O328  1  1.00865542  0.37697859  0.98062108  1
  O  O329  1  0.99809447  0.88020217  0.49473290  1
  O  O330  1  0.99581332  0.87516593  0.99525073  1
  O  O331  1  0.49282551  0.49513553  0.38262480  1
  O  O332  1  0.49378110  0.49583908  0.87881787  1
  O  O333  1  0.49271667  0.99225012  0.38044688  1
  O  O334  1  0.50406354  0.99384437  0.88154010  1
  O  O335  1  1.00822229  0.50279058  0.38946808  1
  O  O336  1  0.99406259  0.48937888  0.87455688  1
  O  O337  1  0.99622701  0.99483360  0.38387505  1
  O  O338  1  0.99844928  0.98404733  0.88984574  1
  O  O339  1  0.01154150  0.00016465  0.12246309  1
  O  O340  1  -0.00583466  0.00039016  0.60957579  1
  O  O341  1  0.01171857  0.50675645  0.12387399  1
  O  O342  1  0.00853075  0.50700052  0.61563564  1
  O  O343  1  0.50137146  0.00225298  0.11828889  1
  O  O344  1  0.50740776  0.00501144  0.62150783  1
  O  O345  1  0.50153864  0.50377675  0.11846102  1
  O  O346  1  0.50516811  0.50980143  0.61964742  1
  O  O347  1  0.24692456  0.37838713  0.24093751  1
  O  O348  1  0.23989427  0.38853724  0.74561057  1
  O  O349  1  0.24012898  0.87069228  0.25516831  1
  O  O350  1  0.23265263  0.87735772  0.74170149  1
  O  O351  1  0.73627911  0.37725290  0.24279118  1
  O  O352  1  0.73847597  0.37189427  0.74609731  1
  O  O353  1  0.74416172  0.87734206  0.24705553  1
  O  O354  1  0.75218160  0.88597869  0.74712496  1
  O  O355  1  0.25605803  0.12871127  0.26289010  1
  O  O356  1  0.26888868  0.12806176  0.74563000  1
  O  O357  1  0.24678654  0.62908238  0.26567691  1
  O  O358  1  0.23910953  0.61236198  0.75975807  1
  O  O359  1  0.75855397  0.11844978  0.25507322  1
  O  O360  1  0.75768436  0.10990357  0.74462518  1
  O  O361  1  0.76567589  0.62780732  0.24796849  1
  O  O362  1  0.76884427  0.63484867  0.74302186  1
  O  O363  1  0.36800689  0.11754297  0.37285955  1
  O  O364  1  0.38352905  0.11954083  0.86233784  1
  O  O365  1  0.36603901  0.61391451  0.38406578  1
  O  O366  1  0.36292223  0.60711079  0.88822519  1
  O  O367  1  0.87061729  0.11846224  0.36949358  1
  O  O368  1  0.87323301  0.12937545  0.85785537  1
  O  O369  1  0.87656449  0.62647646  0.35848330  1
  O  O370  1  0.87599797  0.62527975  0.85787980  1
  O  O371  1  0.13151907  0.38604739  0.12924667  1
  O  O372  1  0.12489999  0.38553124  0.62972168  1
  O  O373  1  0.13900696  0.87762759  0.13082657  1
  O  O374  1  0.13372636  0.87178270  0.63625706  1
  O  O375  1  0.63043197  0.37698551  0.13133403  1
  O  O376  1  0.62392886  0.38390061  0.63441764  1
  O  O377  1  0.62880142  0.87884162  0.12969536  1
  O  O378  1  0.62443055  0.88555968  0.62793760  1
  O  O379  1  0.11587904  0.25091320  0.25893706  1
  O  O380  1  0.13547960  0.26885370  0.74062941  1
  O  O381  1  0.12104195  0.75876256  0.25539492  1
  O  O382  1  0.10904659  0.75608534  0.75255529  1
  O  O383  1  0.62013132  0.25721370  0.25622705  1
  O  O384  1  0.62420971  0.25855274  0.75860674  1
  O  O385  1  0.60900106  0.75617510  0.24706737  1
  O  O386  1  0.62845624  0.74787258  0.76285788  1
  O  O387  1  0.38047712  0.24372675  0.24543739  1
  O  O388  1  0.38065226  0.24057081  0.74365967  1
  O  O389  1  0.38581316  0.75355679  0.23897325  1
  O  O390  1  0.38229649  0.74529779  0.78989241  1
  O  O391  1  0.88530274  0.23285849  0.25130092  1
  O  O392  1  0.86225709  0.23415161  0.73586318  1
  O  O393  1  0.88174000  0.74266168  0.24574925  1
  O  O394  1  0.88935997  0.74367024  0.75074822  1
  O  O395  1  0.38283827  0.49136976  0.49333422  1
  O  O396  1  0.37682796  0.47892646  0.98730781  1
  O  O397  1  0.38213343  0.99470093  0.49089616  1
  O  O398  1  0.38832437  1.01128420  0.98400318  1
  O  O399  1  0.88336877  0.48144588  0.50754675  1
  O  O400  1  0.87980558  0.50691882  0.99945650  1
  O  O401  1  0.88318469  0.99274395  0.49298227  1
  O  O402  1  0.88741972  0.98036947  1.01342336  1
  O  O403  1  0.11430795  -0.00214060  0.01262902  1
  O  O404  1  0.11606230  0.01082767  0.49552051  1
  O  O405  1  0.12192879  0.50997435  0.01326483  1
  O  O406  1  0.11933304  0.50254702  0.50757859  1
  O  O407  1  0.61650741  0.00132587  0.00898730  1
  O  O408  1  0.61899862  0.00027224  0.50729445  1
  O  O409  1  0.61631576  0.50602779  0.00884864  1
  O  O410  1  0.61107853  0.48728298  0.51585926  1
  O  O411  1  0.36449099  0.36913745  0.12036378  1
  O  O412  1  0.38145816  0.36815935  0.61821980  1
  O  O413  1  0.36153350  0.86909377  0.12098434  1
  O  O414  1  0.35532444  0.88004399  0.63505599  1
  O  O415  1  0.85655797  0.37289272  0.12921593  1
  O  O416  1  0.87291481  0.35841958  0.62813244  1
  O  O417  1  0.87026612  0.86647198  0.12059969  1
  O  O418  1  0.87541599  0.87823169  0.60998678  1
  O  O419  1  0.13364138  0.13071153  0.38091105  1
  O  O420  1  0.12679805  0.12367419  0.84894614  1
  O  O421  1  0.13330599  0.63086260  0.38072185  1
  O  O422  1  0.12918049  0.62130847  0.88408410  1
  O  O423  1  0.63062095  0.13055340  0.37623579  1
  O  O424  1  0.61955979  0.14176579  0.86990886  1
  O  O425  1  0.62861208  0.62470386  0.36547964  1
  O  O426  1  0.62012816  0.63209134  0.88471315  1
