# generated using pymatgen
data_V85Zn86O256
_symmetry_space_group_name_H-M   'P 1'
_cell_length_a   16.98080636
_cell_length_b   16.96759610
_cell_length_c   16.97261304
_cell_angle_alpha   89.85759562
_cell_angle_beta   89.88535743
_cell_angle_gamma   89.72211387
_symmetry_Int_Tables_number   1
_chemical_formula_structural   V85Zn86O256
_chemical_formula_sum   'V85 Zn86 O256'
_cell_volume   4890.12576860
_cell_formula_units_Z   1
loop_
 _symmetry_equiv_pos_site_id
 _symmetry_equiv_pos_as_xyz
  1  'x, y, z'
loop_
 _atom_site_type_symbol
 _atom_site_label
 _atom_site_symmetry_multiplicity
 _atom_site_fract_x
 _atom_site_fract_y
 _atom_site_fract_z
 _atom_site_occupancy
  V  V0  1  0.37521587  0.36676213  0.00409531  1
  V  V1  1  0.63311528  0.37536667  0.74956217  1
  V  V2  1  0.63261880  0.49734072  0.62706092  1
  V  V3  1  0.63004062  0.87255886  0.24779938  1
  V  V4  1  0.62379402  0.00421238  0.62109517  1
  V  V5  1  0.37400684  0.12744314  0.75096778  1
  V  V6  1  0.12533340  -0.00024332  0.62520546  1
  V  V7  1  0.13051407  0.49776322  0.13790112  1
  V  V8  1  0.25302321  0.26146534  0.50785505  1
  V  V9  1  0.74566180  0.50064499  0.24443963  1
  V  V10  1  0.00599826  0.50234431  0.50128692  1
  V  V11  1  0.62570888  0.37761048  0.24945202  1
  V  V12  1  0.87595251  -0.00350618  0.89912308  1
  V  V13  1  0.74816125  0.62558113  0.37532675  1
  V  V14  1  0.50222751  0.24785933  0.25339691  1
  V  V15  1  0.37548697  0.26582604  0.62296592  1
  V  V16  1  0.86829189  0.25601238  0.62439071  1
  V  V17  1  0.24782077  0.00157721  0.25106204  1
  V  V18  1  0.12866251  0.01070695  0.10951507  1
  V  V19  1  0.49647905  0.00080936  -0.00203526  1
  V  V20  1  0.49713347  0.74888498  0.74907136  1
  V  V21  1  0.12974165  0.49244872  0.62820723  1
  V  V22  1  0.62431520  0.74993479  0.37454981  1
  V  V23  1  0.12730266  0.12757316  0.49713044  1
  V  V24  1  0.25376682  0.73997929  0.50442200  1
  V  V25  1  0.37371343  -0.00391868  0.37719238  1
  V  V26  1  0.12638034  0.74293301  0.38026312  1
  V  V27  1  -0.00142262  0.62533954  0.12863185  1
  V  V28  1  0.74902987  0.75277270  0.49572074  1
  V  V29  1  0.37737113  0.74057535  0.12554796  1
  V  V30  1  -0.00280878  0.00234214  0.49360997  1
  V  V31  1  0.87476893  0.62488045  0.75399488  1
  V  V32  1  0.00914464  0.62631019  0.62193999  1
  V  V33  1  0.12963070  0.62286702  -0.00249428  1
  V  V34  1  0.62334781  0.63133769  0.00807991  1
  V  V35  1  0.74871171  0.23531292  0.49283239  1
  V  V36  1  0.49901191  0.00136869  0.50048378  1
  V  V37  1  0.00565856  0.87436662  0.37207006  1
  V  V38  1  0.25612289  0.87245549  0.62517626  1
  V  V39  1  0.87684409  0.75139431  0.62339129  1
  V  V40  1  0.87424887  0.50311183  0.37452723  1
  V  V41  1  0.00329130  0.23731012  0.25205687  1
  V  V42  1  0.50564700  0.25085202  0.75468182  1
  V  V43  1  0.25213366  0.87514354  0.12496677  1
  V  V44  1  0.37134925  0.50283223  0.87774909  1
  V  V45  1  0.87536724  0.87880145  0.48800511  1
  V  V46  1  0.74644921  0.25239678  -0.00355602  1
  V  V47  1  0.87317140  0.12248666  0.74941930  1
  V  V48  1  -0.00109951  0.12626781  0.62218750  1
  V  V49  1  0.74992591  0.87653460  0.62118713  1
  V  V50  1  0.62448791  0.62577601  0.50107327  1
  V  V51  1  0.50672001  0.37345611  0.87718552  1
  V  V52  1  0.49836409  0.74332598  0.24876196  1
  V  V53  1  0.12518707  0.75194411  0.87729279  1
  V  V54  1  0.00172528  0.75428169  0.75126115  1
  V  V55  1  0.24746147  0.00173946  0.75154128  1
  V  V56  1  0.36754538  0.61991473  0.25269178  1
  V  V57  1  0.50615513  0.50162609  0.01634054  1
  V  V58  1  0.37348933  0.00156724  0.87491878  1
  V  V59  1  0.37463929  0.12818439  0.24809535  1
  V  V60  1  0.00787806  0.13227090  0.09850664  1
  V  V61  1  0.12134020  0.87593517  0.75296555  1
  V  V62  1  0.86706437  0.37719539  0.50184007  1
  V  V63  1  0.50069640  0.12658961  0.62222563  1
  V  V64  1  0.62354489  0.13132510  -0.00617520  1
  V  V65  1  0.00606084  0.37772077  0.36573472  1
  V  V66  1  0.37098177  0.62655762  0.75356529  1
  V  V67  1  0.37175826  0.49354533  0.37850164  1
  V  V68  1  0.87244115  0.74988664  0.11405474  1
  V  V69  1  0.62653064  0.86878791  0.75228166  1
  V  V70  1  0.00406330  0.25343115  0.75447787  1
  V  V71  1  0.23396815  0.25218358  -0.00400683  1
  V  V72  1  0.49493785  0.12847300  0.12417465  1
  V  V73  1  0.74276677  0.86713206  0.10866234  1
  V  V74  1  0.49531963  0.62874055  0.62532443  1
  V  V75  1  0.25247321  0.74358904  -0.00402994  1
  V  V76  1  0.62330535  -0.00365794  0.12631459  1
  V  V77  1  0.25234899  0.49382322  0.74837161  1
  V  V78  1  0.87532167  0.37112662  0.00740045  1
  V  V79  1  -0.00034087  0.49902070  -0.00263647  1
  V  V80  1  0.24971945  0.37362008  0.13729832  1
  V  V81  1  0.23584549  0.13065482  0.87749576  1
  V  V82  1  0.49865110  0.49177371  0.50056252  1
  V  V83  1  0.75117843  0.00040092  0.74892802  1
  V  V84  1  0.50200126  0.87153954  0.87408873  1
  Zn  Zn85  1  0.75505429  0.49665658  0.74950753  1
  Zn  Zn86  1  0.13784706  0.36477313  0.75654568  1
  Zn  Zn87  1  0.00792670  0.36607803  0.88268634  1
  Zn  Zn88  1  0.00162887  0.74950874  0.24974862  1
  Zn  Zn89  1  0.12589563  0.87455335  0.25062786  1
  Zn  Zn90  1  -0.00511024  0.87958638  0.91237417  1
  Zn  Zn91  1  0.63319349  0.24473553  0.37828219  1
  Zn  Zn92  1  0.84645394  0.21810205  0.15585783  1
  Zn  Zn93  1  0.37711321  0.86832861  0.50580622  1
  Zn  Zn94  1  0.73187175  0.62853951  0.86686586  1
  Zn  Zn95  1  0.24344413  0.61627282  0.37649176  1
  Zn  Zn96  1  0.50016348  0.36602618  0.38213223  1
  Zn  Zn97  1  0.37582087  0.87222160  -0.00142360  1
  Zn  Zn98  1  0.74906624  0.74837823  -0.01553806  1
  Zn  Zn99  1  0.74533824  0.12814345  0.87391390  1
  Zn  Zn100  1  0.25029930  0.12738363  0.37737171  1
  Zn  Zn101  1  0.84526726  0.06774055  0.27511064  1
  Zn  Zn102  1  0.87128901  0.49731225  0.87550064  1
  Zn  Zn103  1  0.86845409  0.63744773  0.25111575  1
  Zn  Zn104  1  0.50058229  0.87243712  0.37673409  1
  Zn  Zn105  1  0.13293445  0.25897375  0.36998244  1
  Zn  Zn106  1  0.74443906  0.37953862  0.12171365  1
  Zn  Zn107  1  0.18761378  0.19436009  0.18569943  1
  Zn  Zn108  1  0.18838092  0.18614874  0.68427254  1
  Zn  Zn109  1  0.18569155  0.68643967  0.18999768  1
  Zn  Zn110  1  0.18892942  0.68627531  0.68881817  1
  Zn  Zn111  1  0.68304062  0.18654832  0.18648953  1
  Zn  Zn112  1  0.68879751  0.18973958  0.68333107  1
  Zn  Zn113  1  0.68440088  0.68338907  0.18248629  1
  Zn  Zn114  1  0.68823489  0.68808300  0.68476279  1
  Zn  Zn115  1  0.31481781  0.31039403  0.32034106  1
  Zn  Zn116  1  0.31851288  0.31271402  0.81672015  1
  Zn  Zn117  1  0.31047993  0.80994709  0.31488807  1
  Zn  Zn118  1  0.31377939  0.81299141  0.81168668  1
  Zn  Zn119  1  0.81761988  0.31588921  0.31467500  1
  Zn  Zn120  1  0.81807974  0.31351837  0.82188101  1
  Zn  Zn121  1  0.85537861  0.87345588  0.25642400  1
  Zn  Zn122  1  0.81512662  0.81306122  0.81732105  1
  Zn  Zn123  1  0.18647485  0.43813578  0.44032760  1
  Zn  Zn124  1  0.18570005  0.43573821  0.93542448  1
  Zn  Zn125  1  0.18785347  0.93391061  0.44018157  1
  Zn  Zn126  1  0.19061859  0.93310866  0.93463526  1
  Zn  Zn127  1  0.68348379  0.43656856  0.43299098  1
  Zn  Zn128  1  0.69011796  0.44570607  0.93446951  1
  Zn  Zn129  1  0.68650142  0.94442317  0.43106276  1
  Zn  Zn130  1  0.68552928  0.94495923  0.93465122  1
  Zn  Zn131  1  0.31123444  0.06777057  0.05921438  1
  Zn  Zn132  1  0.31337834  0.06576335  0.56506227  1
  Zn  Zn133  1  0.31446519  0.55646395  0.06522388  1
  Zn  Zn134  1  0.31467771  0.55763144  0.56491459  1
  Zn  Zn135  1  0.80019479  0.07178379  0.09097596  1
  Zn  Zn136  1  0.81502076  0.06216188  0.56132174  1
  Zn  Zn137  1  0.81096682  0.56517374  0.06014332  1
  Zn  Zn138  1  0.81586375  0.56519578  0.56396600  1
  Zn  Zn139  1  0.43199195  0.43167407  0.19285766  1
  Zn  Zn140  1  0.44420795  0.44195701  0.69052921  1
  Zn  Zn141  1  0.43842330  0.93375265  0.18846897  1
  Zn  Zn142  1  0.43639473  0.93930793  0.69044324  1
  Zn  Zn143  1  0.93488097  0.44009026  0.18795126  1
  Zn  Zn144  1  0.93841345  0.43820900  0.68532923  1
  Zn  Zn145  1  0.93196809  0.94741801  0.10657199  1
  Zn  Zn146  1  0.93765811  0.93735744  0.68195926  1
  Zn  Zn147  1  0.06201970  0.06327827  0.31258335  1
  Zn  Zn148  1  0.05456086  0.06005788  0.81676869  1
  Zn  Zn149  1  0.06119471  0.56390859  0.31399993  1
  Zn  Zn150  1  0.06535579  0.56378449  0.81237906  1
  Zn  Zn151  1  0.56045941  0.05708346  0.31077155  1
  Zn  Zn152  1  0.56208054  0.06031647  0.81020339  1
  Zn  Zn153  1  0.55924414  0.56129628  0.31237080  1
  Zn  Zn154  1  0.56080559  0.55924710  0.81815610  1
  Zn  Zn155  1  0.43443239  0.18566054  0.43747845  1
  Zn  Zn156  1  0.43312566  0.18739396  0.93586000  1
  Zn  Zn157  1  0.43550032  0.68288550  0.43571912  1
  Zn  Zn158  1  0.44404662  0.68422744  0.93720835  1
  Zn  Zn159  1  0.92784036  0.18569160  0.42536583  1
  Zn  Zn160  1  0.92965519  0.18698149  0.93667322  1
  Zn  Zn161  1  0.93654057  0.68846417  0.43740382  1
  Zn  Zn162  1  0.94267409  0.68826098  0.93554810  1
  Zn  Zn163  1  0.06499216  0.31684711  0.06953676  1
  Zn  Zn164  1  0.06005378  0.31544780  0.56423509  1
  Zn  Zn165  1  0.06637650  0.81341471  0.06658557  1
  Zn  Zn166  1  0.06785441  0.81295551  0.56183177  1
  Zn  Zn167  1  0.56225152  0.31307187  0.06626149  1
  Zn  Zn168  1  0.56915763  0.31130075  0.56640970  1
  Zn  Zn169  1  0.55783928  0.80926984  0.06077535  1
  Zn  Zn170  1  0.56097401  0.81430069  0.56455455  1
  O  O171  1  0.12813930  0.11659124  0.12288575  1
  O  O172  1  0.11940099  0.11930397  0.61624286  1
  O  O173  1  0.11922527  0.61982794  0.11742794  1
  O  O174  1  0.11367346  0.61716107  0.63028119  1
  O  O175  1  0.61175248  0.11473692  0.11810952  1
  O  O176  1  0.61287741  0.11499054  0.63271431  1
  O  O177  1  0.62162460  0.62132470  0.10998888  1
  O  O178  1  0.61541217  0.61844625  0.62160572  1
  O  O179  1  0.38152777  0.38914768  0.37094101  1
  O  O180  1  0.38536918  0.38240805  0.88408058  1
  O  O181  1  0.37665692  0.88786060  0.37409611  1
  O  O182  1  0.38478630  0.88241691  0.87378709  1
  O  O183  1  0.88610162  0.38411157  0.38410103  1
  O  O184  1  0.88622536  0.37755886  0.88968967  1
  O  O185  1  0.88515549  0.87471254  0.38429970  1
  O  O186  1  0.87471332  0.89343305  0.87609553  1
  O  O187  1  0.25602625  0.00060330  0.36752327  1
  O  O188  1  0.25451077  0.00793684  0.87050927  1
  O  O189  1  0.26611181  0.49937907  0.38706075  1
  O  O190  1  0.26491648  0.49793734  0.86907888  1
  O  O191  1  0.71316354  0.04017748  0.36664872  1
  O  O192  1  0.76120062  0.00368168  0.86832840  1
  O  O193  1  0.75491746  0.50753078  0.37065661  1
  O  O194  1  0.75495180  0.50986688  0.86701622  1
  O  O195  1  0.24367729  0.48517384  0.12064142  1
  O  O196  1  0.24071707  0.50436706  0.63312996  1
  O  O197  1  0.24715840  0.99658763  0.13118406  1
  O  O198  1  0.24494414  0.99490104  0.63217444  1
  O  O199  1  0.75507074  0.50003292  0.14108106  1
  O  O200  1  0.73631097  0.50637277  0.62639951  1
  O  O201  1  0.72825740  0.98340459  0.11356944  1
  O  O202  1  0.74127564  0.99671077  0.62693985  1
  O  O203  1  0.00020580  0.37779571  0.26165331  1
  O  O204  1  -0.00820529  0.35712214  0.74968210  1
  O  O205  1  0.00254487  0.87373568  0.26809343  1
  O  O206  1  0.00821274  0.86828753  0.74040614  1
  O  O207  1  0.50375278  0.36083080  0.25219992  1
  O  O208  1  0.50713882  0.36883693  0.75863009  1
  O  O209  1  0.50647948  0.86185650  0.25181516  1
  O  O210  1  0.50560941  0.86882331  0.75339316  1
  O  O211  1  0.49444208  0.12741416  0.24384694  1
  O  O212  1  0.49594238  0.13257184  0.74429225  1
  O  O213  1  0.48996589  0.63705529  0.25479197  1
  O  O214  1  0.49583682  0.63157711  0.74485582  1
  O  O215  1  0.99735936  0.13579435  0.25105475  1
  O  O216  1  0.99055899  0.13137660  0.74313042  1
  O  O217  1  0.99554531  0.62479738  0.23829615  1
  O  O218  1  0.99619804  0.63298410  0.74121580  1
  O  O219  1  0.37430321  0.26368197  -0.00082102  1
  O  O220  1  0.36246227  0.24404501  0.50798251  1
  O  O221  1  0.36958383  0.74589562  0.00749508  1
  O  O222  1  0.35953115  0.75232057  0.49253411  1
  O  O223  1  0.86552528  0.25836803  0.00138850  1
  O  O224  1  0.86809805  0.25629909  0.50489439  1
  O  O225  1  0.87256903  0.73900626  0.01023543  1
  O  O226  1  0.86955109  0.76006290  0.50340761  1
  O  O227  1  0.13598364  0.24316284  0.50737741  1
  O  O228  1  0.13611581  0.25811388  0.99490377  1
  O  O229  1  0.13872096  0.75459220  0.49154969  1
  O  O230  1  0.13392593  0.74279690  0.99952207  1
  O  O231  1  0.64441354  0.25514927  0.50047453  1
  O  O232  1  0.62867877  0.24078182  1.00486987  1
  O  O233  1  0.62838392  0.74702175  0.49625346  1
  O  O234  1  0.61672899  0.73423280  0.99993670  1
  O  O235  1  0.50491630  0.23677286  0.13838656  1
  O  O236  1  0.49504489  0.24272751  0.62965514  1
  O  O237  1  0.48480151  0.75530024  0.13400068  1
  O  O238  1  0.50321416  0.74039280  0.63483404  1
  O  O239  1  1.01471809  0.23755827  0.13606171  1
  O  O240  1  0.98748480  0.24492608  0.63052738  1
  O  O241  1  0.99564579  0.73747074  0.12298840  1
  O  O242  1  0.99857415  0.74347947  0.62668040  1
  O  O243  1  0.00030463  0.25888778  0.36495362  1
  O  O244  1  -0.00591464  0.24313792  0.85646587  1
  O  O245  1  0.00957088  0.75692189  0.37986184  1
  O  O246  1  0.00657376  0.76026792  0.87106561  1
  O  O247  1  0.50844242  0.24231623  0.36902546  1
  O  O248  1  0.49301779  0.25896445  0.86366767  1
  O  O249  1  0.50530863  0.75084834  0.36820345  1
  O  O250  1  0.49655780  0.76218616  0.86498324  1
  O  O251  1  0.24027341  0.12972109  0.50141650  1
  O  O252  1  0.25575194  0.14399332  0.99342937  1
  O  O253  1  0.25365270  0.63749326  0.50336767  1
  O  O254  1  0.24195263  0.63325921  1.00888712  1
  O  O255  1  0.75373302  0.13637967  0.50169829  1
  O  O256  1  0.73785107  0.13353997  1.00541033  1
  O  O257  1  0.74446898  0.63155746  0.49674636  1
  O  O258  1  0.73353518  0.62306842  0.99859232  1
  O  O259  1  0.25752045  0.36476220  -0.00084896  1
  O  O260  1  0.24563712  0.35972372  0.50344086  1
  O  O261  1  0.25326750  0.86433452  0.00940699  1
  O  O262  1  0.25334855  0.86943650  0.51086882  1
  O  O263  1  0.75611323  0.37158175  -0.00162186  1
  O  O264  1  0.76452964  0.37404747  0.49333688  1
  O  O265  1  0.72930053  0.86552685  0.00544120  1
  O  O266  1  0.75713526  0.87613444  0.49879350  1
  O  O267  1  0.12533406  0.50834042  0.23689507  1
  O  O268  1  0.13824954  0.50533735  0.74470579  1
  O  O269  1  0.13881758  1.00236015  0.24510107  1
  O  O270  1  0.12743973  0.99670237  0.74547170  1
  O  O271  1  0.63396525  0.49129976  0.25964583  1
  O  O272  1  0.62320982  0.49244139  0.74264274  1
  O  O273  1  0.61023039  0.98501499  0.23463608  1
  O  O274  1  0.62887450  0.99162365  0.73988243  1
  O  O275  1  0.36867866  0.00669390  0.25612266  1
  O  O276  1  0.36765736  0.00749983  0.75513758  1
  O  O277  1  0.38479555  0.50848979  0.26609116  1
  O  O278  1  0.37211697  0.50608415  0.75708569  1
  O  O279  1  0.87872175  -0.02251831  0.21453080  1
  O  O280  1  0.86954806  0.01136764  0.74155170  1
  O  O281  1  0.86441667  0.50164128  0.25960604  1
  O  O282  1  0.87663664  0.50979768  0.74867337  1
  O  O283  1  0.11123722  0.37439687  0.38466838  1
  O  O284  1  0.11796352  0.38167966  0.86616875  1
  O  O285  1  0.12034453  0.86586687  0.37519363  1
  O  O286  1  0.11835832  0.87141596  0.87112588  1
  O  O287  1  0.61989440  0.36927145  0.36407159  1
  O  O288  1  0.61217859  0.38156018  0.86766446  1
  O  O289  1  0.62448759  0.86982404  0.36452236  1
  O  O290  1  0.61351209  0.88631984  0.86127494  1
  O  O291  1  0.38476119  0.11803664  0.13580011  1
  O  O292  1  0.38546582  0.13076750  0.63251518  1
  O  O293  1  0.36803005  0.63372735  0.13445517  1
  O  O294  1  0.38887758  0.61594093  0.63675569  1
  O  O295  1  0.90527101  0.12646798  0.10727843  1
  O  O296  1  0.87892859  0.13364897  0.63139220  1
  O  O297  1  0.88318330  0.62991189  0.12771752  1
  O  O298  1  0.88663336  0.63167698  0.63159202  1
  O  O299  1  0.24433512  0.26339337  0.10968429  1
  O  O300  1  0.26091604  0.24580438  0.61699173  1
  O  O301  1  0.25640951  0.75709271  0.11892150  1
  O  O302  1  0.24273846  0.75754139  0.61300015  1
  O  O303  1  0.74687811  0.25902836  0.11083342  1
  O  O304  1  0.76150528  0.24792724  0.61352810  1
  O  O305  1  0.75399048  0.75161366  0.11737132  1
  O  O306  1  0.75431873  0.75777637  0.61539362  1
  O  O307  1  0.25023547  0.24711078  0.39165643  1
  O  O308  1  0.25443046  0.24461111  0.88497371  1
  O  O309  1  0.24286696  0.74962182  0.38702969  1
  O  O310  1  0.24491336  0.75781804  0.88929630  1
  O  O311  1  0.75516749  0.24998012  0.38829267  1
  O  O312  1  0.75302617  0.24538026  0.89000253  1
  O  O313  1  0.73958825  0.74168747  0.38223519  1
  O  O314  1  0.75184088  0.74178389  0.87239332  1
  O  O315  1  0.01608559  0.14130032  0.00049640  1
  O  O316  1  0.00663889  0.12013350  0.50265406  1
  O  O317  1  0.00851612  0.61801796  0.01037843  1
  O  O318  1  -0.00764085  0.61352427  0.51002730  1
  O  O319  1  0.50214490  0.12365347  0.00648966  1
  O  O320  1  0.49453560  0.11463356  0.51179452  1
  O  O321  1  0.50408798  0.60809833  0.00059705  1
  O  O322  1  0.50477839  0.61981689  0.50877098  1
  O  O323  1  0.50770159  0.38719729  0.50121183  1
  O  O324  1  0.49481834  0.38017757  0.99683601  1
  O  O325  1  0.49448608  0.88607917  0.50143468  1
  O  O326  1  0.49830404  0.87994183  0.98900991  1
  O  O327  1  0.99086207  0.38506356  0.49509834  1
  O  O328  1  0.99473775  0.38252489  1.00507836  1
  O  O329  1  0.99498987  0.88190490  0.49494410  1
  O  O330  1  0.99415409  0.88604308  1.02518322  1
  O  O331  1  0.49172899  0.50064891  0.38639503  1
  O  O332  1  0.48888447  0.48813046  0.88174351  1
  O  O333  1  0.49242263  0.99928800  0.38500397  1
  O  O334  1  0.49288765  0.99242572  0.87676627  1
  O  O335  1  0.99651948  0.49755009  0.38358730  1
  O  O336  1  1.00094088  0.50479518  0.89161125  1
  O  O337  1  1.01257741  0.98967998  0.38761332  1
  O  O338  1  0.98078380  1.00108510  0.88009466  1
  O  O339  1  0.02199030  0.02084720  0.12169932  1
  O  O340  1  0.00590422  0.00555880  0.61363163  1
  O  O341  1  0.00806145  0.50628429  0.11784762  1
  O  O342  1  0.00769856  0.50748759  0.62030559  1
  O  O343  1  0.50240309  0.00601744  0.11799267  1
  O  O344  1  0.50382878  0.00688250  0.62143433  1
  O  O345  1  0.49060776  0.49253848  0.11398191  1
  O  O346  1  0.50893258  0.50899438  0.61917332  1
  O  O347  1  0.25672228  0.36304125  0.23545837  1
  O  O348  1  0.25650535  0.38889141  0.75271438  1
  O  O349  1  0.25319991  0.88503769  0.24175962  1
  O  O350  1  0.24250641  0.88022932  0.74593796  1
  O  O351  1  0.74279825  0.38283494  0.25269155  1
  O  O352  1  0.73623826  0.37133606  0.75966031  1
  O  O353  1  0.73254101  0.86818217  0.23394649  1
  O  O354  1  0.74318427  0.87965284  0.74230453  1
  O  O355  1  0.25899597  0.12002156  0.24962809  1
  O  O356  1  0.25417099  0.12252057  0.75729646  1
  O  O357  1  0.26279971  0.62863954  0.25478709  1
  O  O358  1  0.26461706  0.61720211  0.74518006  1
  O  O359  1  0.77773809  0.12546006  0.19850079  1
  O  O360  1  0.75703514  0.12144522  0.74937575  1
  O  O361  1  0.74732940  0.61787573  0.25716358  1
  O  O362  1  0.76430048  0.62582180  0.74379117  1
  O  O363  1  0.37394457  0.11206916  0.36624114  1
  O  O364  1  0.36726643  0.12024015  0.86858704  1
  O  O365  1  0.37098293  0.61412081  0.36903456  1
  O  O366  1  0.38533999  0.61431267  0.86474271  1
  O  O367  1  0.87965530  0.10362308  0.37260299  1
  O  O368  1  0.87134325  0.11255303  0.86568158  1
  O  O369  1  0.86785765  0.62131198  0.37338532  1
  O  O370  1  0.88536247  0.62434601  0.85862499  1
  O  O371  1  0.13955188  0.38475564  0.12280354  1
  O  O372  1  0.11639776  0.38866300  0.63688057  1
  O  O373  1  0.13844520  0.88847764  0.12933378  1
  O  O374  1  0.13545511  0.88088908  0.63113156  1
  O  O375  1  0.62401684  0.37037959  0.14457106  1
  O  O376  1  0.61866855  0.38653415  0.63750886  1
  O  O377  1  0.62258455  0.87672011  0.12865742  1
  O  O378  1  0.62909796  0.88372493  0.63301350  1
  O  O379  1  0.11160294  0.24649375  0.25546799  1
  O  O380  1  0.10738179  0.24860632  0.73778830  1
  O  O381  1  0.12313761  0.75429641  0.26058516  1
  O  O382  1  0.12254185  0.75439077  0.75783184  1
  O  O383  1  0.61858534  0.25111743  0.25717378  1
  O  O384  1  0.61250850  0.25819572  0.73989597  1
  O  O385  1  0.61557339  0.75270146  0.25266242  1
  O  O386  1  0.61562606  0.76166527  0.74330809  1
  O  O387  1  0.38637113  0.23608775  0.26123080  1
  O  O388  1  0.38563075  0.24739324  0.74212893  1
  O  O389  1  0.37895038  0.74256683  0.24563017  1
  O  O390  1  0.38501874  0.74017032  0.75495276  1
  O  O391  1  0.89683831  0.26335209  0.24635676  1
  O  O392  1  0.87786056  0.24100215  0.74344587  1
  O  O393  1  0.88172164  0.75708356  0.23087317  1
  O  O394  1  0.88306412  0.74649953  0.74165838  1
  O  O395  1  0.38637924  0.50633759  0.49006500  1
  O  O396  1  0.38282732  0.49258848  0.99409707  1
  O  O397  1  0.38134798  1.00036792  0.49332509  1
  O  O398  1  0.37921218  0.99899804  0.99350593  1
  O  O399  1  0.88297202  0.49506073  0.49720254  1
  O  O400  1  0.88496235  0.49464530  1.00118157  1
  O  O401  1  0.88702155  0.99013453  0.50702172  1
  O  O402  1  0.86501728  1.00558419  0.99815397  1
  O  O403  1  0.13975682  0.00169606  0.01182957  1
  O  O404  1  0.11876813  0.00746964  0.50519878  1
  O  O405  1  0.12070090  0.50787212  0.00803030  1
  O  O406  1  0.11393155  0.49591428  0.51128920  1
  O  O407  1  0.61412127  0.00850260  0.00653246  1
  O  O408  1  0.61360449  -0.00715572  0.51305503  1
  O  O409  1  0.60850225  0.49470206  0.00437997  1
  O  O410  1  0.61881097  0.50556560  0.50682382  1
  O  O411  1  0.35961691  0.38132850  0.11613257  1
  O  O412  1  0.38515034  0.36457816  0.62826216  1
  O  O413  1  0.36540603  0.86600639  0.12408303  1
  O  O414  1  0.36037650  0.87909988  0.62952996  1
  O  O415  1  0.87268658  0.37819300  0.11277499  1
  O  O416  1  0.88062542  0.36596126  0.61514411  1
  O  O417  1  0.85246852  0.86206785  0.11674357  1
  O  O418  1  0.86907909  0.87050278  0.61343549  1
  O  O419  1  0.12597092  0.12905903  0.38836396  1
  O  O420  1  0.13745051  0.11989939  0.87024637  1
  O  O421  1  0.12691028  0.63616579  0.37275253  1
  O  O422  1  0.11896338  0.63355258  0.89081150  1
  O  O423  1  0.65273371  0.09663956  0.36687069  1
  O  O424  1  0.62463588  0.11621354  0.88893719  1
  O  O425  1  0.62763281  0.62973092  0.38242384  1
  O  O426  1  0.61868451  0.61458021  0.89480595  1
