# generated using pymatgen
data_V85Zn86O256
_symmetry_space_group_name_H-M   'P 1'
_cell_length_a   16.97592508
_cell_length_b   16.95720464
_cell_length_c   16.96486728
_cell_angle_alpha   90.15407401
_cell_angle_beta   90.02500091
_cell_angle_gamma   90.03297310
_symmetry_Int_Tables_number   1
_chemical_formula_structural   V85Zn86O256
_chemical_formula_sum   'V85 Zn86 O256'
_cell_volume   4883.55961596
_cell_formula_units_Z   1
loop_
 _symmetry_equiv_pos_site_id
 _symmetry_equiv_pos_as_xyz
  1  'x, y, z'
loop_
 _atom_site_type_symbol
 _atom_site_label
 _atom_site_symmetry_multiplicity
 _atom_site_fract_x
 _atom_site_fract_y
 _atom_site_fract_z
 _atom_site_occupancy
  V  V0  1  -0.00061552  0.62519530  0.12395535  1
  V  V1  1  0.36225970  0.50535719  0.86969829  1
  V  V2  1  0.24981831  0.37518856  0.12484844  1
  V  V3  1  0.87249215  0.36393759  0.50022569  1
  V  V4  1  0.62443843  0.37410256  0.25030904  1
  V  V5  1  0.50000799  0.24598847  0.24712542  1
  V  V6  1  0.87344140  0.87334606  0.49222828  1
  V  V7  1  0.87773725  0.49850586  0.38054574  1
  V  V8  1  0.12506987  0.50029136  0.12653181  1
  V  V9  1  0.37630739  0.24737671  0.12260843  1
  V  V10  1  0.87490668  0.49879174  0.87654552  1
  V  V11  1  0.37778451  0.12288207  0.24528194  1
  V  V12  1  0.74768722  0.75008172  0.00123231  1
  V  V13  1  0.62411090  0.49974184  0.12480881  1
  V  V14  1  -0.00553698  -0.00629555  0.50655195  1
  V  V15  1  0.12488312  0.24851603  0.37445151  1
  V  V16  1  0.12368591  0.12865622  0.00065819  1
  V  V17  1  0.37063245  0.75678775  0.12124318  1
  V  V18  1  0.11493462  0.12065303  0.51139164  1
  V  V19  1  0.87390224  0.75065921  0.12645155  1
  V  V20  1  0.74757826  0.36362486  0.62155182  1
  V  V21  1  0.37069860  -0.00119440  0.87726978  1
  V  V22  1  0.74801840  0.49863899  0.74777781  1
  V  V23  1  0.12700968  0.75196310  0.37567625  1
  V  V24  1  0.74453545  0.74885297  0.50422000  1
  V  V25  1  0.88877567  0.24475956  0.63435799  1
  V  V26  1  0.37223818  0.62458036  0.25425019  1
  V  V27  1  0.62395435  0.74953810  0.87485202  1
  V  V28  1  0.61859949  0.12990093  0.50700404  1
  V  V29  1  0.37327613  0.37562687  -0.00241411  1
  V  V30  1  0.87536684  0.62563406  0.74925392  1
  V  V31  1  0.61772472  0.00478351  0.12593389  1
  V  V32  1  0.62426009  0.62581698  -0.00048452  1
  V  V33  1  0.63317849  0.88265112  0.74866084  1
  V  V34  1  0.87448261  0.88140983  -0.00508047  1
  V  V35  1  0.50124756  0.74196507  0.74499658  1
  V  V36  1  0.49906664  0.49922334  -0.00261918  1
  V  V37  1  0.00101315  0.24826701  0.24804138  1
  V  V38  1  0.12224485  -0.00061948  0.12278671  1
  V  V39  1  0.50177642  0.75157499  0.25255145  1
  V  V40  1  0.37666148  -0.00422203  0.38579821  1
  V  V41  1  0.37345192  0.50084047  0.37716198  1
  V  V42  1  -0.00181321  0.37025663  0.86754301  1
  V  V43  1  0.23914918  -0.00815091  0.73895674  1
  V  V44  1  0.35869249  0.62156603  0.74393046  1
  V  V45  1  0.24852256  0.12424719  0.37606464  1
  V  V46  1  0.49583238  0.87841926  0.38749967  1
  V  V47  1  0.86601410  0.12048105  0.25380979  1
  V  V48  1  0.74902961  0.50027430  0.25121504  1
  V  V49  1  0.13828250  0.61580105  0.49921123  1
  V  V50  1  0.61801802  -0.00536145  0.61431321  1
  V  V51  1  0.75053063  0.10974790  0.86663092  1
  V  V52  1  0.50455885  0.51155547  0.50245161  1
  V  V53  1  0.24971176  0.50171953  0.25385718  1
  V  V54  1  0.00873977  0.75276004  0.74939771  1
  V  V55  1  0.24375469  0.37615197  0.63082099  1
  V  V56  1  0.88044306  0.11138562  0.74672868  1
  V  V57  1  0.62124637  0.37318965  0.74622347  1
  V  V58  1  0.87439865  0.24999907  0.12256009  1
  V  V59  1  0.12227590  0.25142749  0.86165868  1
  V  V60  1  0.49481495  0.00490436  0.00262692  1
  V  V61  1  -0.00024955  0.75685568  0.25761764  1
  V  V62  1  0.49703328  0.37336475  0.87200277  1
  V  V63  1  0.49981049  0.62467737  0.12516044  1
  V  V64  1  0.25378641  0.76616428  0.49867048  1
  V  V65  1  0.37748940  0.12491115  0.73716612  1
  V  V66  1  0.24718160  -0.00461803  0.24882108  1
  V  V67  1  0.62273714  0.24864654  0.87195088  1
  V  V68  1  0.74778720  0.88122482  0.12962343  1
  V  V69  1  0.50027008  0.37391070  0.37559652  1
  V  V70  1  0.00569302  0.87945151  0.87060521  1
  V  V71  1  0.87476870  0.62411543  0.25217254  1
  V  V72  1  0.49466930  0.24575788  0.73476641  1
  V  V73  1  0.74184211  0.62455695  0.38243030  1
  V  V74  1  0.13613167  0.63374007  -0.00192610  1
  V  V75  1  0.74934929  0.37447766  0.12319040  1
  V  V76  1  0.62654667  0.88082065  0.25490755  1
  V  V77  1  0.74980322  0.24914928  -0.00491123  1
  V  V78  1  0.49663672  0.87544175  0.87834285  1
  V  V79  1  0.63550516  0.24704449  0.37642113  1
  V  V80  1  0.37546130  0.36624840  0.50632820  1
  V  V81  1  0.87210499  0.75701390  0.62517475  1
  V  V82  1  0.37504699  0.76163335  0.62249309  1
  V  V83  1  0.00407371  0.61725447  0.62224130  1
  V  V84  1  0.62283444  0.51118335  0.62010992  1
  Zn  Zn85  1  0.61976306  0.74853690  0.38659852  1
  Zn  Zn86  1  -0.00415803  0.12438125  0.12167779  1
  Zn  Zn87  1  0.11882792  0.87844130  0.25453046  1
  Zn  Zn88  1  0.87580846  -0.01223636  0.36654327  1
  Zn  Zn89  1  0.74959930  0.62406100  0.87630138  1
  Zn  Zn90  1  0.26504905  0.76135748  -0.01933180  1
  Zn  Zn91  1  0.74653648  0.10686985  0.37727104  1
  Zn  Zn92  1  0.12403611  0.37551494  0.25087556  1
  Zn  Zn93  1  0.24938167  0.12509352  0.87221211  1
  Zn  Zn94  1  0.18513692  0.55726154  0.68256257  1
  Zn  Zn95  1  0.00231728  0.37461204  0.37765377  1
  Zn  Zn96  1  0.87731387  0.37497688  -0.00087516  1
  Zn  Zn97  1  0.25638860  0.24390412  0.50781099  1
  Zn  Zn98  1  0.13806939  0.74772157  0.86325868  1
  Zn  Zn99  1  0.00652655  0.49460735  0.50536385  1
  Zn  Zn100  1  0.80124971  0.93592598  0.68198536  1
  Zn  Zn101  1  -0.00494035  0.00264715  -0.00511650  1
  Zn  Zn102  1  0.00135084  0.49877820  0.00051393  1
  Zn  Zn103  1  0.12147081  0.39214646  0.74162966  1
  Zn  Zn104  1  0.24919387  0.25028415  -0.00325699  1
  Zn  Zn105  1  0.62146569  0.12510674  0.00158170  1
  Zn  Zn106  1  0.24865913  0.87581657  0.11687014  1
  Zn  Zn107  1  0.18892012  0.18541463  0.18669684  1
  Zn  Zn108  1  0.19787499  0.18924888  0.68602084  1
  Zn  Zn109  1  0.18629919  0.68639404  0.18886643  1
  Zn  Zn110  1  0.19063073  0.81170721  0.68051870  1
  Zn  Zn111  1  0.68777649  0.18748753  0.18679302  1
  Zn  Zn112  1  0.68611804  0.18159775  0.68690761  1
  Zn  Zn113  1  0.68766458  0.68898924  0.19004464  1
  Zn  Zn114  1  0.68910282  0.69089471  0.69024905  1
  Zn  Zn115  1  0.31245530  0.31353813  0.31376601  1
  Zn  Zn116  1  0.31074554  0.31162926  0.80958512  1
  Zn  Zn117  1  0.31136271  0.81294690  0.31512592  1
  Zn  Zn118  1  0.31433837  0.81329989  0.81162591  1
  Zn  Zn119  1  0.81536894  0.31245544  0.30967784  1
  Zn  Zn120  1  0.81067921  0.31036459  0.80911508  1
  Zn  Zn121  1  0.80867880  0.80925713  0.31515646  1
  Zn  Zn122  1  0.81517890  0.81025142  0.81758962  1
  Zn  Zn123  1  0.19295795  0.43252265  0.43996597  1
  Zn  Zn124  1  0.18255017  0.43842358  0.93858703  1
  Zn  Zn125  1  0.18217505  0.93895334  0.43938978  1
  Zn  Zn126  1  0.18919396  0.93434253  0.93670657  1
  Zn  Zn127  1  0.68822706  0.43544929  0.44006369  1
  Zn  Zn128  1  0.68652723  0.43608194  0.93477634  1
  Zn  Zn129  1  0.69268492  0.93761578  0.43962614  1
  Zn  Zn130  1  0.68177546  0.93472610  0.94158709  1
  Zn  Zn131  1  0.30816979  0.06153171  0.05899132  1
  Zn  Zn132  1  0.30738549  0.05970206  0.56323779  1
  Zn  Zn133  1  0.31353909  0.56322435  0.06355017  1
  Zn  Zn134  1  0.32000208  0.56047134  0.56513632  1
  Zn  Zn135  1  0.80794274  0.06446187  0.06328298  1
  Zn  Zn136  1  0.80093442  0.06536367  0.55913786  1
  Zn  Zn137  1  0.81133916  0.56294434  0.06258371  1
  Zn  Zn138  1  0.81164539  0.56004294  0.56405396  1
  Zn  Zn139  1  0.43736955  0.43508793  0.18669306  1
  Zn  Zn140  1  0.43689697  0.43997733  0.68430574  1
  Zn  Zn141  1  0.43913863  0.93781734  0.19306853  1
  Zn  Zn142  1  0.44162730  0.93922025  0.69098613  1
  Zn  Zn143  1  0.93726408  0.43562563  0.18981568  1
  Zn  Zn144  1  0.93557547  0.43469067  0.68789018  1
  Zn  Zn145  1  0.93756152  0.93822136  0.18238222  1
  Zn  Zn146  1  1.05732611  0.94278804  0.68394313  1
  Zn  Zn147  1  0.05474355  0.06001894  0.31837026  1
  Zn  Zn148  1  0.06081523  0.06620621  0.81428983  1
  Zn  Zn149  1  0.06401390  0.56838429  0.31648018  1
  Zn  Zn150  1  0.05927737  0.56501440  0.81837851  1
  Zn  Zn151  1  0.56041310  0.06132288  0.31830869  1
  Zn  Zn152  1  0.56062947  0.06261648  0.81134842  1
  Zn  Zn153  1  0.56012682  0.56181759  0.31443606  1
  Zn  Zn154  1  0.56015605  0.55993860  0.81165951  1
  Zn  Zn155  1  0.44207319  0.18311548  0.43505205  1
  Zn  Zn156  1  0.43639787  0.18416704  0.93168314  1
  Zn  Zn157  1  0.43457452  0.69037514  0.43808313  1
  Zn  Zn158  1  0.43648668  0.68412273  0.93222981  1
  Zn  Zn159  1  0.93805281  0.18560103  0.43724204  1
  Zn  Zn160  1  0.93586287  0.18415964  0.93019571  1
  Zn  Zn161  1  0.93851060  0.68503382  0.43932794  1
  Zn  Zn162  1  0.93950768  0.69298449  0.93730553  1
  Zn  Zn163  1  0.06076527  0.31420231  0.05874591  1
  Zn  Zn164  1  0.06336332  0.30990239  0.56116883  1
  Zn  Zn165  1  0.06128491  0.81546791  0.06363071  1
  Zn  Zn166  1  0.05809872  0.80585070  0.55601313  1
  Zn  Zn167  1  0.56147626  0.31154829  0.06041555  1
  Zn  Zn168  1  0.56239322  0.31681616  0.55825263  1
  Zn  Zn169  1  0.55875847  0.81557193  0.06352298  1
  Zn  Zn170  1  0.56313665  0.81105821  0.56917512  1
  O  O171  1  0.12359178  0.11852172  0.11722833  1
  O  O172  1  0.13240539  0.13070313  0.60840213  1
  O  O173  1  0.11705815  0.62048026  0.12024804  1
  O  O174  1  0.11716390  0.62249671  0.60912356  1
  O  O175  1  0.63081966  0.10899538  0.12523806  1
  O  O176  1  0.62363923  0.11766105  0.61320878  1
  O  O177  1  0.61950911  0.61981885  0.12133000  1
  O  O178  1  0.63364368  0.60977693  0.62941821  1
  O  O179  1  0.38003465  0.38395664  0.38002103  1
  O  O180  1  0.37850113  0.38158458  0.87798007  1
  O  O181  1  0.38363930  0.88398977  0.36784642  1
  O  O182  1  0.38756673  0.88668320  0.86379730  1
  O  O183  1  0.87318024  0.38078431  0.38340321  1
  O  O184  1  0.87950861  0.38206122  0.87246965  1
  O  O185  1  0.87615490  0.86736706  0.38766804  1
  O  O186  1  0.88625821  0.86804708  0.88646391  1
  O  O187  1  0.25353559  0.00601440  0.36697028  1
  O  O188  1  0.25710668  -0.00075924  0.86463874  1
  O  O189  1  0.26296636  0.49368200  0.36580782  1
  O  O190  1  0.26377441  0.49455302  0.87818339  1
  O  O191  1  0.76188845  -0.00587687  0.37250794  1
  O  O192  1  0.74446571  0.01165041  0.88075846  1
  O  O193  1  0.75704056  0.50514122  0.37187623  1
  O  O194  1  0.75775997  0.50000264  0.86740852  1
  O  O195  1  0.24704785  0.49519457  0.13466695  1
  O  O196  1  0.25035103  0.48566470  0.61791873  1
  O  O197  1  0.24100847  1.00232313  0.13432593  1
  O  O198  1  0.25113947  0.99918364  0.64025936  1
  O  O199  1  0.74386338  0.49560415  0.13092689  1
  O  O200  1  0.74433144  0.48938236  0.62951237  1
  O  O201  1  0.73796712  0.98653223  0.11946720  1
  O  O202  1  0.73018656  1.00165572  0.62465012  1
  O  O203  1  0.00123485  0.36197627  0.25413005  1
  O  O204  1  0.00227412  0.37846671  0.76267616  1
  O  O205  1  -0.00167767  0.86082671  0.24467876  1
  O  O206  1  -0.00103305  0.86886296  0.76248933  1
  O  O207  1  0.50435272  0.36696511  0.25468254  1
  O  O208  1  0.50070184  0.36631591  0.75312726  1
  O  O209  1  0.50714389  0.86588140  0.25740296  1
  O  O210  1  0.50959728  0.86508283  0.75925450  1
  O  O211  1  0.48743510  0.13346764  0.25603119  1
  O  O212  1  0.48670276  0.13072648  0.75341911  1
  O  O213  1  0.49384122  0.63223983  0.24647563  1
  O  O214  1  0.49966151  0.63982498  0.75373321  1
  O  O215  1  0.99185596  0.13705662  0.24813201  1
  O  O216  1  0.97962620  0.12027204  0.75678126  1
  O  O217  1  0.99525891  0.63211743  0.24154445  1
  O  O218  1  0.99155966  0.63233702  0.74390253  1
  O  O219  1  0.37528966  0.25351769  0.00752053  1
  O  O220  1  0.37705447  0.26168899  0.48762809  1
  O  O221  1  0.37826022  0.73900490  0.01840283  1
  O  O222  1  0.36428830  0.74397292  0.51078248  1
  O  O223  1  0.86465767  0.24947095  0.00226617  1
  O  O224  1  0.87917389  0.25718009  0.51088361  1
  O  O225  1  0.86863799  0.75770860  0.00743142  1
  O  O226  1  0.87224509  0.75493693  0.50716128  1
  O  O227  1  0.12348647  0.23654532  0.48854638  1
  O  O228  1  0.12656205  0.24121551  0.99620262  1
  O  O229  1  0.13856947  0.74219102  0.49577498  1
  O  O230  1  0.12598854  0.73680998  1.01040507  1
  O  O231  1  0.61849619  0.24046406  0.49030004  1
  O  O232  1  0.63207756  0.24720771  0.99407401  1
  O  O233  1  0.63932750  0.75225616  0.50504356  1
  O  O234  1  0.62657364  0.74572857  0.99636430  1
  O  O235  1  0.48954704  0.25556481  0.13583438  1
  O  O236  1  0.50182381  0.25490227  0.63615360  1
  O  O237  1  0.49160423  0.74599967  0.13453435  1
  O  O238  1  0.48775173  0.75207441  0.63223158  1
  O  O239  1  0.99395563  0.24985634  0.13182538  1
  O  O240  1  0.98737246  0.25128632  0.62768849  1
  O  O241  1  0.99435159  0.74218273  0.13466987  1
  O  O242  1  0.98932704  0.73891961  0.63027413  1
  O  O243  1  0.00926910  0.24855379  0.36622302  1
  O  O244  1  0.01149712  0.25737804  0.87871142  1
  O  O245  1  0.00824561  0.74172234  0.36514839  1
  O  O246  1  0.00039563  0.75646919  0.86321601  1
  O  O247  1  0.50772197  0.25469488  0.36222547  1
  O  O248  1  0.50442279  0.25523917  0.86764632  1
  O  O249  1  0.49901411  0.75576497  0.36681660  1
  O  O250  1  0.50309787  0.75755935  0.86841122  1
  O  O251  1  0.23992264  0.12353855  0.48910712  1
  O  O252  1  0.23734953  0.12754826  0.99464684  1
  O  O253  1  0.23965095  0.62646907  0.50577725  1
  O  O254  1  0.23826487  0.63006743  1.00767504  1
  O  O255  1  0.72800771  0.12265386  0.49227092  1
  O  O256  1  0.74910639  0.13419747  0.98767549  1
  O  O257  1  0.75925448  0.63286328  0.49056188  1
  O  O258  1  0.74220956  0.63187553  1.00060925  1
  O  O259  1  0.25619871  0.37425700  0.00760614  1
  O  O260  1  0.25983940  0.36893318  0.50571959  1
  O  O261  1  0.24992937  0.87073277  0.00500851  1
  O  O262  1  0.24913408  0.86476381  0.49932341  1
  O  O263  1  0.74956934  0.36484549  0.00371605  1
  O  O264  1  0.76135962  0.37859447  0.50997037  1
  O  O265  1  0.75411765  0.86903729  0.00815943  1
  O  O266  1  0.76032188  0.85981288  0.49887849  1
  O  O267  1  0.13470130  0.50215228  0.24831118  1
  O  O268  1  0.12726382  0.50294259  0.75913899  1
  O  O269  1  0.13069614  1.00308648  0.24453338  1
  O  O270  1  0.13474474  1.00544904  0.74998538  1
  O  O271  1  0.62827895  0.49424728  0.24493799  1
  O  O272  1  0.62703758  0.49271209  0.74198637  1
  O  O273  1  0.61305672  0.98751687  0.24191906  1
  O  O274  1  0.62093428  0.98759374  0.74679071  1
  O  O275  1  0.36639275  0.00782423  0.25307395  1
  O  O276  1  0.36960166  0.00871032  0.75572353  1
  O  O277  1  0.37132020  0.50498098  0.25621922  1
  O  O278  1  0.38109581  0.51395088  0.75429737  1
  O  O279  1  0.88512566  0.01787061  0.24726391  1
  O  O280  1  0.86775989  0.01297597  0.73724119  1
  O  O281  1  0.86820525  0.50292767  0.25930543  1
  O  O282  1  0.86956135  0.50684712  0.75674739  1
  O  O283  1  0.12600584  0.36103630  0.37434837  1
  O  O284  1  0.11808039  0.36355785  0.87427405  1
  O  O285  1  0.12830665  0.85837598  0.37415376  1
  O  O286  1  0.10790533  0.86528835  0.88482810  1
  O  O287  1  0.62063743  0.36765808  0.36991560  1
  O  O288  1  0.61761777  0.36988995  0.86629248  1
  O  O289  1  0.61671354  0.87362897  0.36745245  1
  O  O290  1  0.61752799  0.86946056  0.86799874  1
  O  O291  1  0.36671142  0.13342574  0.13575748  1
  O  O292  1  0.37218381  0.12021522  0.63813501  1
  O  O293  1  0.38124000  0.63030100  0.13723700  1
  O  O294  1  0.37547225  0.63122613  0.63854087  1
  O  O295  1  0.87420329  0.13177534  0.13366923  1
  O  O296  1  0.86389851  0.13822394  0.63344701  1
  O  O297  1  0.88031291  0.62913025  0.13137180  1
  O  O298  1  0.88129926  0.62900631  0.63408363  1
  O  O299  1  0.26178284  0.25601746  0.12713396  1
  O  O300  1  0.25217030  0.26575793  0.62102185  1
  O  O301  1  0.26646746  0.74946610  0.13381419  1
  O  O302  1  0.26335612  0.75194261  0.61322907  1
  O  O303  1  0.75243006  0.25415025  0.11454136  1
  O  O304  1  0.75165638  0.26142147  0.62965547  1
  O  O305  1  0.75305402  0.75880774  0.12112931  1
  O  O306  1  0.76296838  0.73810704  0.61622842  1
  O  O307  1  0.24293189  0.23878814  0.37179650  1
  O  O308  1  0.23457533  0.25099761  0.87625641  1
  O  O309  1  0.24777233  0.74963891  0.38968506  1
  O  O310  1  0.25015887  0.74605926  0.87098277  1
  O  O311  1  0.73614952  0.25193440  0.36732971  1
  O  O312  1  0.74236932  0.24809995  0.88128996  1
  O  O313  1  0.74678225  0.74016500  0.38490327  1
  O  O314  1  0.74227067  0.74702823  0.88342743  1
  O  O315  1  0.00797836  0.12225020  -0.00125517  1
  O  O316  1  0.01000713  0.12108212  0.50110910  1
  O  O317  1  0.00195922  0.62660220  0.01480992  1
  O  O318  1  0.00872885  0.62413937  0.50854395  1
  O  O319  1  0.50275390  0.11076387  -0.00658042  1
  O  O320  1  0.51845384  0.12044194  0.48810141  1
  O  O321  1  0.50513008  0.61902007  0.00504047  1
  O  O322  1  0.49572750  0.61073525  0.49313708  1
  O  O323  1  0.49218758  0.38230822  0.49318951  1
  O  O324  1  0.49325864  0.37954700  0.99346020  1
  O  O325  1  0.50444826  0.86501423  0.48556546  1
  O  O326  1  0.50454970  0.88373950  0.98601004  1
  O  O327  1  0.98905349  0.37720068  0.49825693  1
  O  O328  1  0.99654327  0.37910933  0.98699550  1
  O  O329  1  0.98989103  0.88515720  0.50246062  1
  O  O330  1  0.99027121  0.87348874  0.99190193  1
  O  O331  1  0.49301535  0.49335324  0.37985501  1
  O  O332  1  0.49244652  0.49240829  0.87931321  1
  O  O333  1  0.48796442  0.98961061  0.36859776  1
  O  O334  1  0.49276980  0.99359589  0.88073773  1
  O  O335  1  0.98682244  0.49946948  0.37356023  1
  O  O336  1  0.98733013  0.49251139  0.87763365  1
  O  O337  1  0.98811808  1.00793115  0.39303972  1
  O  O338  1  1.00415298  0.98368623  0.87571912  1
  O  O339  1  0.01139500  0.00355802  0.12163728  1
  O  O340  1  0.00209372  0.00635734  0.60643961  1
  O  O341  1  0.00379831  0.50940584  0.12776045  1
  O  O342  1  -0.00750244  0.51241140  0.62484481  1
  O  O343  1  0.50536097  -0.00957613  0.11457771  1
  O  O344  1  0.51758620  -0.00177164  0.63071016  1
  O  O345  1  0.50432943  0.50363702  0.11932173  1
  O  O346  1  0.51105964  0.49388013  0.61433212  1
  O  O347  1  0.25067267  0.38581907  0.24433418  1
  O  O348  1  0.25001253  0.37339267  0.73437581  1
  O  O349  1  0.24836318  0.88773380  0.24792511  1
  O  O350  1  0.24839478  0.88699969  0.75028018  1
  O  O351  1  0.74398510  0.38020549  0.24345867  1
  O  O352  1  0.74230500  0.37940522  0.74158045  1
  O  O353  1  0.73827416  0.86558099  0.24081744  1
  O  O354  1  0.74005301  0.86892752  0.75407625  1
  O  O355  1  0.25677391  0.11663003  0.25781077  1
  O  O356  1  0.26079527  0.11521151  0.75184207  1
  O  O357  1  0.26071571  0.61302981  0.24539715  1
  O  O358  1  0.26067676  0.62416395  0.74540656  1
  O  O359  1  0.76371607  0.12821607  0.24909891  1
  O  O360  1  0.75295697  0.12603564  0.76234408  1
  O  O361  1  0.75523435  0.62057741  0.25847001  1
  O  O362  1  0.76170644  0.62001703  0.75208866  1
  O  O363  1  0.36650013  0.11835897  0.36586817  1
  O  O364  1  0.37155331  0.11272013  0.86672391  1
  O  O365  1  0.38144202  0.61413948  0.36358508  1
  O  O366  1  0.37909767  0.61758273  0.85916550  1
  O  O367  1  0.87047721  0.13304000  0.35962271  1
  O  O368  1  0.86017373  0.12810456  0.86146191  1
  O  O369  1  0.86724353  0.61604054  0.37172086  1
  O  O370  1  0.87709078  0.61780375  0.86578792  1
  O  O371  1  0.13070620  0.38231073  0.12656296  1
  O  O372  1  0.13664578  0.37325044  0.62303151  1
  O  O373  1  0.12519710  0.88749284  0.13018240  1
  O  O374  1  0.11785201  0.87184890  0.62246369  1
  O  O375  1  0.62890090  0.37990666  0.12989680  1
  O  O376  1  0.63239675  0.38022245  0.62801485  1
  O  O377  1  0.62933765  0.88081269  0.13317569  1
  O  O378  1  0.62408883  0.88431890  0.63428487  1
  O  O379  1  0.11841298  0.24814445  0.25645360  1
  O  O380  1  0.12617415  0.24728570  0.76159570  1
  O  O381  1  0.11826526  0.74830947  0.25825033  1
  O  O382  1  0.11165962  0.74630539  0.74478800  1
  O  O383  1  0.61720245  0.25340060  0.25318609  1
  O  O384  1  0.61480073  0.25272077  0.75266392  1
  O  O385  1  0.61346360  0.75812320  0.24993829  1
  O  O386  1  0.61900599  0.75741774  0.75323970  1
  O  O387  1  0.38084663  0.24389041  0.24454247  1
  O  O388  1  0.38005720  0.23356246  0.75609973  1
  O  O389  1  0.38278571  0.74219523  0.24641926  1
  O  O390  1  0.37969479  0.74074841  0.73964949  1
  O  O391  1  0.88160346  0.24308965  0.24301755  1
  O  O392  1  0.87250357  0.24398904  0.73799325  1
  O  O393  1  0.88070349  0.74403951  0.24701298  1
  O  O394  1  0.88052415  0.74269693  0.74389163  1
  O  O395  1  0.38288059  0.49317603  0.49121904  1
  O  O396  1  0.38033360  0.49740418  0.99231210  1
  O  O397  1  0.36680060  1.00454388  0.48433023  1
  O  O398  1  0.38069155  1.00460939  0.98927630  1
  O  O399  1  0.87618023  0.49075635  0.49211391  1
  O  O400  1  0.87309148  0.49969073  0.98779394  1
  O  O401  1  0.88063737  0.99072351  0.50632222  1
  O  O402  1  0.87525142  0.98612365  1.00918969  1
  O  O403  1  0.12473429  0.01003520  0.00756656  1
  O  O404  1  0.11285499  0.01229662  0.49260294  1
  O  O405  1  0.12302068  0.51356021  0.00795009  1
  O  O406  1  0.12422114  0.51265809  0.48643389  1
  O  O407  1  0.61405469  0.00030824  0.00921302  1
  O  O408  1  0.62179852  0.00293840  0.50920958  1
  O  O409  1  0.61967005  0.50408072  0.00478217  1
  O  O410  1  0.61649844  0.49350902  0.50725601  1
  O  O411  1  0.37084581  0.36737656  0.11872994  1
  O  O412  1  0.36711534  0.38071765  0.61247396  1
  O  O413  1  0.37732590  0.85867242  0.13266393  1
  O  O414  1  0.37774138  0.86049822  0.63207471  1
  O  O415  1  0.86700337  0.36924100  0.12295124  1
  O  O416  1  0.86866188  0.36328754  0.62142041  1
  O  O417  1  0.86523647  0.87004986  0.12035199  1
  O  O418  1  0.87170797  0.86159569  0.61943744  1
  O  O419  1  0.13296487  0.13079900  0.37738191  1
  O  O420  1  0.12264266  0.13817370  0.88138149  1
  O  O421  1  0.12332766  0.63722831  0.38936436  1
  O  O422  1  0.11345102  0.63116997  0.89678756  1
  O  O423  1  0.62748270  0.13262176  0.37620237  1
  O  O424  1  0.63630572  0.13001832  0.87316992  1
  O  O425  1  0.63752611  0.62628469  0.37015689  1
  O  O426  1  0.62487033  0.63039191  0.88158901  1
