# generated using pymatgen
data_V85Zn86O256
_symmetry_space_group_name_H-M   'P 1'
_cell_length_a   16.95687435
_cell_length_b   16.96122873
_cell_length_c   16.95330418
_cell_angle_alpha   90.08148343
_cell_angle_beta   89.95568857
_cell_angle_gamma   90.05580735
_symmetry_Int_Tables_number   1
_chemical_formula_structural   V85Zn86O256
_chemical_formula_sum   'V85 Zn86 O256'
_cell_volume   4875.92136028
_cell_formula_units_Z   1
loop_
 _symmetry_equiv_pos_site_id
 _symmetry_equiv_pos_as_xyz
  1  'x, y, z'
loop_
 _atom_site_type_symbol
 _atom_site_label
 _atom_site_symmetry_multiplicity
 _atom_site_fract_x
 _atom_site_fract_y
 _atom_site_fract_z
 _atom_site_occupancy
  V  V0  1  -0.00230897  0.87093124  0.37435157  1
  V  V1  1  0.12273760  0.62521327  0.49895467  1
  V  V2  1  0.62082753  0.37460770  0.25566587  1
  V  V3  1  0.87877834  0.24013145  0.62451904  1
  V  V4  1  0.00408786  0.50021099  0.01109384  1
  V  V5  1  0.75659599  0.62279163  0.86980665  1
  V  V6  1  0.62060620  0.49741525  0.61892469  1
  V  V7  1  -0.00435960  0.64176743  0.12895225  1
  V  V8  1  0.00243223  0.24429847  0.74639848  1
  V  V9  1  0.25133805  0.62484267  0.87673025  1
  V  V10  1  0.62674905  0.24403166  0.37262461  1
  V  V11  1  0.87819090  0.37534148  -0.00018927  1
  V  V12  1  0.24534492  0.87787888  0.62589963  1
  V  V13  1  0.74055764  0.74628840  0.50385569  1
  V  V14  1  0.25119668  0.37340300  0.60823474  1
  V  V15  1  0.37938730  0.75168261  0.13107974  1
  V  V16  1  0.25114413  0.87965955  0.12987767  1
  V  V17  1  0.87534613  0.64180967  0.24698918  1
  V  V18  1  0.87063348  0.00922715  0.37012046  1
  V  V19  1  0.12734375  0.12710214  0.00012309  1
  V  V20  1  0.50625110  0.87384714  0.87094791  1
  V  V21  1  0.74662195  0.36897447  0.62892884  1
  V  V22  1  0.12371593  0.12770542  0.50547172  1
  V  V23  1  0.12442832  0.49961516  0.62342087  1
  V  V24  1  -0.00213813  0.87928988  0.87620787  1
  V  V25  1  0.74968672  0.49935286  0.24993131  1
  V  V26  1  0.37455817  0.87488473  0.00018050  1
  V  V27  1  0.74981528  -0.00589198  0.75326723  1
  V  V28  1  0.12660084  0.74905575  0.87709228  1
  V  V29  1  0.37837894  0.62332236  0.75012223  1
  V  V30  1  0.12657371  0.62119310  0.00961227  1
  V  V31  1  0.49927476  0.62544014  0.12954959  1
  V  V32  1  0.62610394  0.75157173  0.87111054  1
  V  V33  1  -0.00046521  0.00310972  0.51006686  1
  V  V34  1  0.24757694  0.74516279  0.49590174  1
  V  V35  1  0.87677483  0.24865741  0.12762898  1
  V  V36  1  0.87453051  0.37322129  0.49839448  1
  V  V37  1  -0.00444776  0.74204601  0.75235490  1
  V  V38  1  -0.00050685  0.25071334  0.25254439  1
  V  V39  1  0.25135606  0.38557606  0.12992049  1
  V  V40  1  0.87692515  0.87081232  0.00662339  1
  V  V41  1  0.12555783  0.87484968  0.75079093  1
  V  V42  1  0.61902819  0.75172374  0.35882440  1
  V  V43  1  0.12443600  0.87578800  0.25270536  1
  V  V44  1  0.12725383  0.37424458  0.74756864  1
  V  V45  1  0.61555688  -0.00266430  0.63231984  1
  V  V46  1  0.87222724  0.50068056  0.37527751  1
  V  V47  1  0.75156174  0.23892377  0.49446847  1
  V  V48  1  0.50239242  0.00456288  0.00289942  1
  V  V49  1  0.49602044  0.25289097  0.25260878  1
  V  V50  1  0.74745682  0.62594371  0.37546754  1
  V  V51  1  0.74257851  0.48781166  0.75634398  1
  V  V52  1  0.12233236  0.74869469  0.37355638  1
  V  V53  1  0.87286318  0.74139339  0.63125241  1
  V  V54  1  0.37576994  0.87581716  0.49858475  1
  V  V55  1  0.13039507  0.00344728  0.13242333  1
  V  V56  1  0.25913213  0.25910251  0.00030262  1
  V  V57  1  0.87780709  0.11882367  0.75571461  1
  V  V58  1  0.38246088  0.50594559  0.38111845  1
  V  V59  1  0.00008298  0.12750135  0.13034632  1
  V  V60  1  0.12802775  0.25127242  0.87292851  1
  V  V61  1  0.51607846  0.25139559  0.75227412  1
  V  V62  1  -0.00346458  0.50027131  0.50079463  1
  V  V63  1  0.61790603  0.12045578  0.50097091  1
  V  V64  1  0.39855656  0.37604489  0.49418094  1
  V  V65  1  0.37649654  0.74760574  0.62666787  1
  V  V66  1  0.36901923  0.62504163  0.25316886  1
  V  V67  1  0.12989482  0.25266900  0.37709670  1
  V  V68  1  0.36594230  0.12340124  0.24500126  1
  V  V69  1  0.87165844  0.87343591  0.50615586  1
  V  V70  1  0.61956631  0.61933568  -0.00231874  1
  V  V71  1  0.87949748  0.50315974  0.86928732  1
  V  V72  1  0.62374838  0.12641772  -0.00142309  1
  V  V73  1  0.37521099  0.00135869  0.87260687  1
  V  V74  1  0.75757426  0.74627735  0.00437347  1
  V  V75  1  0.37942250  0.24376324  0.62034439  1
  V  V76  1  0.74906300  0.11911223  0.87473969  1
  V  V77  1  0.25521504  0.12668847  0.87198136  1
  V  V78  1  0.50214161  0.87381529  0.36290205  1
  V  V79  1  0.25124030  0.49921195  0.74792564  1
  V  V80  1  0.24672577  0.11886397  0.37452918  1
  V  V81  1  0.61940463  0.49689888  0.12276486  1
  V  V82  1  0.38425534  0.48900055  0.88528503  1
  V  V83  1  -0.00458352  0.00196653  -0.00198887  1
  V  V84  1  0.74742456  0.24971140  -0.00668469  1
  Zn  Zn85  1  0.53134579  0.37185199  0.87635148  1
  Zn  Zn86  1  0.50462844  0.12340637  0.12992395  1
  Zn  Zn87  1  0.38468635  0.12161035  0.73790827  1
  Zn  Zn88  1  0.80695241  0.81559169  0.16767741  1
  Zn  Zn89  1  0.24217820  0.50863160  0.25820499  1
  Zn  Zn90  1  0.36754967  -0.00459266  0.37048639  1
  Zn  Zn91  1  0.24860984  0.00181573  0.74973000  1
  Zn  Zn92  1  0.12021889  0.38655111  0.24311029  1
  Zn  Zn93  1  0.50786371  0.74979303  0.74790470  1
  Zn  Zn94  1  0.73948324  0.86753305  0.63907924  1
  Zn  Zn95  1  0.66447749  0.93549903  0.19102724  1
  Zn  Zn96  1  0.49676706  0.61519372  0.61982294  1
  Zn  Zn97  1  0.25046925  0.74960543  0.00207923  1
  Zn  Zn98  1  -0.00546940  0.61934733  0.63284540  1
  Zn  Zn99  1  0.00496423  0.37631836  0.87523954  1
  Zn  Zn100  1  0.60950951  0.61530035  0.49164486  1
  Zn  Zn101  1  0.49219833  0.00464047  0.50579636  1
  Zn  Zn102  1  0.70862941  0.05956125  0.31029089  1
  Zn  Zn103  1  0.38293073  0.26044315  0.11547110  1
  Zn  Zn104  1  0.00116168  0.37788805  0.37318895  1
  Zn  Zn105  1  0.11903762  0.01020621  0.63116579  1
  Zn  Zn106  1  0.74920745  0.37437773  0.12478365  1
  Zn  Zn107  1  0.18826221  0.19890643  0.18681094  1
  Zn  Zn108  1  0.19622238  0.19256966  0.68449896  1
  Zn  Zn109  1  0.18743935  0.69147754  0.18712929  1
  Zn  Zn110  1  0.18678761  0.68716044  0.68774965  1
  Zn  Zn111  1  0.68638694  0.18663798  0.17852423  1
  Zn  Zn112  1  0.68933574  0.17830522  0.68355007  1
  Zn  Zn113  1  0.68560639  0.68106360  0.18802527  1
  Zn  Zn114  1  0.68888920  0.67690912  0.68847796  1
  Zn  Zn115  1  0.31096892  0.31546003  0.31583696  1
  Zn  Zn116  1  0.31616380  0.31208216  0.80355737  1
  Zn  Zn117  1  0.30954628  0.81094820  0.31114811  1
  Zn  Zn118  1  0.31307637  0.81192922  0.81295362  1
  Zn  Zn119  1  0.81060501  0.31290814  0.31142202  1
  Zn  Zn120  1  0.81444860  0.31022911  0.81459744  1
  Zn  Zn121  1  0.79721375  0.82706017  0.32821338  1
  Zn  Zn122  1  0.81500465  0.81341371  0.82065659  1
  Zn  Zn123  1  0.18748175  0.44538538  0.42515332  1
  Zn  Zn124  1  0.19307584  0.43874692  0.93710703  1
  Zn  Zn125  1  0.18582544  0.94043029  0.44004739  1
  Zn  Zn126  1  0.18634714  0.93950999  0.94171494  1
  Zn  Zn127  1  0.68890196  0.43076468  0.43807774  1
  Zn  Zn128  1  0.68889362  0.43397538  0.94153170  1
  Zn  Zn129  1  0.68381147  0.93389205  0.44270969  1
  Zn  Zn130  1  0.67011287  0.91779325  0.98732463  1
  Zn  Zn131  1  0.31450626  0.06660997  0.05996735  1
  Zn  Zn132  1  0.30416837  0.06318272  0.55594343  1
  Zn  Zn133  1  0.31435945  0.56044516  0.06316386  1
  Zn  Zn134  1  0.31255358  0.55955930  0.55810616  1
  Zn  Zn135  1  0.81382380  0.06418527  0.06428640  1
  Zn  Zn136  1  0.80762120  0.05669544  0.56623189  1
  Zn  Zn137  1  0.81273764  0.56370400  0.06399360  1
  Zn  Zn138  1  0.80675807  0.55995524  0.56473293  1
  Zn  Zn139  1  0.43407751  0.43899500  0.18899534  1
  Zn  Zn140  1  0.43800486  0.42895664  0.69129329  1
  Zn  Zn141  1  0.43783614  0.94238540  0.18711224  1
  Zn  Zn142  1  0.43620742  0.93405263  0.68938249  1
  Zn  Zn143  1  0.93670676  0.43966570  0.18996480  1
  Zn  Zn144  1  0.93637126  0.43060347  0.68666936  1
  Zn  Zn145  1  0.94190103  0.94078923  0.18943566  1
  Zn  Zn146  1  0.93460535  0.93196845  0.69051811  1
  Zn  Zn147  1  0.05717714  0.06179661  0.31774621  1
  Zn  Zn148  1  0.06560831  0.06380985  0.81268530  1
  Zn  Zn149  1  0.05580559  0.56643211  0.31071047  1
  Zn  Zn150  1  0.06644093  0.56046292  0.81765512  1
  Zn  Zn151  1  0.54287661  0.06287573  0.31985479  1
  Zn  Zn152  1  0.56310863  0.07245774  0.81364271  1
  Zn  Zn153  1  0.55792994  0.56254885  0.31200639  1
  Zn  Zn154  1  0.56448314  0.55670816  0.80981199  1
  Zn  Zn155  1  0.43445088  0.19063144  0.43330685  1
  Zn  Zn156  1  0.44414698  0.19619808  0.93129561  1
  Zn  Zn157  1  0.44063965  0.68921523  0.43768114  1
  Zn  Zn158  1  0.43769344  0.68654758  0.93975272  1
  Zn  Zn159  1  0.94108666  0.18500946  0.43774119  1
  Zn  Zn160  1  0.93868341  0.18747643  0.93510509  1
  Zn  Zn161  1  0.93482847  0.68607021  0.44025099  1
  Zn  Zn162  1  0.94144582  0.68624343  0.93920332  1
  Zn  Zn163  1  0.06946026  0.31507212  0.06243451  1
  Zn  Zn164  1  0.06166759  0.31253967  0.56048504  1
  Zn  Zn165  1  0.06508571  0.81347534  0.06237553  1
  Zn  Zn166  1  0.05793783  0.81209984  0.56486580  1
  Zn  Zn167  1  0.55953671  0.31429488  0.06154482  1
  Zn  Zn168  1  0.56507251  0.30700142  0.56578410  1
  Zn  Zn169  1  0.56250439  0.80927789  0.06671542  1
  Zn  Zn170  1  0.55984003  0.81468398  0.56179669  1
  O  O171  1  0.12006155  0.12153798  0.12179412  1
  O  O172  1  0.13592580  0.12705371  0.61166455  1
  O  O173  1  0.11662170  0.63139530  0.11659993  1
  O  O174  1  0.12210640  0.61942412  0.61594956  1
  O  O175  1  0.62054865  0.12871528  0.10420007  1
  O  O176  1  0.62875915  0.10942524  0.61248103  1
  O  O177  1  0.61682259  0.61814617  0.11932806  1
  O  O178  1  0.62602790  0.60776204  0.62116665  1
  O  O179  1  0.37626639  0.37854958  0.39014840  1
  O  O180  1  0.36578981  0.39064959  0.86990360  1
  O  O181  1  0.38077612  0.87091806  0.38142188  1
  O  O182  1  0.38037173  0.88231307  0.87980103  1
  O  O183  1  0.87376175  0.38143407  0.38157030  1
  O  O184  1  0.87853013  0.38173860  0.88630882  1
  O  O185  1  0.88158140  0.87758882  0.38948985  1
  O  O186  1  0.89242407  0.87304643  0.88636597  1
  O  O187  1  0.24761412  0.01161721  0.37298691  1
  O  O188  1  0.25795879  0.00788025  0.87740694  1
  O  O189  1  0.27326334  0.49662430  0.37322626  1
  O  O190  1  0.25930564  0.50729693  0.86771367  1
  O  O191  1  0.76497668  -0.00628902  0.38387059  1
  O  O192  1  0.74907574  0.01418195  0.86457376  1
  O  O193  1  0.75216875  0.50568490  0.37062750  1
  O  O194  1  0.76175227  0.50538835  0.87246942  1
  O  O195  1  0.25243226  0.48903952  0.12789058  1
  O  O196  1  0.24384714  0.49353473  0.62750917  1
  O  O197  1  0.24035513  0.99392711  0.11881242  1
  O  O198  1  0.24780008  0.98713473  0.62607966  1
  O  O199  1  0.73828794  0.50099980  0.13176705  1
  O  O200  1  0.74803671  0.48806152  0.63571729  1
  O  O201  1  0.75306426  1.03437160  0.15713128  1
  O  O202  1  0.74016851  0.99430308  0.63610104  1
  O  O203  1  0.00080991  0.36455402  0.25119630  1
  O  O204  1  0.00720493  0.36279349  0.75155038  1
  O  O205  1  0.01152474  0.87835338  0.26303781  1
  O  O206  1  0.00464333  0.86794809  0.75962101  1
  O  O207  1  0.51124966  0.36613386  0.24507993  1
  O  O208  1  0.49678313  0.35711444  0.75319642  1
  O  O209  1  0.49399109  0.87907898  0.26379813  1
  O  O210  1  0.49616831  0.87105177  0.76656659  1
  O  O211  1  0.48478802  0.13541263  0.25101256  1
  O  O212  1  0.49675891  0.13996736  0.75087225  1
  O  O213  1  0.48934632  0.62400846  0.23660796  1
  O  O214  1  0.48951128  0.62649409  0.74285576  1
  O  O215  1  1.00477097  0.13404315  0.23873320  1
  O  O216  1  0.99377047  0.13423245  0.75484449  1
  O  O217  1  0.98726412  0.62578682  0.24168620  1
  O  O218  1  1.00533639  0.63799669  0.75347655  1
  O  O219  1  0.36256686  0.24340221  -0.00262128  1
  O  O220  1  0.38333747  0.26481084  0.50775819  1
  O  O221  1  0.37335624  0.75575422  0.01144082  1
  O  O222  1  0.36439197  0.75557736  0.50655746  1
  O  O223  1  0.87425570  0.25814932  0.00610728  1
  O  O224  1  0.87036672  0.24968803  0.50559582  1
  O  O225  1  0.86914620  0.75580780  -0.00455880  1
  O  O226  1  0.86615061  0.75526248  0.50881035  1
  O  O227  1  0.11144809  0.23850074  0.48794436  1
  O  O228  1  0.13455824  0.24534838  0.99229667  1
  O  O229  1  0.12912437  0.74547636  0.49625665  1
  O  O230  1  0.12600953  0.73994497  0.99504764  1
  O  O231  1  0.63173167  0.24158157  0.49329404  1
  O  O232  1  0.64241588  0.24556646  1.00458625  1
  O  O233  1  0.63392131  0.74847835  0.50080639  1
  O  O234  1  0.63552520  0.73656086  0.99053593  1
  O  O235  1  0.49901799  0.24629893  0.13848049  1
  O  O236  1  0.48591862  0.25423007  0.63023170  1
  O  O237  1  0.48986938  0.74115120  0.12113653  1
  O  O238  1  0.48418965  0.75511909  0.62907248  1
  O  O239  1  0.99808299  0.24556029  0.13093446  1
  O  O240  1  0.99031742  0.25383200  0.63437550  1
  O  O241  1  0.99878703  0.74141426  0.12190249  1
  O  O242  1  0.99081833  0.74865554  0.63542532  1
  O  O243  1  0.00438952  0.24857303  0.36446167  1
  O  O244  1  0.00843795  0.25157164  0.86519018  1
  O  O245  1  0.00841756  0.76185273  0.38598151  1
  O  O246  1  0.00581158  0.75750027  0.87017224  1
  O  O247  1  0.51579468  0.24523798  0.36486384  1
  O  O248  1  0.50765615  0.25105332  0.85777253  1
  O  O249  1  0.50563973  0.76352765  0.37733418  1
  O  O250  1  0.50838048  0.75578998  0.87633879  1
  O  O251  1  0.23619165  0.12362788  0.48645759  1
  O  O252  1  0.24601689  0.13283816  0.99061220  1
  O  O253  1  0.23824302  0.63584152  0.50573514  1
  O  O254  1  0.24098102  0.62503122  0.99771320  1
  O  O255  1  0.74262672  0.13416147  0.50467482  1
  O  O256  1  0.74672916  0.12884044  0.99300548  1
  O  O257  1  0.74993033  0.63479672  0.49371425  1
  O  O258  1  0.74492559  0.62793156  0.98948065  1
  O  O259  1  0.24570650  0.36770581  0.01079148  1
  O  O260  1  0.24897218  0.38125908  0.50779354  1
  O  O261  1  0.25507583  0.87533167  0.01196838  1
  O  O262  1  0.25431113  0.86692126  0.50671321  1
  O  O263  1  0.76187844  0.36728070  0.00267434  1
  O  O264  1  0.75593785  0.36021584  0.50756508  1
  O  O265  1  0.76808361  0.86133915  -0.00816394  1
  O  O266  1  0.75773022  0.86220885  0.50155451  1
  O  O267  1  0.13138359  0.49453533  0.27604024  1
  O  O268  1  0.13008554  0.49519832  0.74413144  1
  O  O269  1  0.11787549  0.99322969  0.24028362  1
  O  O270  1  0.12751743  0.99231569  0.74736643  1
  O  O271  1  0.62828571  0.49299199  0.24475895  1
  O  O272  1  0.63812051  0.50340103  0.73501713  1
  O  O273  1  0.62020593  1.01239032  0.25765552  1
  O  O274  1  0.63211570  1.00882696  0.73878079  1
  O  O275  1  0.37764634  0.01922890  0.25133956  1
  O  O276  1  0.37220810  0.00216526  0.76002305  1
  O  O277  1  0.37210622  0.50956490  0.25854998  1
  O  O278  1  0.36997657  0.50918747  0.75001719  1
  O  O279  1  0.88467373  -0.00653374  0.27196242  1
  O  O280  1  0.86721281  0.01124424  0.74050904  1
  O  O281  1  0.86727893  0.50502009  0.25671180  1
  O  O282  1  0.86794668  0.48969697  0.76345087  1
  O  O283  1  0.12133814  0.36094296  0.37925592  1
  O  O284  1  0.12828360  0.36943780  0.86605376  1
  O  O285  1  0.11781397  0.87090515  0.37209739  1
  O  O286  1  0.11802247  0.87004945  0.87329163  1
  O  O287  1  0.63093680  0.36281755  0.36362389  1
  O  O288  1  0.63740966  0.39984803  0.85278911  1
  O  O289  1  0.60929593  0.86752573  0.38159990  1
  O  O290  1  0.61666736  0.86200022  0.89075816  1
  O  O291  1  0.37309994  0.13173095  0.13758177  1
  O  O292  1  0.36672292  0.14021289  0.61556071  1
  O  O293  1  0.38145331  0.63167145  0.12929739  1
  O  O294  1  0.37003425  0.63233444  0.63224550  1
  O  O295  1  0.89184995  0.13826135  0.11360785  1
  O  O296  1  0.86827460  0.13507212  0.63411715  1
  O  O297  1  0.88167255  0.62246875  0.13523745  1
  O  O298  1  0.87380673  0.63689799  0.62289716  1
  O  O299  1  0.25507649  0.25723591  0.11399996  1
  O  O300  1  0.26592092  0.26374060  0.62643467  1
  O  O301  1  0.25845283  0.76322520  0.12357259  1
  O  O302  1  0.25614538  0.75775396  0.61772827  1
  O  O303  1  0.76337837  0.24996228  0.11444512  1
  O  O304  1  0.75806037  0.25248969  0.61716448  1
  O  O305  1  0.74792838  0.73682770  0.10852313  1
  O  O306  1  0.75397471  0.74927563  0.62256028  1
  O  O307  1  0.23568774  0.24009410  0.36970283  1
  O  O308  1  0.24857595  0.24442923  0.87822864  1
  O  O309  1  0.23748952  0.75777296  0.38732659  1
  O  O310  1  0.24532148  0.74363175  0.87817209  1
  O  O311  1  0.74229450  0.25050656  0.38321446  1
  O  O312  1  0.76161619  0.23886076  0.88665503  1
  O  O313  1  0.73675693  0.74638541  0.38551300  1
  O  O314  1  0.74675220  0.74011111  0.88167277  1
  O  O315  1  0.00710210  0.12010527  0.00552186  1
  O  O316  1  0.00948010  0.11293220  0.49671369  1
  O  O317  1  0.00616663  0.61926311  0.00924874  1
  O  O318  1  0.00650929  0.61994592  0.50590231  1
  O  O319  1  0.50679381  0.12093735  -0.00548034  1
  O  O320  1  0.51275437  0.12269347  0.48951687  1
  O  O321  1  0.51203466  0.62822040  0.00957608  1
  O  O322  1  0.49885356  0.62767659  0.50853368  1
  O  O323  1  0.49696277  0.37646460  0.49973630  1
  O  O324  1  0.49924743  0.35952054  0.98339594  1
  O  O325  1  0.48394291  0.87340677  0.49638791  1
  O  O326  1  0.49282008  0.88406450  0.99035380  1
  O  O327  1  0.99115702  0.38194623  0.49885754  1
  O  O328  1  0.99555555  0.38227583  0.99983987  1
  O  O329  1  0.99134139  0.88015772  0.49512329  1
  O  O330  1  0.99811457  0.88218285  0.99522664  1
  O  O331  1  0.48344280  0.49630940  0.36681235  1
  O  O332  1  0.48591780  0.49555815  0.86499483  1
  O  O333  1  0.49058571  0.98343994  0.38539810  1
  O  O334  1  0.49199306  0.99510761  0.87923236  1
  O  O335  1  0.98865448  0.50040504  0.38406284  1
  O  O336  1  0.99339431  0.49987650  0.88555196  1
  O  O337  1  0.99148393  0.98969226  0.38822805  1
  O  O338  1  1.01023674  0.99218067  0.88775052  1
  O  O339  1  0.00922449  0.00962366  0.11933159  1
  O  O340  1  0.00057728  -0.00951685  0.61438562  1
  O  O341  1  -0.00314445  0.50707698  0.11440414  1
  O  O342  1  0.00465848  0.49917113  0.62062693  1
  O  O343  1  0.48994086  0.00541332  0.10701997  1
  O  O344  1  0.51037386  -0.00324658  0.62646094  1
  O  O345  1  0.51163497  0.50807023  0.12948960  1
  O  O346  1  0.51893110  0.49105505  0.63113018  1
  O  O347  1  0.24741988  0.37362197  0.23885134  1
  O  O348  1  0.24501517  0.38106395  0.73702893  1
  O  O349  1  0.23980112  0.87609196  0.24083652  1
  O  O350  1  0.24476764  0.87404644  0.74159828  1
  O  O351  1  0.73961264  0.37980501  0.24611643  1
  O  O352  1  0.75834898  0.37642197  0.73925774  1
  O  O353  1  0.74923806  0.87568797  0.24170699  1
  O  O354  1  0.75748091  0.88857184  0.75630625  1
  O  O355  1  0.26042361  0.13403271  0.25523386  1
  O  O356  1  0.25467921  0.12495180  0.76190451  1
  O  O357  1  0.26400537  0.62642331  0.24226170  1
  O  O358  1  0.25713696  0.62021339  0.75485750  1
  O  O359  1  0.76057427  0.10072572  0.21317527  1
  O  O360  1  0.75830217  0.11938941  0.75631920  1
  O  O361  1  0.75634768  0.61886455  0.25601643  1
  O  O362  1  0.74966937  0.61010206  0.76418944  1
  O  O363  1  0.36378487  0.12582716  0.36742346  1
  O  O364  1  0.36786808  0.11590917  0.87655260  1
  O  O365  1  0.38066593  0.61722146  0.36729812  1
  O  O366  1  0.37232758  0.61979967  0.86598825  1
  O  O367  1  0.87777948  0.10885247  0.37978034  1
  O  O368  1  0.86915737  0.12737210  0.86366535  1
  O  O369  1  0.86833065  0.62228112  0.36740626  1
  O  O370  1  0.86858557  0.61457970  0.88255231  1
  O  O371  1  0.14205983  0.37003559  0.12808369  1
  O  O372  1  0.13185030  0.37900930  0.62682544  1
  O  O373  1  0.13029639  0.88220223  0.13278929  1
  O  O374  1  0.13366688  0.87174622  0.63028170  1
  O  O375  1  0.62656361  0.38240506  0.13363135  1
  O  O376  1  0.63935796  0.38177831  0.61778925  1
  O  O377  1  0.63710378  0.88503120  0.09485638  1
  O  O378  1  0.62515606  0.89049399  0.62078233  1
  O  O379  1  0.11427807  0.25184724  0.25950531  1
  O  O380  1  0.12008936  0.25292876  0.75140300  1
  O  O381  1  0.13051585  0.76096450  0.26319928  1
  O  O382  1  0.11696212  0.75539313  0.75597811  1
  O  O383  1  0.62245269  0.25285819  0.25397038  1
  O  O384  1  0.61476833  0.24750055  0.73218291  1
  O  O385  1  0.62600287  0.74824469  0.25952114  1
  O  O386  1  0.62776787  0.74087166  0.76591038  1
  O  O387  1  0.38424937  0.24413230  0.25664481  1
  O  O388  1  0.37966470  0.24758548  0.73235159  1
  O  O389  1  0.37063430  0.74390194  0.23863461  1
  O  O390  1  0.37264686  0.73984455  0.74225846  1
  O  O391  1  0.88286945  0.25616913  0.23716491  1
  O  O392  1  0.88295272  0.24158494  0.74385672  1
  O  O393  1  0.86181196  0.74221123  0.25378809  1
  O  O394  1  0.88375872  0.75699213  0.74393166  1
  O  O395  1  0.37818505  0.49104897  0.49155139  1
  O  O396  1  0.37578708  0.50691716  0.98376021  1
  O  O397  1  0.37084978  0.98710305  0.49885619  1
  O  O398  1  0.38076539  0.99720709  0.98964944  1
  O  O399  1  0.87552128  0.49470725  0.49640654  1
  O  O400  1  0.88245798  0.49259928  0.99454990  1
  O  O401  1  0.87943687  0.99085759  0.49897080  1
  O  O402  1  0.88873644  0.99257770  1.00804407  1
  O  O403  1  0.11649971  0.00536829  0.01219184  1
  O  O404  1  0.11589175  0.00747819  0.50341865  1
  O  O405  1  0.11587810  0.51108248  -0.00728758  1
  O  O406  1  0.11914949  0.50876299  0.50174399  1
  O  O407  1  0.61120191  0.01367089  -0.01273514  1
  O  O408  1  0.62321084  0.00546904  0.50988962  1
  O  O409  1  0.63430558  0.51014787  0.01154284  1
  O  O410  1  0.63727061  0.49954437  0.51384773  1
  O  O411  1  0.36040419  0.37383193  0.12972215  1
  O  O412  1  0.37075129  0.37354173  0.60906662  1
  O  O413  1  0.36963726  0.87114610  0.12344491  1
  O  O414  1  0.36547721  0.86728433  0.61968040  1
  O  O415  1  0.87655871  0.36801475  0.11461811  1
  O  O416  1  0.86668933  0.36200576  0.61887040  1
  O  O417  1  0.88777710  0.87416071  0.11280962  1
  O  O418  1  0.87137742  0.86342656  0.61740698  1
  O  O419  1  0.12841791  0.13042948  0.37971749  1
  O  O420  1  0.13642412  0.13031731  0.87915706  1
  O  O421  1  0.11465238  0.63849750  0.38767957  1
  O  O422  1  0.13128366  0.62992723  0.88536112  1
  O  O423  1  0.63204616  0.13048503  0.38023204  1
  O  O424  1  0.63781511  0.12930884  0.88398885  1
  O  O425  1  0.62759845  0.63332263  0.37449051  1
  O  O426  1  0.63232799  0.62641676  0.88156182  1
