# generated using pymatgen
data_V85Zn86O256
_symmetry_space_group_name_H-M   'P 1'
_cell_length_a   16.94973051
_cell_length_b   16.95218923
_cell_length_c   16.95255197
_cell_angle_alpha   89.81295198
_cell_angle_beta   89.86555207
_cell_angle_gamma   89.99843401
_symmetry_Int_Tables_number   1
_chemical_formula_structural   V85Zn86O256
_chemical_formula_sum   'V85 Zn86 O256'
_cell_volume   4871.02281274
_cell_formula_units_Z   1
loop_
 _symmetry_equiv_pos_site_id
 _symmetry_equiv_pos_as_xyz
  1  'x, y, z'
loop_
 _atom_site_type_symbol
 _atom_site_label
 _atom_site_symmetry_multiplicity
 _atom_site_fract_x
 _atom_site_fract_y
 _atom_site_fract_z
 _atom_site_occupancy
  V  V0  1  -0.00346551  -0.00003441  -0.00477865  1
  V  V1  1  0.49743615  0.87331307  0.88212384  1
  V  V2  1  0.74614897  0.37332621  0.13226488  1
  V  V3  1  0.62614682  0.49995910  0.62536193  1
  V  V4  1  0.12487525  -0.00517473  0.62576464  1
  V  V5  1  0.62077124  0.49890922  0.13106626  1
  V  V6  1  0.76823147  0.11892138  0.88028611  1
  V  V7  1  0.24825712  0.12657169  0.87516631  1
  V  V8  1  0.51481009  0.00081904  0.00467185  1
  V  V9  1  0.75296631  0.37281043  0.62551259  1
  V  V10  1  0.00433829  0.36874362  0.37580944  1
  V  V11  1  0.25840169  0.87539951  0.12212623  1
  V  V12  1  -0.00523463  0.23776498  0.74315327  1
  V  V13  1  -0.00231906  0.62366227  0.12651526  1
  V  V14  1  0.37249532  -0.00400182  0.88607422  1
  V  V15  1  0.24815947  0.25180086  0.50260289  1
  V  V16  1  0.00285862  0.37544154  0.87067874  1
  V  V17  1  0.37925971  0.74185887  0.12549142  1
  V  V18  1  0.87227749  -0.00461457  0.37769460  1
  V  V19  1  0.87468694  0.37383398  0.00211841  1
  V  V20  1  0.62345960  0.76427745  0.37045181  1
  V  V21  1  0.00367429  0.76178053  0.74766601  1
  V  V22  1  0.73772383  0.87887183  0.12882114  1
  V  V23  1  -0.00053513  0.50131833  0.49873211  1
  V  V24  1  0.62014313  0.62341287  0.00467927  1
  V  V25  1  0.61617289  0.12298753  0.51710352  1
  V  V26  1  0.75597936  0.62623229  0.36942824  1
  V  V27  1  0.62497880  0.37299457  0.75631430  1
  V  V28  1  0.73407928  -0.00392520  0.24842909  1
  V  V29  1  0.73798356  0.87824324  0.62777632  1
  V  V30  1  0.25472591  0.62453080  0.37090772  1
  V  V31  1  0.87395134  0.62782972  0.74910291  1
  V  V32  1  0.12437719  0.00031576  0.12607811  1
  V  V33  1  -0.00082117  0.62755060  0.62349366  1
  V  V34  1  0.37625592  0.25246350  0.12292573  1
  V  V35  1  0.87447855  0.37174401  0.50180240  1
  V  V36  1  0.49856959  -0.00802303  0.51417440  1
  V  V37  1  0.24974904  0.37808406  0.12210321  1
  V  V38  1  0.37870027  0.13069095  0.24851995  1
  V  V39  1  0.00466479  0.50032989  0.00412070  1
  V  V40  1  0.75493373  0.50257712  0.25003667  1
  V  V41  1  0.00017673  0.12379679  0.12708331  1
  V  V42  1  0.25481142  0.75531007  -0.00147869  1
  V  V43  1  0.12401982  0.75952926  0.86975306  1
  V  V44  1  0.87569426  0.50103743  0.87538651  1
  V  V45  1  0.12623848  0.74981453  0.37417953  1
  V  V46  1  0.37639284  0.75675294  0.61956038  1
  V  V47  1  0.50483831  0.75658005  0.25255318  1
  V  V48  1  0.00204835  0.24931424  0.25342963  1
  V  V49  1  0.74777841  0.62857223  0.87805131  1
  V  V50  1  0.25338074  0.25359324  -0.00206105  1
  V  V51  1  0.24649576  -0.00734912  0.74978025  1
  V  V52  1  0.75056725  0.49998586  0.75063421  1
  V  V53  1  0.12267098  0.12720818  0.49965957  1
  V  V54  1  -0.00456771  0.74510313  0.24994447  1
  V  V55  1  0.75291820  0.00760154  0.74862222  1
  V  V56  1  -0.00480338  0.87458989  0.37910149  1
  V  V57  1  0.24709971  0.13172871  0.37421950  1
  V  V58  1  0.62508421  0.23618008  0.88193881  1
  V  V59  1  -0.00280329  0.00331555  0.50285472  1
  V  V60  1  0.25155706  0.00008035  0.25107359  1
  V  V61  1  0.87402588  0.76120987  0.62121161  1
  V  V62  1  0.51193292  0.35507112  0.36286870  1
  V  V63  1  0.12431678  0.62712770  0.00069339  1
  V  V64  1  0.37865206  0.12465732  0.74426996  1
  V  V65  1  0.87536089  0.87861346  -0.00433934  1
  V  V66  1  0.24698554  0.50120696  0.24607334  1
  V  V67  1  0.49707219  0.49323058  0.00403203  1
  V  V68  1  0.62680617  0.62663450  0.49784242  1
  V  V69  1  0.51194632  0.12675159  0.12013258  1
  V  V70  1  0.38485301  -0.00792465  0.37746997  1
  V  V71  1  0.25541660  0.75802638  0.49616822  1
  V  V72  1  0.87265073  0.74908443  0.12589815  1
  V  V73  1  0.73921742  0.12610730  0.37445975  1
  V  V74  1  0.49940136  0.49779866  0.49214936  1
  V  V75  1  0.12425593  0.87492423  0.24856626  1
  V  V76  1  0.75283295  0.75942113  0.49895408  1
  V  V77  1  0.74459966  0.24794600  0.49796489  1
  V  V78  1  0.37352693  0.49341879  0.87684027  1
  V  V79  1  0.12649034  0.37152648  0.24910733  1
  V  V80  1  0.49854026  0.62579834  0.62764502  1
  V  V81  1  0.12718098  0.49954496  0.62764123  1
  V  V82  1  0.50208996  0.24316639  0.74276319  1
  V  V83  1  0.87529061  0.24962268  0.12594244  1
  V  V84  1  0.87431697  0.12325462  0.25211726  1
  Zn  Zn85  1  0.37660262  0.25040081  0.62480734  1
  Zn  Zn86  1  0.49422231  0.36797886  0.88109294  1
  Zn  Zn87  1  0.25211623  0.87432554  0.62292404  1
  Zn  Zn88  1  0.12809313  0.37079570  0.74693976  1
  Zn  Zn89  1  0.74578599  0.75490934  0.00181821  1
  Zn  Zn90  1  0.87869647  0.50427169  0.36870770  1
  Zn  Zn91  1  0.12496523  0.25099671  0.87268811  1
  Zn  Zn92  1  0.37856888  0.37114199  0.49991440  1
  Zn  Zn93  1  0.12381705  0.12649552  0.00126793  1
  Zn  Zn94  1  0.62119418  0.87817660  0.75310431  1
  Zn  Zn95  1  0.25193403  0.62768949  0.87169461  1
  Zn  Zn96  1  0.25140899  0.50003119  0.74947101  1
  Zn  Zn97  1  0.37751473  0.49401108  0.37226710  1
  Zn  Zn98  1  0.49873632  0.75409819  0.75167561  1
  Zn  Zn99  1  0.62135677  0.75116535  0.87572521  1
  Zn  Zn100  1  0.39062884  0.61611163  0.24343154  1
  Zn  Zn101  1  0.74652116  0.24268279  0.00496007  1
  Zn  Zn102  1  0.12753655  0.62601110  0.49901012  1
  Zn  Zn103  1  0.37160122  0.62559004  0.75100200  1
  Zn  Zn104  1  0.87476526  0.21961282  0.63175308  1
  Zn  Zn105  1  -0.00414487  0.88333612  0.86710023  1
  Zn  Zn106  1  0.25464653  0.37621667  0.62645926  1
  Zn  Zn107  1  0.18758643  0.18960773  0.18824274  1
  Zn  Zn108  1  0.18165455  0.18430000  0.68591697  1
  Zn  Zn109  1  0.18535953  0.68789968  0.18510467  1
  Zn  Zn110  1  0.18942825  0.68453357  0.68622596  1
  Zn  Zn111  1  0.68698330  0.19007999  0.19360795  1
  Zn  Zn112  1  0.69088841  0.18711335  0.68990517  1
  Zn  Zn113  1  0.68499634  0.68719694  0.18729273  1
  Zn  Zn114  1  0.68289789  0.69267319  0.69098367  1
  Zn  Zn115  1  0.32164815  0.31525370  0.31555040  1
  Zn  Zn116  1  0.31257471  0.31553308  0.80816576  1
  Zn  Zn117  1  0.31765341  0.81213972  0.30790428  1
  Zn  Zn118  1  0.31866811  0.81037761  0.81125004  1
  Zn  Zn119  1  0.81192106  0.31273802  0.31452022  1
  Zn  Zn120  1  0.81422321  0.30838311  0.81447736  1
  Zn  Zn121  1  0.81024922  0.81369877  0.30957710  1
  Zn  Zn122  1  0.81298576  0.81609707  0.80899502  1
  Zn  Zn123  1  0.18632106  0.43740101  0.43564550  1
  Zn  Zn124  1  0.18739583  0.43766123  0.93874438  1
  Zn  Zn125  1  0.18728816  0.94081990  0.43403100  1
  Zn  Zn126  1  0.18410047  0.93887310  0.93883160  1
  Zn  Zn127  1  0.68499272  0.43676985  0.43273140  1
  Zn  Zn128  1  0.68801248  0.43631307  0.94236775  1
  Zn  Zn129  1  0.68202408  0.94401615  0.44083135  1
  Zn  Zn130  1  0.68911137  0.93947377  0.93734987  1
  Zn  Zn131  1  0.31225040  0.06634815  0.06369240  1
  Zn  Zn132  1  0.31232292  0.06242729  0.56119545  1
  Zn  Zn133  1  0.31126094  0.56299283  0.05879061  1
  Zn  Zn134  1  0.31393312  0.56667576  0.55814674  1
  Zn  Zn135  1  0.80989445  0.06015869  0.06467574  1
  Zn  Zn136  1  0.80794579  0.06003293  0.56220794  1
  Zn  Zn137  1  0.81276734  0.56123424  0.06284214  1
  Zn  Zn138  1  0.81395652  0.56521496  0.56170817  1
  Zn  Zn139  1  0.43711791  0.43408612  0.19033221  1
  Zn  Zn140  1  0.43723041  0.43435083  0.68738953  1
  Zn  Zn141  1  0.44214385  0.93926903  0.18839788  1
  Zn  Zn142  1  0.43459334  0.93750233  0.69491966  1
  Zn  Zn143  1  0.93611460  0.43731919  0.18791796  1
  Zn  Zn144  1  0.93847080  0.43660977  0.68704750  1
  Zn  Zn145  1  0.93237381  0.93585639  0.18725633  1
  Zn  Zn146  1  0.92902926  0.95051885  0.68337200  1
  Zn  Zn147  1  0.06302907  0.06225472  0.31454185  1
  Zn  Zn148  1  0.06375754  0.06275223  0.81068914  1
  Zn  Zn149  1  0.06720044  0.56012854  0.31155178  1
  Zn  Zn150  1  0.06279437  0.56939305  0.81161960  1
  Zn  Zn151  1  0.55923855  0.07358646  0.31147837  1
  Zn  Zn152  1  0.56479298  0.05624019  0.80980541  1
  Zn  Zn153  1  0.56619988  0.56971710  0.30835520  1
  Zn  Zn154  1  0.56049061  0.55969485  0.81645354  1
  Zn  Zn155  1  0.43435493  0.18353942  0.43936082  1
  Zn  Zn156  1  0.43712325  0.18395796  0.93671311  1
  Zn  Zn157  1  0.43810435  0.68882855  0.43348085  1
  Zn  Zn158  1  0.43570484  0.68073544  0.93997714  1
  Zn  Zn159  1  0.93087023  0.18489516  0.44042304  1
  Zn  Zn160  1  0.94004129  0.18962990  0.93843859  1
  Zn  Zn161  1  0.93602406  0.68907074  0.43862620  1
  Zn  Zn162  1  0.93658713  0.69200786  0.93670995  1
  Zn  Zn163  1  0.06666229  0.31153301  0.06307343  1
  Zn  Zn164  1  0.06454646  0.31052345  0.56442139  1
  Zn  Zn165  1  0.06384407  0.81433264  0.06143076  1
  Zn  Zn166  1  0.06686674  0.81493780  0.56023714  1
  Zn  Zn167  1  0.56319015  0.31303712  0.06627325  1
  Zn  Zn168  1  0.56515097  0.31446389  0.56044901  1
  Zn  Zn169  1  0.55747031  0.81096623  0.05936610  1
  Zn  Zn170  1  0.56050026  0.81261862  0.55735419  1
  O  O171  1  0.11850733  0.11841387  0.12713241  1
  O  O172  1  0.12944807  0.10968503  0.60996978  1
  O  O173  1  0.11085468  0.63457974  0.11156176  1
  O  O174  1  0.11642361  0.61804887  0.61979950  1
  O  O175  1  0.61015895  0.13107258  0.12410660  1
  O  O176  1  0.62827636  0.12367414  0.61566084  1
  O  O177  1  0.63477888  0.61248356  0.11370670  1
  O  O178  1  0.62066195  0.62260246  0.61534427  1
  O  O179  1  0.39148954  0.37715980  0.38170416  1
  O  O180  1  0.37605654  0.38794810  0.87524048  1
  O  O181  1  0.37160230  0.89353636  0.36919020  1
  O  O182  1  0.38328742  0.88630219  0.87316591  1
  O  O183  1  0.88231410  0.37932084  0.38633483  1
  O  O184  1  0.88262380  0.38077522  0.88126790  1
  O  O185  1  0.88493933  0.88171929  0.36863532  1
  O  O186  1  0.87598560  0.86719722  0.89127971  1
  O  O187  1  0.26099865  0.01006730  0.37140152  1
  O  O188  1  0.25293564  0.00582250  0.87070107  1
  O  O189  1  0.25029441  0.50769093  0.36669977  1
  O  O190  1  0.26411691  0.50189359  0.88142512  1
  O  O191  1  0.75516543  0.00428254  0.37052846  1
  O  O192  1  0.74910650  0.01324919  0.86948155  1
  O  O193  1  0.74905929  0.50824861  0.36723116  1
  O  O194  1  0.75549089  0.50751144  0.87103918  1
  O  O195  1  0.25668542  0.48858633  0.13142282  1
  O  O196  1  0.23701998  0.50290394  0.61837455  1
  O  O197  1  0.24669322  0.99358253  0.12948712  1
  O  O198  1  0.24608991  0.99741826  0.63186395  1
  O  O199  1  0.74524239  0.49305337  0.13117357  1
  O  O200  1  0.74560703  0.49580834  0.63016705  1
  O  O201  1  0.75505652  0.99131234  0.13706403  1
  O  O202  1  0.75067645  0.98957381  0.63540596  1
  O  O203  1  0.00590398  0.37189433  0.25575822  1
  O  O204  1  0.00142241  0.37333047  0.76102327  1
  O  O205  1  0.00404042  0.86626428  0.25693397  1
  O  O206  1  -0.00954590  0.86506365  0.74734186  1
  O  O207  1  0.49871329  0.37503762  0.26416979  1
  O  O208  1  0.51194438  0.36529543  0.75448202  1
  O  O209  1  0.49695992  0.85765445  0.24489699  1
  O  O210  1  0.50127769  0.87874888  0.76703542  1
  O  O211  1  0.48914776  0.11830855  0.23118645  1
  O  O212  1  0.49045323  0.13109430  0.76024929  1
  O  O213  1  0.50182683  0.64154323  0.24877873  1
  O  O214  1  0.50477729  0.62284296  0.73429080  1
  O  O215  1  0.99494137  0.12928877  0.24831714  1
  O  O216  1  0.99906013  0.13895680  0.75691862  1
  O  O217  1  1.00780782  0.63381276  0.24043821  1
  O  O218  1  0.99270766  0.63679795  0.74311794  1
  O  O219  1  0.36339725  0.24464489  0.00763283  1
  O  O220  1  0.36178202  0.24428697  0.50548197  1
  O  O221  1  0.36156553  0.74355959  0.00774862  1
  O  O222  1  0.36719278  0.74352964  0.50640373  1
  O  O223  1  0.87451947  0.25690971  0.00846008  1
  O  O224  1  0.86671966  0.25820029  0.50507258  1
  O  O225  1  0.87402901  0.75829657  0.01092215  1
  O  O226  1  0.86325428  0.74658850  0.50875208  1
  O  O227  1  0.13130085  0.23708883  0.50342362  1
  O  O228  1  0.13756951  0.24687010  0.99667266  1
  O  O229  1  0.13435735  0.74799158  0.49163906  1
  O  O230  1  0.13076678  0.74565140  0.99211100  1
  O  O231  1  0.63577618  0.23818366  0.50630042  1
  O  O232  1  0.62722612  0.25597418  0.98411165  1
  O  O233  1  0.63189431  0.74329400  0.49185083  1
  O  O234  1  0.62597172  0.73691745  0.99841924  1
  O  O235  1  0.48932098  0.23624900  0.11191414  1
  O  O236  1  0.50410878  0.25231018  0.64001895  1
  O  O237  1  0.48766756  0.75362129  0.13102016  1
  O  O238  1  0.49310858  0.74093261  0.61890648  1
  O  O239  1  0.99558337  0.24483051  0.13221402  1
  O  O240  1  0.99862653  0.25410776  0.63954118  1
  O  O241  1  0.99330849  0.74534692  0.13140580  1
  O  O242  1  0.99352557  0.74983390  0.62675031  1
  O  O243  1  -0.00965104  0.26125027  0.37005625  1
  O  O244  1  0.00031844  0.26049773  0.86754719  1
  O  O245  1  0.00244670  0.75489858  0.36898701  1
  O  O246  1  0.00581236  0.75287781  0.86452774  1
  O  O247  1  0.49757857  0.25637537  0.37876642  1
  O  O248  1  0.51190374  0.24952619  0.87009123  1
  O  O249  1  0.50814854  0.74919362  0.36416094  1
  O  O250  1  0.49383363  0.76298021  0.88157089  1
  O  O251  1  0.24318375  0.13027718  0.49246983  1
  O  O252  1  0.24876185  0.13344811  0.99137673  1
  O  O253  1  0.24881347  0.63425956  0.48629385  1
  O  O254  1  0.23818790  0.63554845  1.00027271  1
  O  O255  1  0.73801825  0.12763073  0.49413216  1
  O  O256  1  0.75507531  0.12443331  0.98621451  1
  O  O257  1  0.74189379  0.63426430  0.49517158  1
  O  O258  1  0.74311317  0.62290774  0.99113216  1
  O  O259  1  0.24414579  0.36674392  0.01077467  1
  O  O260  1  0.24852182  0.36136814  0.49582257  1
  O  O261  1  0.24322001  0.86539245  0.00981904  1
  O  O262  1  0.24823415  0.86170854  0.49442392  1
  O  O263  1  0.75785076  0.37375245  0.01182876  1
  O  O264  1  0.75479016  0.36766350  0.50252519  1
  O  O265  1  0.75868162  0.87735278  0.00872361  1
  O  O266  1  0.74280270  0.86500809  0.50725468  1
  O  O267  1  0.13612206  0.48698200  0.25134238  1
  O  O268  1  0.12113410  0.50205569  0.73724870  1
  O  O269  1  0.13092988  0.99476335  0.24603257  1
  O  O270  1  0.13455911  1.00859041  0.73824813  1
  O  O271  1  0.63709821  0.50606875  0.23900502  1
  O  O272  1  0.62972578  0.49114048  0.74682227  1
  O  O273  1  0.63559388  1.00489365  0.25630307  1
  O  O274  1  0.64212779  0.99450506  0.75628325  1
  O  O275  1  0.37147653  0.00912189  0.25722060  1
  O  O276  1  0.36685086  0.00838898  0.76119182  1
  O  O277  1  0.36149297  0.50085065  0.25132477  1
  O  O278  1  0.37923006  0.50142700  0.76464495  1
  O  O279  1  0.87139035  0.00474459  0.26175547  1
  O  O280  1  0.85411991  -0.00866559  0.75559722  1
  O  O281  1  0.86135107  0.50044212  0.24967878  1
  O  O282  1  0.87036559  0.50692961  0.75445004  1
  O  O283  1  0.11239266  0.37742985  0.36642688  1
  O  O284  1  0.11291682  0.37612255  0.87479814  1
  O  O285  1  0.11627314  0.87082293  0.36743708  1
  O  O286  1  0.11975161  0.86323110  0.87856009  1
  O  O287  1  0.61111167  0.37312733  0.37967764  1
  O  O288  1  0.63107312  0.36640376  0.86481164  1
  O  O289  1  0.63168313  0.86285108  0.37795350  1
  O  O290  1  0.61111095  0.87341112  0.88202934  1
  O  O291  1  0.37560455  0.13392830  0.13232128  1
  O  O292  1  0.36854825  0.12643481  0.64140038  1
  O  O293  1  0.36590950  0.63730485  0.12768037  1
  O  O294  1  0.38611982  0.63155498  0.62415047  1
  O  O295  1  0.87997560  0.12966572  0.13253854  1
  O  O296  1  0.88713774  0.11177778  0.61505465  1
  O  O297  1  0.88591831  0.63632992  0.11709868  1
  O  O298  1  0.87859293  0.63623177  0.62930910  1
  O  O299  1  0.25641396  0.25564358  0.11758684  1
  O  O300  1  0.24760857  0.25006393  0.61405635  1
  O  O301  1  0.25454214  0.75750146  0.11917980  1
  O  O302  1  0.25749274  0.74938047  0.61416639  1
  O  O303  1  0.75528819  0.25641347  0.12518008  1
  O  O304  1  0.75491224  0.25442306  0.61698703  1
  O  O305  1  0.75923602  0.75660806  0.12745837  1
  O  O306  1  0.75510745  0.75567232  0.61842665  1
  O  O307  1  0.25655490  0.23808789  0.38198542  1
  O  O308  1  0.25246697  0.24366759  0.88128480  1
  O  O309  1  0.24755734  0.74441150  0.37585846  1
  O  O310  1  0.24393547  0.75235328  0.88237479  1
  O  O311  1  0.75898201  0.23900057  0.38808832  1
  O  O312  1  0.74084115  0.23637030  0.87263998  1
  O  O313  1  0.74577231  0.74583327  0.38001165  1
  O  O314  1  0.75082333  0.73726345  0.87656265  1
  O  O315  1  0.00020894  0.11737715  0.00779940  1
  O  O316  1  0.01025441  0.11266152  0.48519739  1
  O  O317  1  0.00421158  0.62011829  0.00496118  1
  O  O318  1  -0.00084329  0.61619789  0.50325824  1
  O  O319  1  0.49429592  0.11312584  0.00945769  1
  O  O320  1  0.51279972  0.12259841  0.50032884  1
  O  O321  1  0.51287920  0.61208920  -0.00379794  1
  O  O322  1  0.51035258  0.62051820  0.50490207  1
  O  O323  1  0.50412297  0.38558612  0.49392637  1
  O  O324  1  0.50586959  0.38762500  0.99812444  1
  O  O325  1  0.50649867  0.89350405  0.49819451  1
  O  O326  1  0.49890935  0.89176480  0.99741111  1
  O  O327  1  0.99426573  0.37956658  0.49408861  1
  O  O328  1  0.99743129  0.38248534  0.99526373  1
  O  O329  1  1.00571530  0.88370294  0.48521045  1
  O  O330  1  0.99248858  0.88347564  1.00211089  1
  O  O331  1  0.50396187  0.50428230  0.38448039  1
  O  O332  1  0.49162357  0.49539833  0.88371791  1
  O  O333  1  0.48731716  1.00750203  0.37535527  1
  O  O334  1  0.49299062  0.99735867  0.88840234  1
  O  O335  1  0.99892198  0.49239659  0.38163230  1
  O  O336  1  0.99521519  0.49595791  0.88271803  1
  O  O337  1  0.99283283  0.99226164  0.37907585  1
  O  O338  1  1.00810046  0.99936555  0.88950530  1
  O  O339  1  0.00438332  0.00442615  0.12096683  1
  O  O340  1  0.00742816  -0.01105908  0.60995334  1
  O  O341  1  -0.00697279  0.50949045  0.11470622  1
  O  O342  1  0.00458954  0.50577037  0.61646029  1
  O  O343  1  0.49359751  0.01036176  0.11264913  1
  O  O344  1  0.48774493  -0.00096058  0.61294371  1
  O  O345  1  0.51053190  0.49210263  0.12011716  1
  O  O346  1  0.50706929  0.50697523  0.61546975  1
  O  O347  1  0.24448698  0.37917477  0.24597482  1
  O  O348  1  0.24476164  0.38260253  0.74590130  1
  O  O349  1  0.24419189  0.87938919  0.24204313  1
  O  O350  1  0.25561491  0.89022367  0.75128874  1
  O  O351  1  0.75514045  0.38300798  0.24027167  1
  O  O352  1  0.74480489  0.37908333  0.74661132  1
  O  O353  1  0.75389934  0.88449127  0.24121283  1
  O  O354  1  0.74537935  0.88065835  0.74340925  1
  O  O355  1  0.25619318  0.12065833  0.25550550  1
  O  O356  1  0.25667824  0.11884938  0.75898331  1
  O  O357  1  0.24390795  0.61559476  0.25444090  1
  O  O358  1  0.25197773  0.61751415  0.75406536  1
  O  O359  1  0.75571587  0.11537231  0.25673432  1
  O  O360  1  0.74847016  0.11490703  0.75955034  1
  O  O361  1  0.74563807  0.61893004  0.26030942  1
  O  O362  1  0.75281993  0.62034395  0.75744093  1
  O  O363  1  0.36795655  0.11903675  0.36433453  1
  O  O364  1  0.36488431  0.11760199  0.86851998  1
  O  O365  1  0.36286505  0.62393686  0.36867043  1
  O  O366  1  0.37447576  0.61245474  0.87220648  1
  O  O367  1  0.86395182  0.11545181  0.37145397  1
  O  O368  1  0.86628797  0.12920525  0.87330282  1
  O  O369  1  0.86035071  0.62380925  0.38205199  1
  O  O370  1  0.86778872  0.62143228  0.87072458  1
  O  O371  1  0.13712724  0.37097129  0.13559459  1
  O  O372  1  0.12530510  0.38880187  0.62402505  1
  O  O373  1  0.13377748  0.87948146  0.13038228  1
  O  O374  1  0.13238260  0.88903307  0.61853110  1
  O  O375  1  0.63694112  0.38375358  0.12094441  1
  O  O376  1  0.63266603  0.37872806  0.63576473  1
  O  O377  1  0.63946682  0.86779891  0.11789734  1
  O  O378  1  0.63514853  0.86683734  0.62710160  1
  O  O379  1  0.11848568  0.26110128  0.24893915  1
  O  O380  1  0.11209837  0.25155577  0.75243552  1
  O  O381  1  0.11478255  0.75517957  0.25358942  1
  O  O382  1  0.11496446  0.74499372  0.75670194  1
  O  O383  1  0.62245143  0.24039743  0.26560573  1
  O  O384  1  0.62108175  0.25354205  0.75990002  1
  O  O385  1  0.61473077  0.74797041  0.25572450  1
  O  O386  1  0.61611932  0.75493752  0.75796877  1
  O  O387  1  0.36865354  0.23893401  0.23916582  1
  O  O388  1  0.38581131  0.24205639  0.75301701  1
  O  O389  1  0.38505083  0.74537909  0.24332079  1
  O  O390  1  0.38038767  0.74474495  0.73795545  1
  O  O391  1  0.88032045  0.24388026  0.24582966  1
  O  O392  1  0.88873688  0.25673748  0.74635509  1
  O  O393  1  0.88661153  0.75415956  0.24085561  1
  O  O394  1  0.88165443  0.74664205  0.74033123  1
  O  O395  1  0.38902338  0.50185364  0.49685037  1
  O  O396  1  0.38549462  0.50669748  0.99063935  1
  O  O397  1  0.38692605  1.01071324  0.48722865  1
  O  O398  1  0.37452489  1.00526486  0.98869116  1
  O  O399  1  0.88486973  0.49275344  0.49936089  1
  O  O400  1  0.88494043  0.49504745  0.99552725  1
  O  O401  1  0.88158428  1.00101733  0.48448692  1
  O  O402  1  0.88624921  0.99067698  1.00896077  1
  O  O403  1  0.11571816  0.00185023  0.00925537  1
  O  O404  1  0.11792431  0.00604612  0.50349512  1
  O  O405  1  0.11348335  0.51192081  -0.00609647  1
  O  O406  1  0.11225297  0.50059997  0.50480246  1
  O  O407  1  0.61298142  0.00486627  -0.00107388  1
  O  O408  1  0.61126209  0.01285944  0.49898690  1
  O  O409  1  0.61941271  0.50430177  0.00876391  1
  O  O410  1  0.62185993  0.50998922  0.50457043  1
  O  O411  1  0.36435154  0.36165615  0.13253605  1
  O  O412  1  0.37307571  0.37005096  0.61864414  1
  O  O413  1  0.36207792  0.86754280  0.13093651  1
  O  O414  1  0.37448886  0.86067485  0.62871440  1
  O  O415  1  0.86807906  0.36919333  0.12170141  1
  O  O416  1  0.86989627  0.37963596  0.61195728  1
  O  O417  1  0.86891139  0.86569136  0.11764611  1
  O  O418  1  0.86348761  0.86456079  0.62634826  1
  O  O419  1  0.13811109  0.11618021  0.38363622  1
  O  O420  1  0.13931395  0.12600911  0.87640568  1
  O  O421  1  0.13511324  0.63162314  0.37436665  1
  O  O422  1  0.12371436  0.63772601  0.88569081  1
  O  O423  1  0.63641913  0.12205992  0.38308112  1
  O  O424  1  0.62743474  0.13555330  0.87481724  1
  O  O425  1  0.63567656  0.63421168  0.38393819  1
  O  O426  1  0.63379202  0.62119427  0.88420833  1
