# generated using pymatgen
data_V85Zn86O256
_symmetry_space_group_name_H-M   'P 1'
_cell_length_a   16.96947065
_cell_length_b   16.97114105
_cell_length_c   16.95992378
_cell_angle_alpha   89.95697124
_cell_angle_beta   90.18648329
_cell_angle_gamma   89.96056840
_symmetry_Int_Tables_number   1
_chemical_formula_structural   V85Zn86O256
_chemical_formula_sum   'V85 Zn86 O256'
_cell_volume   4884.28174374
_cell_formula_units_Z   1
loop_
 _symmetry_equiv_pos_site_id
 _symmetry_equiv_pos_as_xyz
  1  'x, y, z'
loop_
 _atom_site_type_symbol
 _atom_site_label
 _atom_site_symmetry_multiplicity
 _atom_site_fract_x
 _atom_site_fract_y
 _atom_site_fract_z
 _atom_site_occupancy
  V  V0  1  0.13037865  0.25236221  0.87606328  1
  V  V1  1  0.24844609  0.37705711  0.62732029  1
  V  V2  1  0.61819258  0.50129901  0.61121746  1
  V  V3  1  0.12531957  -0.00234054  0.62486525  1
  V  V4  1  0.75092080  0.36844024  0.61892324  1
  V  V5  1  0.13667627  0.38832814  0.23375784  1
  V  V6  1  0.24805902  0.61809616  0.36672827  1
  V  V7  1  0.86863154  0.11712513  0.25124481  1
  V  V8  1  0.61601268  0.74501207  0.38270484  1
  V  V9  1  0.74979554  0.75417432  0.01054925  1
  V  V10  1  -0.00295272  0.24755236  0.74729567  1
  V  V11  1  0.74866899  0.12274769  0.87508706  1
  V  V12  1  0.61791287  0.37453810  0.75393738  1
  V  V13  1  0.37439014  0.74658534  0.62549037  1
  V  V14  1  0.38918517  0.37362379  0.01057465  1
  V  V15  1  0.49971858  0.61904693  0.61658325  1
  V  V16  1  0.62606064  0.12234106  0.00072075  1
  V  V17  1  0.24972399  0.00097939  0.25222804  1
  V  V18  1  0.62389688  0.87753597  0.25572239  1
  V  V19  1  0.12465049  0.87653417  0.24939815  1
  V  V20  1  0.12023042  0.86186596  0.74891195  1
  V  V21  1  0.12361487  0.74950973  0.37145012  1
  V  V22  1  0.87306536  0.62886578  0.24005741  1
  V  V23  1  0.75547619  0.11450314  0.38455107  1
  V  V24  1  0.12324689  0.37440495  0.75124812  1
  V  V25  1  0.87607204  0.63640380  0.74619478  1
  V  V26  1  -0.00561687  0.63744290  0.62813147  1
  V  V27  1  0.87541859  0.50312853  0.37315046  1
  V  V28  1  0.50721052  0.11717047  0.61106946  1
  V  V29  1  0.37037231  0.62324626  0.76065075  1
  V  V30  1  0.63686213  0.24750352  0.38703977  1
  V  V31  1  -0.00448557  0.37498586  0.87445402  1
  V  V32  1  -0.00643952  0.75234695  0.23799269  1
  V  V33  1  0.62597062  0.87142526  0.75439902  1
  V  V34  1  -0.00700394  0.13259036  0.12516558  1
  V  V35  1  0.74618393  -0.00238377  0.74708790  1
  V  V36  1  0.24840447  0.87359451  0.62296726  1
  V  V37  1  0.38262639  -0.00267238  0.38079268  1
  V  V38  1  0.00514566  0.37714817  0.37133981  1
  V  V39  1  0.49068214  0.88068084  0.87862982  1
  V  V40  1  0.75103179  0.36977997  0.12352292  1
  V  V41  1  0.74597016  0.49964481  0.74754376  1
  V  V42  1  0.74266359  0.63376463  0.87353719  1
  V  V43  1  0.61915533  0.62779887  -0.00454132  1
  V  V44  1  0.37096612  0.62151250  0.24608609  1
  V  V45  1  0.24724087  0.49901489  0.76727611  1
  V  V46  1  0.48937513  -0.00173090  -0.00213529  1
  V  V47  1  0.74955164  0.50165914  0.24832112  1
  V  V48  1  -0.00025787  0.49963727  0.50251765  1
  V  V49  1  0.87787490  0.86735467  0.51164123  1
  V  V50  1  0.26134243  0.75435008  -0.01439572  1
  V  V51  1  0.49996442  0.62902749  0.12287896  1
  V  V52  1  0.00099668  0.00047501  0.00109746  1
  V  V53  1  0.12326799  0.62457407  0.49973704  1
  V  V54  1  0.37711015  0.38237761  0.50126555  1
  V  V55  1  0.50484162  0.74769121  0.75773902  1
  V  V56  1  0.87935936  0.12309926  0.74915884  1
  V  V57  1  0.38098220  0.87516552  0.49648228  1
  V  V58  1  0.39699236  0.48640668  0.87637148  1
  V  V59  1  0.25914695  0.87654046  0.12136080  1
  V  V60  1  0.25840272  0.25571654  0.01483054  1
  V  V61  1  0.62456566  0.37586928  0.24984192  1
  V  V62  1  0.12637024  0.13064330  0.00369007  1
  V  V63  1  -0.00964710  0.87612340  0.37217371  1
  V  V64  1  0.61911016  0.50175085  0.11946515  1
  V  V65  1  0.63248189  -0.00231762  0.13096987  1
  V  V66  1  0.87819036  -0.00245592  0.87614434  1
  V  V67  1  0.86878279  0.49842344  0.87385656  1
  V  V68  1  0.49931567  0.25026417  0.24978532  1
  V  V69  1  0.86920281  0.36699029  0.00248858  1
  V  V70  1  0.25037415  0.12593453  0.37743705  1
  V  V71  1  0.37472042  0.12933533  0.25030490  1
  V  V72  1  0.49820235  0.12596516  0.12611239  1
  V  V73  1  0.24819049  0.25089633  0.50124681  1
  V  V74  1  -0.00578177  -0.00141486  0.49344615  1
  V  V75  1  0.62165125  0.25149667  0.87614162  1
  V  V76  1  0.12465958  0.12353676  0.49912196  1
  V  V77  1  0.00726493  0.62323872  0.11931360  1
  V  V78  1  0.24911167  0.74786615  0.49803990  1
  V  V79  1  0.50022260  0.38055614  0.38075215  1
  V  V80  1  -0.00571911  0.25503230  0.24516586  1
  V  V81  1  -0.00220388  0.50119514  0.00229030  1
  V  V82  1  0.00225476  0.86610353  0.87372361  1
  V  V83  1  0.49648371  0.24587122  0.74940219  1
  V  V84  1  0.75443499  0.73806504  0.50445980  1
  Zn  Zn85  1  0.88783308  0.85873415  0.01101926  1
  Zn  Zn86  1  0.75092240  0.86743718  0.62823550  1
  Zn  Zn87  1  0.49632885  0.75538026  0.25565103  1
  Zn  Zn88  1  0.37503622  0.50068570  0.37398752  1
  Zn  Zn89  1  0.26535980  0.11816790  0.87536554  1
  Zn  Zn90  1  0.37547716  0.24415581  0.62731348  1
  Zn  Zn91  1  0.38024500  0.10670385  0.75360845  1
  Zn  Zn92  1  0.15481644  0.60860687  -0.00185949  1
  Zn  Zn93  1  0.12693447  0.73895856  0.87663536  1
  Zn  Zn94  1  0.12258150  0.50231846  0.63076040  1
  Zn  Zn95  1  0.74134064  0.62147756  0.37662841  1
  Zn  Zn96  1  0.75172498  0.24440789  0.00450643  1
  Zn  Zn97  1  0.12584861  0.25179864  0.37020107  1
  Zn  Zn98  1  0.75877150  0.87523510  0.14204809  1
  Zn  Zn99  1  0.62615578  -0.00142784  0.60429210  1
  Zn  Zn100  1  0.54772475  0.93542890  0.44093847  1
  Zn  Zn101  1  0.25567433  -0.00118042  0.75829610  1
  Zn  Zn102  1  0.12528308  0.00210028  0.12737458  1
  Zn  Zn103  1  0.38266304  0.75914848  0.12149597  1
  Zn  Zn104  1  -0.00177763  0.12354158  0.62062812  1
  Zn  Zn105  1  0.86947202  0.36714038  0.49205556  1
  Zn  Zn106  1  0.86265333  0.23961247  0.61498825  1
  Zn  Zn107  1  0.18352441  0.19463629  0.19101793  1
  Zn  Zn108  1  0.18814469  0.18285535  0.68895358  1
  Zn  Zn109  1  0.18744138  0.69144844  0.18238915  1
  Zn  Zn110  1  0.18753787  0.68197939  0.68693070  1
  Zn  Zn111  1  0.68445373  0.18723592  0.19192821  1
  Zn  Zn112  1  0.68233789  0.18418735  0.68725585  1
  Zn  Zn113  1  0.68309821  0.69082722  0.19230532  1
  Zn  Zn114  1  0.68377506  0.68420514  0.68447229  1
  Zn  Zn115  1  0.31211125  0.31539889  0.31325468  1
  Zn  Zn116  1  0.31323230  0.31002222  0.81785040  1
  Zn  Zn117  1  0.31387781  0.80980010  0.31018588  1
  Zn  Zn118  1  0.31689815  0.82350253  0.80355510  1
  Zn  Zn119  1  0.81488171  0.31188054  0.30827024  1
  Zn  Zn120  1  0.80763451  0.30942636  0.80955208  1
  Zn  Zn121  1  0.80720491  0.80800601  0.31736688  1
  Zn  Zn122  1  0.81362732  0.81543504  0.82072175  1
  Zn  Zn123  1  0.18524570  0.43842388  0.43637999  1
  Zn  Zn124  1  0.20499667  0.45159014  0.97263660  1
  Zn  Zn125  1  0.18777728  0.93685350  0.43596065  1
  Zn  Zn126  1  0.18846727  0.93365787  0.93757459  1
  Zn  Zn127  1  0.68705286  0.43626842  0.43529339  1
  Zn  Zn128  1  0.68255597  0.43913124  0.93791243  1
  Zn  Zn129  1  0.70881327  0.93045153  0.43025549  1
  Zn  Zn130  1  0.67977937  0.93748844  0.93609172  1
  Zn  Zn131  1  0.31036792  0.06551132  0.06469350  1
  Zn  Zn132  1  0.31803234  0.06186956  0.56927712  1
  Zn  Zn133  1  0.32266784  0.56457099  0.05435558  1
  Zn  Zn134  1  0.31105387  0.56276948  0.56608739  1
  Zn  Zn135  1  0.81568893  0.06033355  0.06440665  1
  Zn  Zn136  1  0.81300592  0.05614657  0.56258326  1
  Zn  Zn137  1  0.80883420  0.56215668  0.06086064  1
  Zn  Zn138  1  0.81392024  0.55760946  0.56503345  1
  Zn  Zn139  1  0.43758997  0.44055726  0.19025658  1
  Zn  Zn140  1  0.43463240  0.43692752  0.68736935  1
  Zn  Zn141  1  0.44359064  0.94317025  0.19356657  1
  Zn  Zn142  1  0.43978661  0.93666586  0.68250233  1
  Zn  Zn143  1  0.93802409  0.43962283  0.18468308  1
  Zn  Zn144  1  0.93500245  0.44073460  0.68815326  1
  Zn  Zn145  1  0.93559631  0.94179953  0.18496994  1
  Zn  Zn146  1  0.94165679  0.93567470  0.68803268  1
  Zn  Zn147  1  0.06085172  0.06444976  0.31235528  1
  Zn  Zn148  1  0.09452760  0.04339174  0.83127389  1
  Zn  Zn149  1  0.06300506  0.56351841  0.30652208  1
  Zn  Zn150  1  0.06140373  0.56694974  0.81691123  1
  Zn  Zn151  1  0.56950107  0.06657482  0.31470328  1
  Zn  Zn152  1  0.56028727  0.06241559  0.81051639  1
  Zn  Zn153  1  0.55963281  0.56560392  0.30930512  1
  Zn  Zn154  1  0.56223290  0.56395570  0.80637393  1
  Zn  Zn155  1  0.43719317  0.19334069  0.43676099  1
  Zn  Zn156  1  0.43749260  0.18729621  0.93640390  1
  Zn  Zn157  1  0.43248617  0.68640667  0.43548359  1
  Zn  Zn158  1  0.43301752  0.69247883  0.93981063  1
  Zn  Zn159  1  0.93606541  0.18999004  0.43481229  1
  Zn  Zn160  1  0.93823298  0.18603856  0.93394338  1
  Zn  Zn161  1  0.93794762  0.68738121  0.43376705  1
  Zn  Zn162  1  0.93128744  0.68384208  0.93638525  1
  Zn  Zn163  1  0.06197624  0.31716492  0.06116076  1
  Zn  Zn164  1  0.05945501  0.31199038  0.56108742  1
  Zn  Zn165  1  0.07529651  0.81082354  0.06056891  1
  Zn  Zn166  1  0.06300426  0.81100221  0.55948338  1
  Zn  Zn167  1  0.56617182  0.30888503  0.06410868  1
  Zn  Zn168  1  0.56278185  0.31011787  0.56639617  1
  Zn  Zn169  1  0.56819128  0.81395614  0.06200405  1
  Zn  Zn170  1  0.56697982  0.80539780  0.57154528  1
  O  O171  1  0.11701274  0.12755329  0.11604702  1
  O  O172  1  0.12141561  0.11448465  0.61752900  1
  O  O173  1  0.10967562  0.63392831  0.11638998  1
  O  O174  1  0.11435027  0.62158782  0.61926523  1
  O  O175  1  0.61650561  0.11885772  0.12380018  1
  O  O176  1  0.61357462  0.12049761  0.62537934  1
  O  O177  1  0.61902622  0.61976862  0.11898474  1
  O  O178  1  0.61221832  0.61249071  0.63187605  1
  O  O179  1  0.38278187  0.37704824  0.38214269  1
  O  O180  1  0.37829673  0.38351973  0.87941532  1
  O  O181  1  0.36994902  0.88368065  0.38332694  1
  O  O182  1  0.39219482  0.88038508  0.86995394  1
  O  O183  1  0.88509296  0.38729042  0.36997244  1
  O  O184  1  0.87197288  0.38183558  0.87893445  1
  O  O185  1  0.88688073  0.86880920  0.38229498  1
  O  O186  1  0.88475655  0.88133681  0.88422964  1
  O  O187  1  0.25873559  0.00666672  0.37142437  1
  O  O188  1  0.20841461  0.01570085  0.86485186  1
  O  O189  1  0.24902044  0.51524935  0.37853661  1
  O  O190  1  0.25479263  0.49098804  0.86746479  1
  O  O191  1  0.75149991  0.01694465  0.36827291  1
  O  O192  1  0.75615183  0.00278924  0.86810336  1
  O  O193  1  0.75841169  0.50036082  0.36931678  1
  O  O194  1  0.75297556  0.50596787  0.86723037  1
  O  O195  1  0.21932498  0.52713574  0.05486469  1
  O  O196  1  0.24819321  0.48873278  0.63565680  1
  O  O197  1  0.24843747  0.99363870  0.13289972  1
  O  O198  1  0.23561676  0.99124365  0.61586390  1
  O  O199  1  0.73933352  0.49315771  0.12912092  1
  O  O200  1  0.73981180  0.49391559  0.63246612  1
  O  O201  1  0.73461140  1.00214302  0.11994618  1
  O  O202  1  0.74982522  0.99423980  0.63737941  1
  O  O203  1  0.00467559  0.37258046  0.25323588  1
  O  O204  1  0.00127095  0.36833743  0.75415598  1
  O  O205  1  0.00160274  0.87052416  0.25386851  1
  O  O206  1  0.00744354  0.87667157  0.76122632  1
  O  O207  1  0.50246993  0.36715397  0.25711445  1
  O  O208  1  0.51303407  0.36554760  0.74005950  1
  O  O209  1  0.51488626  0.87126056  0.24610189  1
  O  O210  1  0.50583459  0.86750791  0.75733564  1
  O  O211  1  0.49485377  0.13130930  0.24639687  1
  O  O212  1  0.50215034  0.13394425  0.74138610  1
  O  O213  1  0.49185084  0.63011015  0.24017843  1
  O  O214  1  0.49081426  0.63194494  0.74563544  1
  O  O215  1  0.99374213  0.13441911  0.24496380  1
  O  O216  1  0.98877477  0.13092294  0.75247933  1
  O  O217  1  0.99396500  0.63274650  0.23920131  1
  O  O218  1  0.98802775  0.61542729  0.74001079  1
  O  O219  1  0.36671603  0.25817229  -0.00146954  1
  O  O220  1  0.36151996  0.26061757  0.50095627  1
  O  O221  1  0.36872070  0.76425850  0.00374520  1
  O  O222  1  0.36733235  0.75564196  0.50392629  1
  O  O223  1  0.87047780  0.26246402  -0.00884651  1
  O  O224  1  0.89812756  0.26071144  0.51148840  1
  O  O225  1  0.85486329  0.74630828  -0.00297321  1
  O  O226  1  0.86379068  0.75300265  0.49366796  1
  O  O227  1  0.13365166  0.24475390  0.49890423  1
  O  O228  1  0.13557418  0.24956587  0.99662206  1
  O  O229  1  0.12909474  0.74339202  0.49169899  1
  O  O230  1  0.14942839  0.75267562  0.99816635  1
  O  O231  1  0.62431004  0.25440273  0.48493008  1
  O  O232  1  0.62738269  0.24216569  0.99205287  1
  O  O233  1  0.63692846  0.75695294  0.49011562  1
  O  O234  1  0.63445527  0.73553421  1.00131198  1
  O  O235  1  0.50815821  0.23852246  0.13871934  1
  O  O236  1  0.50183964  0.23944517  0.63362384  1
  O  O237  1  0.50269509  0.74002860  0.12590606  1
  O  O238  1  0.49348322  0.74022302  0.63685952  1
  O  O239  1  1.00369989  0.24106051  0.12968869  1
  O  O240  1  1.00412623  0.24716853  0.64111606  1
  O  O241  1  1.00095943  0.74679899  0.13256626  1
  O  O242  1  0.99895813  0.73642978  0.61789341  1
  O  O243  1  0.00145128  0.26334089  0.36535008  1
  O  O244  1  0.00316422  0.25598912  0.86524444  1
  O  O245  1  0.00454068  0.75688491  0.36391253  1
  O  O246  1  -0.00101843  0.76417838  0.88917551  1
  O  O247  1  0.51127331  0.25598212  0.36704197  1
  O  O248  1  0.51564129  0.24346703  0.86622443  1
  O  O249  1  0.51229557  0.74881289  0.38093043  1
  O  O250  1  0.49456591  0.76089457  0.86491503  1
  O  O251  1  0.24669307  0.13351927  0.49891595  1
  O  O252  1  0.24249541  0.13606369  0.99991602  1
  O  O253  1  0.24418635  0.62936559  0.49317732  1
  O  O254  1  0.26965961  0.65358924  0.98878432  1
  O  O255  1  0.76493156  0.12362629  0.48401100  1
  O  O256  1  0.74541281  0.12425886  0.99397830  1
  O  O257  1  0.75716922  0.63435089  0.49788952  1
  O  O258  1  0.74220655  0.63176878  0.99297398  1
  O  O259  1  0.26257300  0.35842054  -0.00313283  1
  O  O260  1  0.25232153  0.36991327  0.50695890  1
  O  O261  1  0.24996201  0.87950833  0.01647846  1
  O  O262  1  0.25555819  0.86638680  0.50296248  1
  O  O263  1  0.75355040  0.37516565  0.00666701  1
  O  O264  1  0.75054857  0.37987641  0.51524935  1
  O  O265  1  0.74070188  0.85598350  -0.00744957  1
  O  O266  1  0.76532216  0.86216395  0.50254918  1
  O  O267  1  0.12124919  0.48748446  0.24871074  1
  O  O268  1  0.13129300  0.49279088  0.75312762  1
  O  O269  1  0.13159570  0.99578826  0.25087251  1
  O  O270  1  0.11804639  0.98728033  0.73223666  1
  O  O271  1  0.63011523  0.49596002  0.24228841  1
  O  O272  1  0.63234869  0.49209432  0.74559895  1
  O  O273  1  0.61804544  0.99295376  0.24160327  1
  O  O274  1  0.63762786  0.99306735  0.75262135  1
  O  O275  1  0.37092105  0.01061191  0.26072528  1
  O  O276  1  0.36791426  -0.00811761  0.74488128  1
  O  O277  1  0.37760765  0.51596903  0.25188213  1
  O  O278  1  0.36896163  0.50132345  0.76233569  1
  O  O279  1  0.88270553  0.01883713  0.25382366  1
  O  O280  1  0.86914356  0.00420055  0.75531067  1
  O  O281  1  0.87070080  0.50777180  0.25538952  1
  O  O282  1  0.86137102  0.50310471  0.75703378  1
  O  O283  1  0.11445906  0.37699384  0.36650194  1
  O  O284  1  0.11522485  0.36251101  0.87043291  1
  O  O285  1  0.11600195  0.86877443  0.36882803  1
  O  O286  1  0.11687014  0.87117677  0.86507603  1
  O  O287  1  0.62004426  0.36609976  0.37029703  1
  O  O288  1  0.63247091  0.36561187  0.86468908  1
  O  O289  1  0.62352997  0.86686142  0.37120327  1
  O  O290  1  0.61554393  0.87585187  0.86033618  1
  O  O291  1  0.38654999  0.11888287  0.13909548  1
  O  O292  1  0.38983559  0.12714071  0.63001561  1
  O  O293  1  0.38531162  0.62475784  0.12831553  1
  O  O294  1  0.37968081  0.62556592  0.63839034  1
  O  O295  1  0.88345291  0.12461706  0.13593775  1
  O  O296  1  0.87684906  0.12268143  0.63633867  1
  O  O297  1  0.87956879  0.62052060  0.13574368  1
  O  O298  1  0.88178303  0.61705699  0.63514086  1
  O  O299  1  0.25163415  0.24578536  0.11334777  1
  O  O300  1  0.24906921  0.26031040  0.61846742  1
  O  O301  1  0.25367126  0.76714174  0.12076660  1
  O  O302  1  0.25476721  0.75184326  0.61883881  1
  O  O303  1  0.73973923  0.26604748  0.12475830  1
  O  O304  1  0.74577712  0.26493683  0.63232041  1
  O  O305  1  0.74421273  0.75157361  0.11386600  1
  O  O306  1  0.74197988  0.74853518  0.60860276  1
  O  O307  1  0.24856247  0.24531012  0.38608168  1
  O  O308  1  0.23867521  0.24678170  0.88155891  1
  O  O309  1  0.24308502  0.74078731  0.37812793  1
  O  O310  1  0.25404669  0.77287763  0.88459887  1
  O  O311  1  0.73994709  0.25298361  0.37321871  1
  O  O312  1  0.73778832  0.24100451  0.87235272  1
  O  O313  1  0.73991603  0.74454005  0.38786383  1
  O  O314  1  0.74832039  0.73639032  0.87963103  1
  O  O315  1  0.00494159  0.12415660  0.00768958  1
  O  O316  1  0.00444306  0.11377699  0.49598426  1
  O  O317  1  -0.01428674  0.61479656  0.00919820  1
  O  O318  1  0.00162833  0.61728890  0.50510634  1
  O  O319  1  0.50556222  0.12031315  0.00966545  1
  O  O320  1  0.49696093  0.13205958  0.51199768  1
  O  O321  1  0.50752428  0.63131990  0.00810261  1
  O  O322  1  0.48734696  0.62772901  0.51777548  1
  O  O323  1  0.48834939  0.36427789  0.49245554  1
  O  O324  1  0.48808759  0.36139429  1.00026393  1
  O  O325  1  0.48476900  0.86606505  0.50839036  1
  O  O326  1  0.50844555  0.88090032  0.98592913  1
  O  O327  1  1.00455009  0.38680595  0.48887243  1
  O  O328  1  0.98497483  0.37890740  0.99552639  1
  O  O329  1  0.99526948  0.87701230  0.49084874  1
  O  O330  1  1.00641750  0.88593310  0.99673639  1
  O  O331  1  0.50297545  0.48359126  0.37021467  1
  O  O332  1  0.49532810  0.49146118  0.86673427  1
  O  O333  1  0.48726089  1.00667121  0.37293282  1
  O  O334  1  0.50698047  0.98898905  0.88279327  1
  O  O335  1  0.99362326  0.49665462  0.38030919  1
  O  O336  1  0.98051943  0.49489592  0.87605295  1
  O  O337  1  1.00642517  0.98814799  0.38331571  1
  O  O338  1  1.00024839  0.99149586  0.88368303  1
  O  O339  1  0.00368840  0.01413239  0.11774773  1
  O  O340  1  0.00842566  -0.00237011  0.61177781  1
  O  O341  1  -0.00601876  0.50991547  0.11422349  1
  O  O342  1  -0.00065925  0.50267081  0.61342812  1
  O  O343  1  0.50870396  0.00893427  0.11909075  1
  O  O344  1  0.50448531  0.01243344  0.62445270  1
  O  O345  1  0.51239063  0.51142114  0.13098494  1
  O  O346  1  0.50703332  0.50656534  0.63340237  1
  O  O347  1  0.23492491  0.37031252  0.25324159  1
  O  O348  1  0.24481766  0.37919797  0.74531278  1
  O  O349  1  0.24416291  0.88052597  0.24477935  1
  O  O350  1  0.23697123  0.87784266  0.73952561  1
  O  O351  1  0.74572080  0.38155781  0.24193425  1
  O  O352  1  0.74023481  0.38325337  0.74287025  1
  O  O353  1  0.73360420  0.86916639  0.25531920  1
  O  O354  1  0.74532731  0.87994904  0.75230046  1
  O  O355  1  0.25724843  0.12439868  0.25483394  1
  O  O356  1  0.25547251  0.12032618  0.75167971  1
  O  O357  1  0.25593018  0.63321327  0.25611186  1
  O  O358  1  0.26024154  0.61233059  0.74648131  1
  O  O359  1  0.76524533  0.13254808  0.25168602  1
  O  O360  1  0.75765749  0.11623984  0.75375384  1
  O  O361  1  0.75769315  0.62055329  0.25082614  1
  O  O362  1  0.75229930  0.61657823  0.75424782  1
  O  O363  1  0.37042610  0.11900583  0.37025735  1
  O  O364  1  0.37742009  0.12501279  0.86858546  1
  O  O365  1  0.36580392  0.62382420  0.36596009  1
  O  O366  1  0.38486182  0.61017276  0.86598065  1
  O  O367  1  0.86520657  0.13551061  0.36130467  1
  O  O368  1  0.87001091  0.11868153  0.86621471  1
  O  O369  1  0.87816449  0.61362808  0.36289983  1
  O  O370  1  0.86386505  0.61465985  0.86693179  1
  O  O371  1  0.12404490  0.37596870  0.13412362  1
  O  O372  1  0.13277181  0.37624503  0.63162312  1
  O  O373  1  0.13652417  0.87984127  0.13359711  1
  O  O374  1  0.12703803  0.87689644  0.62866895  1
  O  O375  1  0.62891830  0.38417279  0.12852873  1
  O  O376  1  0.63325190  0.38134585  0.63252995  1
  O  O377  1  0.63027861  0.88288911  0.13312172  1
  O  O378  1  0.62611256  0.87811118  0.64124159  1
  O  O379  1  0.11217639  0.26161377  0.25123595  1
  O  O380  1  0.11729179  0.25260930  0.75817266  1
  O  O381  1  0.11330448  0.75610097  0.25185496  1
  O  O382  1  0.12972998  0.75848840  0.75216541  1
  O  O383  1  0.61631004  0.25669115  0.25845285  1
  O  O384  1  0.61862940  0.25617218  0.75665607  1
  O  O385  1  0.62248399  0.75626933  0.26610932  1
  O  O386  1  0.61364815  0.75490866  0.74542068  1
  O  O387  1  0.38611500  0.23947698  0.26089520  1
  O  O388  1  0.39088614  0.25870465  0.74970022  1
  O  O389  1  0.37811279  0.73891343  0.24517343  1
  O  O390  1  0.38019799  0.74136410  0.74630615  1
  O  O391  1  0.88914688  0.24635095  0.24915952  1
  O  O392  1  0.88038478  0.24055590  0.74830769  1
  O  O393  1  0.88375805  0.74074575  0.25666492  1
  O  O394  1  0.86762560  0.73511034  0.75665360  1
  O  O395  1  0.36743601  0.48602299  0.49837155  1
  O  O396  1  0.37982651  0.48695095  0.98404197  1
  O  O397  1  0.36876090  0.98820593  0.49185363  1
  O  O398  1  0.39041890  1.00561781  1.00725284  1
  O  O399  1  0.88278937  0.49637585  0.48981941  1
  O  O400  1  0.87371153  0.49132755  0.98961067  1
  O  O401  1  0.88757724  0.98647886  0.50389271  1
  O  O402  1  0.89114647  1.00883251  0.99252846  1
  O  O403  1  0.11420384  0.01352973  0.00185814  1
  O  O404  1  0.11607238  0.00150518  0.50495683  1
  O  O405  1  0.09365170  0.48769177  -0.02023983  1
  O  O406  1  0.11423893  0.50692024  0.50030322  1
  O  O407  1  0.61554665  0.00509894  0.00867879  1
  O  O408  1  0.63249211  -0.01454654  0.49300238  1
  O  O409  1  0.63004668  0.51165757  0.01041731  1
  O  O410  1  0.62553221  0.49508266  0.51195308  1
  O  O411  1  0.37804851  0.38736396  0.10934212  1
  O  O412  1  0.36488262  0.37225059  0.61882408  1
  O  O413  1  0.36193836  0.88036707  0.13744840  1
  O  O414  1  0.36799397  0.86596502  0.61600390  1
  O  O415  1  0.86247631  0.38332047  0.11451605  1
  O  O416  1  0.85574099  0.37837006  0.62998667  1
  O  O417  1  0.86563535  0.89207418  0.11522094  1
  O  O418  1  0.87768485  0.87094858  0.61548217  1
  O  O419  1  0.13239687  0.12692297  0.38129270  1
  O  O420  1  0.11152352  0.14252650  0.89236903  1
  O  O421  1  0.12898871  0.63019255  0.37720297  1
  O  O422  1  0.11860758  0.62745921  0.88973146  1
  O  O423  1  0.64254016  0.13880873  0.36761366  1
  O  O424  1  0.62994885  0.12966431  0.88048626  1
  O  O425  1  0.62368877  0.63870857  0.37221652  1
  O  O426  1  0.63228006  0.61481973  0.88283751  1
