# generated using pymatgen
data_V85Zn86O256
_symmetry_space_group_name_H-M   'P 1'
_cell_length_a   16.96578374
_cell_length_b   16.98970326
_cell_length_c   16.99273438
_cell_angle_alpha   90.18131571
_cell_angle_beta   89.84645866
_cell_angle_gamma   90.01780561
_symmetry_Int_Tables_number   1
_chemical_formula_structural   V85Zn86O256
_chemical_formula_sum   'V85 Zn86 O256'
_cell_volume   4898.00512923
_cell_formula_units_Z   1
loop_
 _symmetry_equiv_pos_site_id
 _symmetry_equiv_pos_as_xyz
  1  'x, y, z'
loop_
 _atom_site_type_symbol
 _atom_site_label
 _atom_site_symmetry_multiplicity
 _atom_site_fract_x
 _atom_site_fract_y
 _atom_site_fract_z
 _atom_site_occupancy
  V  V0  1  0.12577189  -0.01032858  0.61710355  1
  V  V1  1  0.12205674  0.62153832  -0.00318821  1
  V  V2  1  0.62507417  0.38077766  0.24787857  1
  V  V3  1  0.62456030  0.25211848  0.37554562  1
  V  V4  1  0.50099391  0.49732703  -0.00999124  1
  V  V5  1  0.74897190  -0.00018670  0.25137778  1
  V  V6  1  0.50263706  0.87446773  0.87604802  1
  V  V7  1  0.12019456  0.12042269  -0.00182073  1
  V  V8  1  0.87164619  0.86549639  0.49646731  1
  V  V9  1  0.37431203  0.25051134  0.12622917  1
  V  V10  1  0.74995342  0.87338079  0.12664541  1
  V  V11  1  0.74656739  0.74610696  0.00281706  1
  V  V12  1  0.75322043  0.37709770  0.62041759  1
  V  V13  1  0.24906278  0.24095637  0.49569717  1
  V  V14  1  -0.00114187  0.12979481  0.12442089  1
  V  V15  1  0.11741791  0.75499814  0.87679732  1
  V  V16  1  0.87985177  0.62715010  0.75112918  1
  V  V17  1  0.24724635  0.37884650  0.62591991  1
  V  V18  1  -0.00009671  0.38038192  0.88033534  1
  V  V19  1  0.49488738  0.75322150  0.25245234  1
  V  V20  1  0.00283031  0.87611255  0.37287278  1
  V  V21  1  0.62724145  0.50191374  0.62317111  1
  V  V22  1  0.87919333  -0.00002484  0.38094308  1
  V  V23  1  0.37257944  0.37733430  0.49803081  1
  V  V24  1  0.87529746  0.25245851  0.61833073  1
  V  V25  1  0.75040627  0.12666362  0.37416170  1
  V  V26  1  0.49876235  -0.00785059  0.49611541  1
  V  V27  1  0.25752149  0.75287188  0.00600885  1
  V  V28  1  0.49572753  0.62808256  0.62542853  1
  V  V29  1  0.25179128  0.24898647  0.00000612  1
  V  V30  1  0.37600777  0.00230614  0.87144128  1
  V  V31  1  0.37756494  0.37850273  -0.01327381  1
  V  V32  1  0.00451206  0.12195169  0.61592563  1
  V  V33  1  0.12778835  0.24163551  0.37198387  1
  V  V34  1  0.37493123  0.50289468  0.37408797  1
  V  V35  1  0.49914796  0.37740889  0.37446257  1
  V  V36  1  0.24241925  -0.00191295  0.25783047  1
  V  V37  1  0.61728499  0.87620928  0.25799654  1
  V  V38  1  0.87457870  0.13135147  0.24483762  1
  V  V39  1  0.87620744  0.74674078  0.62421309  1
  V  V40  1  0.12852440  0.74985588  0.38965529  1
  V  V41  1  0.49744086  0.25154483  0.25068945  1
  V  V42  1  0.74475404  0.62271402  0.88169074  1
  V  V43  1  0.24918837  -0.01016429  0.74822756  1
  V  V44  1  0.88159520  0.50186659  0.38553444  1
  V  V45  1  0.87619745  0.36556825  0.00223798  1
  V  V46  1  0.75387658  0.36616449  0.12430385  1
  V  V47  1  0.75999519  0.50745084  0.24865830  1
  V  V48  1  0.62818808  0.74966268  0.37768771  1
  V  V49  1  0.62706069  0.00000943  0.62661485  1
  V  V50  1  0.25736863  0.61999006  0.87750983  1
  V  V51  1  0.12430967  -0.00812925  0.12283116  1
  V  V52  1  0.25119534  0.37553200  0.12392719  1
  V  V53  1  0.37277657  0.63182438  0.24286994  1
  V  V54  1  0.87496809  0.74549883  0.13358246  1
  V  V55  1  0.62860769  0.12490063  -0.00061669  1
  V  V56  1  0.50725480  0.62609922  0.12224485  1
  V  V57  1  0.24899079  0.50280030  0.25136990  1
  V  V58  1  0.88672927  0.87681147  -0.00488484  1
  V  V59  1  0.37731705  -0.00310491  0.37638347  1
  V  V60  1  0.74874327  0.86994546  0.61947206  1
  V  V61  1  0.49899538  0.50307907  0.49822996  1
  V  V62  1  0.75019354  0.49708486  0.75082403  1
  V  V63  1  0.62388589  -0.00167874  0.12672077  1
  V  V64  1  0.61496073  0.36928453  0.75371738  1
  V  V65  1  0.36867711  0.75779648  0.62282148  1
  V  V66  1  0.12026123  0.37304112  0.25148434  1
  V  V67  1  0.62318681  0.12489384  0.50000911  1
  V  V68  1  0.24789043  0.62986459  0.38538826  1
  V  V69  1  0.37828266  0.24296086  0.62900563  1
  V  V70  1  0.36754130  0.12694100  0.25687545  1
  V  V71  1  0.01219049  0.75310850  0.24727398  1
  V  V72  1  0.49933019  0.00039764  0.00286155  1
  V  V73  1  0.87813682  0.49827297  0.88234040  1
  V  V74  1  0.62547396  0.74845644  0.87825778  1
  V  V75  1  0.75104435  0.25315377  0.49905917  1
  V  V76  1  0.12573518  0.24906086  0.87409376  1
  V  V77  1  0.00068733  0.24963895  0.74860897  1
  V  V78  1  0.87348840  0.12123260  0.74929243  1
  V  V79  1  0.25913109  0.50049891  0.75385155  1
  V  V80  1  0.63770080  0.62884084  0.49901706  1
  V  V81  1  0.25345396  0.12312596  0.86855279  1
  V  V82  1  -0.00243045  0.62351419  0.12817849  1
  V  V83  1  0.12485805  0.38346865  0.74834030  1
  V  V84  1  0.12026978  0.49976215  0.12060211  1
  Zn  Zn85  1  0.25561551  0.86756028  0.13432504  1
  Zn  Zn86  1  0.62066562  0.25375142  0.88165615  1
  Zn  Zn87  1  0.50085378  0.74840053  0.75174099  1
  Zn  Zn88  1  0.75827612  0.63167398  0.37333573  1
  Zn  Zn89  1  0.75239614  -0.00159359  0.75496215  1
  Zn  Zn90  1  0.49842529  0.12550741  0.12727785  1
  Zn  Zn91  1  0.63003994  0.87366161  0.75024620  1
  Zn  Zn92  1  -0.01264319  0.36994120  0.39894176  1
  Zn  Zn93  1  0.49567842  0.12042843  0.63094308  1
  Zn  Zn94  1  0.11377227  0.88040576  0.75972568  1
  Zn  Zn95  1  0.88664943  -0.00497665  0.87661238  1
  Zn  Zn96  1  0.62884533  0.50271497  0.11711241  1
  Zn  Zn97  1  0.48743854  0.23942008  0.76892235  1
  Zn  Zn98  1  0.36765645  0.86893476  0.49911427  1
  Zn  Zn99  1  0.03644027  0.51660807  0.50936723  1
  Zn  Zn100  1  -0.00600138  0.25373535  0.25204429  1
  Zn  Zn101  1  0.38049872  0.62476626  0.75648450  1
  Zn  Zn102  1  0.75190459  0.24595434  -0.00144036  1
  Zn  Zn103  1  0.75217068  0.12348902  0.87495915  1
  Zn  Zn104  1  -0.00510040  0.75598443  0.75537070  1
  Zn  Zn105  1  0.12418414  0.11895281  0.49210229  1
  Zn  Zn106  1  0.37810161  0.87254987  0.00834368  1
  Zn  Zn107  1  0.18699092  0.18438973  0.18538046  1
  Zn  Zn108  1  0.18822332  0.18646304  0.68555527  1
  Zn  Zn109  1  0.18566572  0.68597352  0.18748141  1
  Zn  Zn110  1  0.19430812  0.69522762  0.69705832  1
  Zn  Zn111  1  0.68491960  0.18729010  0.18671459  1
  Zn  Zn112  1  0.68718228  0.18683011  0.68719561  1
  Zn  Zn113  1  0.68347006  0.69025327  0.18962755  1
  Zn  Zn114  1  0.69132243  0.68560699  0.68914442  1
  Zn  Zn115  1  0.30796627  0.31437705  0.31331026  1
  Zn  Zn116  1  0.31040523  0.31111125  0.81113450  1
  Zn  Zn117  1  0.31011548  0.81634412  0.31490465  1
  Zn  Zn118  1  0.31492190  0.80975266  0.81470442  1
  Zn  Zn119  1  0.81151317  0.31822263  0.31352605  1
  Zn  Zn120  1  0.80661608  0.30592816  0.81262648  1
  Zn  Zn121  1  0.81130524  0.81339217  0.31042452  1
  Zn  Zn122  1  0.81040691  0.81513784  0.81088425  1
  Zn  Zn123  1  0.15981517  0.41609647  0.45541338  1
  Zn  Zn124  1  0.18886737  0.43676139  0.93622403  1
  Zn  Zn125  1  0.19050607  0.93222967  0.43714503  1
  Zn  Zn126  1  0.18690821  0.93694438  0.93928306  1
  Zn  Zn127  1  0.69110234  0.44238639  0.43625515  1
  Zn  Zn128  1  0.68678822  0.43579461  0.93932559  1
  Zn  Zn129  1  0.68856124  0.93824120  0.43814961  1
  Zn  Zn130  1  0.69617600  0.93910713  0.93691314  1
  Zn  Zn131  1  0.31081934  0.06154784  0.06565578  1
  Zn  Zn132  1  0.30864456  0.05699550  0.56221169  1
  Zn  Zn133  1  0.31505286  0.56231912  0.06156185  1
  Zn  Zn134  1  0.20315433  0.57124383  0.56239265  1
  Zn  Zn135  1  0.81297721  0.05865099  0.06365259  1
  Zn  Zn136  1  0.81197108  0.06291438  0.56228310  1
  Zn  Zn137  1  0.81380694  0.55824939  0.06428436  1
  Zn  Zn138  1  0.89957171  0.56634570  0.56564836  1
  Zn  Zn139  1  0.43677042  0.44084426  0.18270256  1
  Zn  Zn140  1  0.43593821  0.43768576  0.68234343  1
  Zn  Zn141  1  0.43159498  0.93744243  0.18793335  1
  Zn  Zn142  1  0.44174952  0.93785033  0.69036234  1
  Zn  Zn143  1  0.93680065  0.43663255  0.18600638  1
  Zn  Zn144  1  0.93582429  0.43375654  0.69204738  1
  Zn  Zn145  1  0.93783246  0.93824713  0.18711284  1
  Zn  Zn146  1  0.94246887  0.93479337  0.68554679  1
  Zn  Zn147  1  0.05789364  0.06177449  0.30759788  1
  Zn  Zn148  1  0.05827311  0.05787986  0.80647966  1
  Zn  Zn149  1  0.06117391  0.56659104  0.31479077  1
  Zn  Zn150  1  0.05869808  0.56966631  0.68323380  1
  Zn  Zn151  1  0.55824203  0.06549526  0.31348515  1
  Zn  Zn152  1  0.56203353  0.06557682  0.81069067  1
  Zn  Zn153  1  0.56315490  0.56704655  0.31210992  1
  Zn  Zn154  1  0.56446834  0.55998381  0.81100270  1
  Zn  Zn155  1  0.43739704  0.18424757  0.44067006  1
  Zn  Zn156  1  0.44013564  0.18813143  0.93844548  1
  Zn  Zn157  1  0.43842483  0.68702242  0.43780938  1
  Zn  Zn158  1  0.43926408  0.68474264  0.94114577  1
  Zn  Zn159  1  0.94003554  0.18786215  0.43386211  1
  Zn  Zn160  1  0.94098387  0.18582445  0.93422689  1
  Zn  Zn161  1  0.93903774  0.68345768  0.43207078  1
  Zn  Zn162  1  0.93519092  0.68483256  0.94432155  1
  Zn  Zn163  1  0.06230486  0.30968871  0.06250015  1
  Zn  Zn164  1  0.06190640  0.31155397  0.56261031  1
  Zn  Zn165  1  0.06574780  0.80842372  0.06110411  1
  Zn  Zn166  1  0.05548214  0.81021933  0.56074515  1
  Zn  Zn167  1  0.56011581  0.31418210  0.06250381  1
  Zn  Zn168  1  0.56308928  0.31556968  0.56284267  1
  Zn  Zn169  1  0.56180410  0.81151906  0.06646460  1
  Zn  Zn170  1  0.55871521  0.81197418  0.56019492  1
  O  O171  1  0.11947684  0.11810262  0.11590586  1
  O  O172  1  0.11705057  0.12143935  0.62259839  1
  O  O173  1  0.11949094  0.61722676  0.11798451  1
  O  O174  1  0.13569326  0.62858494  0.63076930  1
  O  O175  1  0.62158623  0.11606896  0.11978850  1
  O  O176  1  0.63022127  0.11410003  0.61567547  1
  O  O177  1  0.61129796  0.62264573  0.12894199  1
  O  O178  1  0.62140943  0.62125799  0.61897120  1
  O  O179  1  0.37937356  0.38169622  0.37719323  1
  O  O180  1  0.36973675  0.37130694  0.88791236  1
  O  O181  1  0.37280074  0.89327303  0.37420434  1
  O  O182  1  0.38595736  0.88254834  0.88282794  1
  O  O183  1  0.88061296  0.39223126  0.36150761  1
  O  O184  1  0.87932566  0.37889589  0.87989595  1
  O  O185  1  0.87732498  0.88017638  0.37904918  1
  O  O186  1  0.87075620  0.86752466  0.89275225  1
  O  O187  1  0.25259418  0.00365572  0.36174444  1
  O  O188  1  0.25636911  0.00496407  0.87161568  1
  O  O189  1  0.25507247  0.51139658  0.35873741  1
  O  O190  1  0.24318886  0.50797643  0.86578168  1
  O  O191  1  0.75718439  0.00685770  0.36987958  1
  O  O192  1  0.76532486  0.00365433  0.87249287  1
  O  O193  1  0.75806656  0.49820205  0.35949340  1
  O  O194  1  0.75578279  0.50539667  0.87198591  1
  O  O195  1  0.24201906  0.49847475  0.13467410  1
  O  O196  1  0.24941971  0.48410014  0.63444831  1
  O  O197  1  0.23778589  1.00092309  0.13426590  1
  O  O198  1  0.23794237  1.00749838  0.63764544  1
  O  O199  1  0.74711457  0.49184958  0.13402217  1
  O  O200  1  0.74611166  0.48937172  0.63470488  1
  O  O201  1  0.74305434  0.99296150  0.13314896  1
  O  O202  1  0.74075066  0.99067758  0.62109010  1
  O  O203  1  0.01405983  0.37206056  0.24116558  1
  O  O204  1  0.00702893  0.36868885  0.75787254  1
  O  O205  1  -0.00915909  0.86469420  0.26212843  1
  O  O206  1  0.00131750  0.86867134  0.75152036  1
  O  O207  1  0.50631843  0.37282572  0.25421712  1
  O  O208  1  0.51373576  0.37718363  0.74221481  1
  O  O209  1  0.50876028  0.86720924  0.24361451  1
  O  O210  1  0.50641315  0.87463323  0.76753225  1
  O  O211  1  0.48921799  0.13340403  0.24874717  1
  O  O212  1  0.50626524  0.13111017  0.74201104  1
  O  O213  1  0.49246917  0.63160752  0.24160635  1
  O  O214  1  0.50108154  0.62348050  0.74118950  1
  O  O215  1  0.98996137  0.12829176  0.24281580  1
  O  O216  1  0.99378932  0.13275867  0.73674703  1
  O  O217  1  1.00640042  0.63641702  0.23600593  1
  O  O218  1  0.98236619  0.63044462  0.75167727  1
  O  O219  1  0.37040874  0.25718500  0.00695930  1
  O  O220  1  0.36714624  0.25698394  0.50389955  1
  O  O221  1  0.36026340  0.74787446  -0.00142673  1
  O  O222  1  0.38904924  0.75252258  0.51667434  1
  O  O223  1  0.87286088  0.26167804  -0.00639269  1
  O  O224  1  0.86920028  0.24592757  0.51028304  1
  O  O225  1  0.86537620  0.75583111  0.01092907  1
  O  O226  1  0.87294974  0.75907245  0.50485453  1
  O  O227  1  0.13321824  0.24887870  0.48926413  1
  O  O228  1  0.13210162  0.24226805  0.99393830  1
  O  O229  1  0.12075674  0.74816348  0.48766005  1
  O  O230  1  0.13387510  0.74076594  0.99452704  1
  O  O231  1  0.62973859  0.24574271  0.49465545  1
  O  O232  1  0.62451605  0.23599681  1.00627155  1
  O  O233  1  0.61630086  0.74311040  0.48639180  1
  O  O234  1  0.63660755  0.75332185  0.99326818  1
  O  O235  1  0.49172742  0.25090443  0.13402926  1
  O  O236  1  0.48265810  0.25294876  0.61756058  1
  O  O237  1  0.50420040  0.73632497  0.13515227  1
  O  O238  1  0.50350325  0.74139982  0.63157433  1
  O  O239  1  1.00670901  0.23486592  0.13078768  1
  O  O240  1  0.99257892  0.24580467  0.62770033  1
  O  O241  1  0.99430541  0.74481971  0.13089132  1
  O  O242  1  0.97952317  0.75329944  0.62679726  1
  O  O243  1  0.00890035  0.25663840  0.37237772  1
  O  O244  1  0.00635912  0.25878333  0.86804443  1
  O  O245  1  0.01043537  0.75304628  0.36585858  1
  O  O246  1  0.01560435  0.73891138  0.88065138  1
  O  O247  1  0.50443292  0.25724510  0.37081983  1
  O  O248  1  0.50711891  0.25242457  0.87826795  1
  O  O249  1  0.51022190  0.74291479  0.35986367  1
  O  O250  1  0.50949039  0.75635689  0.88231274  1
  O  O251  1  0.24729165  0.13835808  0.50413212  1
  O  O252  1  0.24126228  0.12903422  0.99268893  1
  O  O253  1  0.26679550  0.63086348  0.48165866  1
  O  O254  1  0.24457063  0.63110449  0.99820257  1
  O  O255  1  0.74457317  0.13194649  0.49269143  1
  O  O256  1  0.74110523  0.12470928  1.00467174  1
  O  O257  1  0.73608705  0.62386724  0.49743374  1
  O  O258  1  0.75695315  0.63311025  0.99258309  1
  O  O259  1  0.25659705  0.37003285  0.00483088  1
  O  O260  1  0.25131646  0.36439175  0.50971600  1
  O  O261  1  0.25003738  0.85881532  -0.00134973  1
  O  O262  1  0.25777778  0.87928928  0.50309227  1
  O  O263  1  0.75614193  0.37329989  0.00876833  1
  O  O264  1  0.74157035  0.36936412  0.51228564  1
  O  O265  1  0.75463601  0.86244082  0.00900063  1
  O  O266  1  0.75942207  0.87857664  0.50688088  1
  O  O267  1  0.13156347  0.49444683  0.24303176  1
  O  O268  1  0.13054441  0.48565110  0.74696830  1
  O  O269  1  0.13697680  1.00834790  0.24063199  1
  O  O270  1  0.13315655  0.99838525  0.74009001  1
  O  O271  1  0.63195683  0.48897595  0.25251346  1
  O  O272  1  0.63239912  0.49175148  0.74405335  1
  O  O273  1  0.62677469  0.99392890  0.24860363  1
  O  O274  1  0.62720460  0.99762243  0.73652782  1
  O  O275  1  0.36700121  0.00885190  0.25692976  1
  O  O276  1  0.36799391  -0.00604478  0.76401566  1
  O  O277  1  0.36694366  0.50775203  0.25283742  1
  O  O278  1  0.36258256  0.49974728  0.74694991  1
  O  O279  1  0.86804896  0.00694421  0.25864707  1
  O  O280  1  0.87649679  0.01404110  0.74065564  1
  O  O281  1  0.86185916  0.50132936  0.24661920  1
  O  O282  1  0.86709248  0.50545267  0.76183574  1
  O  O283  1  0.12617999  0.36299975  0.35892093  1
  O  O284  1  0.11869646  0.37009915  0.86947203  1
  O  O285  1  0.11426433  0.86325264  0.37886516  1
  O  O286  1  0.12618762  0.85769891  0.88399506  1
  O  O287  1  0.62057083  0.37169948  0.36722180  1
  O  O288  1  0.63108591  0.37792477  0.85560228  1
  O  O289  1  0.62920534  0.86899168  0.36429261  1
  O  O290  1  0.62042431  0.86717230  0.87757741  1
  O  O291  1  0.37578573  0.13236482  0.13449768  1
  O  O292  1  0.37233117  0.14075946  0.61953023  1
  O  O293  1  0.38320447  0.62129968  0.13803732  1
  O  O294  1  0.39238006  0.63685783  0.62770481  1
  O  O295  1  0.88580101  0.11346974  0.13451615  1
  O  O296  1  0.88159270  0.13294011  0.62801716  1
  O  O297  1  0.88665123  0.63324971  0.11502324  1
  O  O298  1  0.85525127  0.63716495  0.64143252  1
  O  O299  1  0.25396549  0.25528015  0.11896281  1
  O  O300  1  0.25991145  0.25636912  0.61968525  1
  O  O301  1  0.24013153  0.74997214  0.11008450  1
  O  O302  1  0.27042356  0.74706544  0.62989264  1
  O  O303  1  0.74839945  0.26314433  0.12629043  1
  O  O304  1  0.75671622  0.25685979  0.61902293  1
  O  O305  1  0.75541082  0.75049224  0.12142683  1
  O  O306  1  0.75611710  0.76289151  0.62928576  1
  O  O307  1  0.24117782  0.25463410  0.38423148  1
  O  O308  1  0.24675022  0.24071889  0.87918593  1
  O  O309  1  0.23479350  0.74700382  0.36760600  1
  O  O310  1  0.24248914  0.74105777  0.88616204  1
  O  O311  1  0.74480355  0.24741865  0.37949632  1
  O  O312  1  0.73866976  0.24304454  0.87909987  1
  O  O313  1  0.73452321  0.74621345  0.36227402  1
  O  O314  1  0.74471825  0.74232131  0.88429531  1
  O  O315  1  0.01221596  0.13103422  0.00749147  1
  O  O316  1  0.00125109  0.12848315  0.51177679  1
  O  O317  1  0.01244809  0.62987747  0.01366387  1
  O  O318  1  -0.01500923  0.61837447  0.50814561  1
  O  O319  1  0.50758490  0.11255098  0.00358746  1
  O  O320  1  0.50757089  0.11680800  0.50576532  1
  O  O321  1  0.49140707  0.61433080  0.01627163  1
  O  O322  1  0.50831204  0.61930681  0.50714912  1
  O  O323  1  0.49611855  0.38253253  0.49268018  1
  O  O324  1  0.49102710  0.38828705  1.00645661  1
  O  O325  1  0.49448746  0.88947463  0.50167937  1
  O  O326  1  0.50369523  0.88405488  0.99327559  1
  O  O327  1  1.03922764  0.39731685  0.49506061  1
  O  O328  1  0.99291125  0.36821273  0.99002518  1
  O  O329  1  0.98588579  0.86980473  0.48330557  1
  O  O330  1  0.98502300  0.86519144  1.00595700  1
  O  O331  1  0.49479728  0.49700460  0.37673558  1
  O  O332  1  0.49881684  0.51164254  0.89196109  1
  O  O333  1  0.49109679  1.00641314  0.38455550  1
  O  O334  1  0.49527264  0.99369548  0.88302137  1
  O  O335  1  0.98760182  0.50231484  0.37333863  1
  O  O336  1  0.98780079  0.48446299  0.87052976  1
  O  O337  1  0.98991576  0.98944246  0.36565774  1
  O  O338  1  0.99701771  1.00688886  0.88036781  1
  O  O339  1  0.01745313  0.00971549  0.13625459  1
  O  O340  1  0.01630818  0.00984084  0.62887787  1
  O  O341  1  0.01195083  0.50875316  0.13234244  1
  O  O342  1  -0.01437198  0.50578300  0.62383834  1
  O  O343  1  0.50502399  -0.00124458  0.11629081  1
  O  O344  1  0.51015136  -0.00045591  0.61723432  1
  O  O345  1  0.50426839  0.51325730  0.12458133  1
  O  O346  1  0.50658971  0.50767718  0.61815675  1
  O  O347  1  0.24251389  0.38508830  0.24405209  1
  O  O348  1  0.24371237  0.38104606  0.74725801  1
  O  O349  1  0.25191609  0.89375991  0.24965912  1
  O  O350  1  0.24274665  0.88700805  0.76127125  1
  O  O351  1  0.74360431  0.38378079  0.24237788  1
  O  O352  1  0.74382303  0.37911481  0.74026579  1
  O  O353  1  0.74000572  0.88038701  0.24522860  1
  O  O354  1  0.75011727  0.88013555  0.73649321  1
  O  O355  1  0.25989077  0.11517534  0.24433029  1
  O  O356  1  0.24423746  0.11611233  0.76431733  1
  O  O357  1  0.25600061  0.62037811  0.25103957  1
  O  O358  1  0.25360064  0.61491123  0.76161784  1
  O  O359  1  0.75485802  0.12003052  0.25394025  1
  O  O360  1  0.76162532  0.12318804  0.74673017  1
  O  O361  1  0.74051777  0.60820262  0.24703212  1
  O  O362  1  0.75549095  0.61712128  0.76370976  1
  O  O363  1  0.37672251  0.11796629  0.36448963  1
  O  O364  1  0.36463442  0.11435358  0.88322759  1
  O  O365  1  0.36949847  0.62249359  0.36185510  1
  O  O366  1  0.36173935  0.62876326  0.87724859  1
  O  O367  1  0.87141605  0.11737457  0.36771029  1
  O  O368  1  0.87666738  0.12998110  0.85788179  1
  O  O369  1  0.87074812  0.60963168  0.37176943  1
  O  O370  1  0.86686607  0.61780080  0.87308565  1
  O  O371  1  0.13087437  0.38182094  0.12864642  1
  O  O372  1  0.13760946  0.36048344  0.63922174  1
  O  O373  1  0.12648349  0.88979143  0.11907286  1
  O  O374  1  0.11762331  0.88860883  0.62169880  1
  O  O375  1  0.63254752  0.37670286  0.13491159  1
  O  O376  1  0.63318132  0.38101697  0.63207968  1
  O  O377  1  0.62993022  0.87832579  0.13620632  1
  O  O378  1  0.63245530  0.88186189  0.62179944  1
  O  O379  1  0.12920160  0.25690376  0.25501482  1
  O  O380  1  0.12170384  0.25661421  0.75698659  1
  O  O381  1  0.11474899  0.75596961  0.24703285  1
  O  O382  1  0.12575317  0.75195835  0.76969110  1
  O  O383  1  0.61990498  0.26027057  0.25550858  1
  O  O384  1  0.62340668  0.26507609  0.74351455  1
  O  O385  1  0.61577886  0.75857933  0.25563308  1
  O  O386  1  0.62679892  0.75138545  0.76714694  1
  O  O387  1  0.37591613  0.24520063  0.24760188  1
  O  O388  1  0.37503247  0.25844804  0.73291462  1
  O  O389  1  0.38199598  0.74345236  0.25729904  1
  O  O390  1  0.38133731  0.74615303  0.74309877  1
  O  O391  1  0.87154698  0.23488732  0.25589653  1
  O  O392  1  0.87956819  0.24285506  0.73812408  1
  O  O393  1  0.88032161  0.75121673  0.23759160  1
  O  O394  1  0.87089144  0.74203741  0.74518274  1
  O  O395  1  0.38265757  0.49235883  0.48850261  1
  O  O396  1  0.38612858  0.48997370  1.00820404  1
  O  O397  1  0.38306662  1.00580950  0.49208581  1
  O  O398  1  0.38438053  1.00111381  0.99177484  1
  O  O399  1  0.86370376  0.49333444  0.48330083  1
  O  O400  1  0.86959640  0.48886201  0.98789672  1
  O  O401  1  0.87062329  0.99311371  0.48554434  1
  O  O402  1  0.87144757  0.97888293  1.00612373  1
  O  O403  1  0.13334080  0.00927268  0.01329182  1
  O  O404  1  0.13426323  0.00407250  0.51363232  1
  O  O405  1  0.13335287  0.50661005  0.01249167  1
  O  O406  1  0.14561353  0.52216275  0.47925594  1
  O  O407  1  0.61896938  0.00350983  0.00692183  1
  O  O408  1  0.61803212  0.00423935  0.50414239  1
  O  O409  1  0.60791334  0.49211705  0.00208788  1
  O  O410  1  0.61979958  0.50817961  0.50298829  1
  O  O411  1  0.36777609  0.36896201  0.12159956  1
  O  O412  1  0.36583419  0.36769421  0.61685073  1
  O  O413  1  0.36785023  0.87928017  0.11966234  1
  O  O414  1  0.38462306  0.86060460  0.62958289  1
  O  O415  1  0.86745648  0.38189105  0.11287743  1
  O  O416  1  0.86473903  0.36282992  0.63238471  1
  O  O417  1  0.86944097  0.86489852  0.12056186  1
  O  O418  1  0.86815127  0.87007457  0.61428081  1
  O  O419  1  0.11674809  0.13703036  0.37312554  1
  O  O420  1  0.13256034  0.12863427  0.88234208  1
  O  O421  1  0.13259037  0.64274723  0.36585805  1
  O  O422  1  0.13843673  0.63393734  0.88991876  1
  O  O423  1  0.63077513  0.13223851  0.37860196  1
  O  O424  1  0.62745088  0.11744617  0.89187209  1
  O  O425  1  0.62756640  0.63193143  0.38157520  1
  O  O426  1  0.63680538  0.63170454  0.87359677  1
