# generated using pymatgen
data_V85Zn86O256
_symmetry_space_group_name_H-M   'P 1'
_cell_length_a   16.96804736
_cell_length_b   16.98543886
_cell_length_c   16.98694753
_cell_angle_alpha   90.08774027
_cell_angle_beta   90.08362994
_cell_angle_gamma   89.99434634
_symmetry_Int_Tables_number   1
_chemical_formula_structural   V85Zn86O256
_chemical_formula_sum   'V85 Zn86 O256'
_cell_volume   4895.79260181
_cell_formula_units_Z   1
loop_
 _symmetry_equiv_pos_site_id
 _symmetry_equiv_pos_as_xyz
  1  'x, y, z'
loop_
 _atom_site_type_symbol
 _atom_site_label
 _atom_site_symmetry_multiplicity
 _atom_site_fract_x
 _atom_site_fract_y
 _atom_site_fract_z
 _atom_site_occupancy
  V  V0  1  0.13086498  0.50098605  0.63107597  1
  V  V1  1  0.50475778  0.74963971  0.75218493  1
  V  V2  1  0.62548253  0.61764333  0.49912991  1
  V  V3  1  -0.00014011  0.37458943  0.37356553  1
  V  V4  1  0.87393154  -0.00403808  0.38405418  1
  V  V5  1  0.62911182  0.12067307  0.00558028  1
  V  V6  1  0.75487463  0.87594657  0.62222885  1
  V  V7  1  0.87333913  0.49802571  0.37551322  1
  V  V8  1  -0.00334759  0.50145025  -0.00745152  1
  V  V9  1  0.37056048  0.50168326  0.86831906  1
  V  V10  1  0.25422465  0.74772366  0.00376590  1
  V  V11  1  0.50424410  -0.00007833  0.01155188  1
  V  V12  1  0.12912428  0.36846122  0.75203925  1
  V  V13  1  0.12480572  0.24933360  0.37447079  1
  V  V14  1  0.74853623  0.75319066  0.49875902  1
  V  V15  1  0.12473674  0.37415986  0.25058242  1
  V  V16  1  0.50160305  0.49925261  -0.00135124  1
  V  V17  1  0.49984101  -0.00079010  0.50252226  1
  V  V18  1  0.74404935  0.88095773  0.12561660  1
  V  V19  1  0.74567130  0.49730347  0.24914216  1
  V  V20  1  0.00017697  0.87559399  0.87066856  1
  V  V21  1  0.12484048  0.49983202  0.12547044  1
  V  V22  1  -0.00221184  0.75069134  0.25100182  1
  V  V23  1  0.12896339  0.87689279  0.75159148  1
  V  V24  1  0.74565768  0.75112150  -0.00967852  1
  V  V25  1  -0.00098400  0.62524788  0.12526441  1
  V  V26  1  0.12631816  0.62575243  0.00013737  1
  V  V27  1  0.37721700  0.87620158  0.50111555  1
  V  V28  1  0.25587856  0.37793267  0.62484320  1
  V  V29  1  0.25246778  0.87052925  0.12697422  1
  V  V30  1  0.00213723  0.50165130  0.50137705  1
  V  V31  1  -0.00492776  0.87801901  0.38691433  1
  V  V32  1  0.25523684  0.50064555  0.25596788  1
  V  V33  1  0.61439169  0.24934006  0.87075088  1
  V  V34  1  0.87549282  0.12529035  0.24759458  1
  V  V35  1  0.87417571  0.37029745  0.51111883  1
  V  V36  1  0.48256555  0.49603436  0.49607306  1
  V  V37  1  0.13252333  0.12533420  -0.00351894  1
  V  V38  1  0.62312735  0.25586302  0.36837485  1
  V  V39  1  0.87199781  0.00643565  0.87485635  1
  V  V40  1  0.49586610  0.12850024  0.64007732  1
  V  V41  1  0.12290104  0.74979534  0.37685442  1
  V  V42  1  0.37864052  0.24848146  0.64197058  1
  V  V43  1  0.76237258  0.61234328  0.86735501  1
  V  V44  1  0.48717629  0.37732894  0.37147544  1
  V  V45  1  0.25167895  0.62524038  0.37676771  1
  V  V46  1  0.49720814  0.63096636  0.12405229  1
  V  V47  1  0.50442663  0.74868936  0.25353849  1
  V  V48  1  0.75297624  0.37537320  0.12335193  1
  V  V49  1  0.62223005  0.12873460  0.50164371  1
  V  V50  1  0.25074300  0.37532175  0.12568196  1
  V  V51  1  0.87556666  0.87408858  0.00212165  1
  V  V52  1  0.50692662  0.86866903  0.37854140  1
  V  V53  1  0.37115252  0.01015068  0.87210864  1
  V  V54  1  0.87246773  0.75017365  0.12557782  1
  V  V55  1  0.12519347  -0.00181790  0.12621192  1
  V  V56  1  0.87411680  0.38105077  -0.01114857  1
  V  V57  1  0.25008029  -0.00164772  0.25133118  1
  V  V58  1  0.26081500  0.25239026  0.49817544  1
  V  V59  1  0.37850784  0.37403464  0.00224423  1
  V  V60  1  0.87835120  0.74577290  0.62849985  1
  V  V61  1  0.62384787  0.62966226  -0.00919925  1
  V  V62  1  0.75249121  0.00833813  0.75727824  1
  V  V63  1  0.24975805  0.24735196  -0.00253386  1
  V  V64  1  0.00746238  0.36693584  0.87560062  1
  V  V65  1  0.38195980  0.12819738  0.24598253  1
  V  V66  1  0.62391576  -0.00195038  0.63053969  1
  V  V67  1  0.25332979  0.87751221  0.62859159  1
  V  V68  1  0.12395140  0.87439945  0.25143512  1
  V  V69  1  0.00162176  0.00445313  0.00217626  1
  V  V70  1  0.12075244  -0.00133144  0.61963887  1
  V  V71  1  0.37605129  0.75014614  0.62632514  1
  V  V72  1  0.12640056  0.75122458  0.87633023  1
  V  V73  1  0.62391123  0.88080376  0.24808147  1
  V  V74  1  0.37644510  0.87071687  0.00560525  1
  V  V75  1  0.11556596  0.11950102  0.49723992  1
  V  V76  1  0.37459352  0.62976264  0.24872684  1
  V  V77  1  0.87289103  0.62474789  0.25004403  1
  V  V78  1  0.75132062  0.25724467  0.51165347  1
  V  V79  1  0.62564141  0.41217335  0.71545618  1
  V  V80  1  0.25108480  0.12274557  0.37513783  1
  V  V81  1  0.74906885  0.24724506  -0.00860862  1
  V  V82  1  0.50451153  0.62000639  0.62432161  1
  V  V83  1  0.74312918  0.63047731  0.37312214  1
  V  V84  1  0.50457011  0.87034913  0.87664957  1
  Zn  Zn85  1  0.38600450  0.25544284  0.13073438  1
  Zn  Zn86  1  0.87944994  0.24795106  0.11425243  1
  Zn  Zn87  1  0.18758342  0.18768043  0.83211848  1
  Zn  Zn88  1  -0.00114241  0.61985823  0.63560070  1
  Zn  Zn89  1  0.74926816  0.12486127  0.37415170  1
  Zn  Zn90  1  0.36895152  0.61669821  0.74279811  1
  Zn  Zn91  1  0.50027656  0.37008550  0.85857161  1
  Zn  Zn92  1  0.62549390  0.50054689  0.12255168  1
  Zn  Zn93  1  0.61518704  0.36720587  0.23994997  1
  Zn  Zn94  1  0.00489548  0.12840852  0.12716222  1
  Zn  Zn95  1  0.62749882  0.86999436  0.75809285  1
  Zn  Zn96  1  0.24768215  0.75079931  0.50063801  1
  Zn  Zn97  1  -0.00755230  0.74069249  0.75739930  1
  Zn  Zn98  1  -0.00133635  0.25172556  0.24701308  1
  Zn  Zn99  1  0.25270851  0.02206244  0.75427906  1
  Zn  Zn100  1  -0.02491931  0.25004575  0.73313017  1
  Zn  Zn101  1  0.24628730  0.62052051  0.86644785  1
  Zn  Zn102  1  0.74480792  0.00434520  0.24664813  1
  Zn  Zn103  1  0.12364193  0.62687797  0.50289407  1
  Zn  Zn104  1  0.37643260  -0.00138835  0.37532468  1
  Zn  Zn105  1  -0.01307067  0.13540874  0.62740519  1
  Zn  Zn106  1  0.51342977  0.13546660  0.13428221  1
  Zn  Zn107  1  0.19273131  0.18753284  0.18439056  1
  Zn  Zn108  1  0.18125672  0.18825122  0.67150000  1
  Zn  Zn109  1  0.18585834  0.68824467  0.18809918  1
  Zn  Zn110  1  0.18659795  0.68669376  0.69076640  1
  Zn  Zn111  1  0.69373903  0.18870932  0.18352449  1
  Zn  Zn112  1  0.68911003  0.18720725  0.69089762  1
  Zn  Zn113  1  0.68321275  0.69054614  0.18246748  1
  Zn  Zn114  1  0.68864909  0.68434264  0.68701266  1
  Zn  Zn115  1  0.31021260  0.30951073  0.31180637  1
  Zn  Zn116  1  0.31362900  0.32015791  0.81280690  1
  Zn  Zn117  1  0.31639202  0.80992914  0.31385201  1
  Zn  Zn118  1  0.31594653  0.81407308  0.81608740  1
  Zn  Zn119  1  0.80979939  0.31045005  0.31754247  1
  Zn  Zn120  1  0.79519520  0.32179923  0.79330693  1
  Zn  Zn121  1  0.81031375  0.81367530  0.31244198  1
  Zn  Zn122  1  0.81190646  0.81906613  0.80881094  1
  Zn  Zn123  1  0.18868249  0.43630510  0.44020284  1
  Zn  Zn124  1  0.18795501  0.43605396  0.93897526  1
  Zn  Zn125  1  0.18859002  0.93534048  0.43753403  1
  Zn  Zn126  1  0.19071114  0.93802512  0.93902546  1
  Zn  Zn127  1  0.68503192  0.43685101  0.44020281  1
  Zn  Zn128  1  0.68516670  0.43580347  0.93018161  1
  Zn  Zn129  1  0.68817546  0.93892364  0.43610277  1
  Zn  Zn130  1  0.68621810  0.93725583  0.94012505  1
  Zn  Zn131  1  0.31465219  0.05848156  0.06254868  1
  Zn  Zn132  1  0.31126288  0.06531577  0.56442448  1
  Zn  Zn133  1  0.31343704  0.56200299  0.06345617  1
  Zn  Zn134  1  0.31219538  0.56388318  0.56092950  1
  Zn  Zn135  1  0.81335104  0.06360008  0.06074586  1
  Zn  Zn136  1  0.80753706  0.07110498  0.56154579  1
  Zn  Zn137  1  0.81074412  0.56428727  0.05855866  1
  Zn  Zn138  1  0.81813516  0.56625782  0.55884397  1
  Zn  Zn139  1  0.43769101  0.44258690  0.18755476  1
  Zn  Zn140  1  0.44329663  0.43127929  0.68393936  1
  Zn  Zn141  1  0.43611315  0.93755642  0.19069589  1
  Zn  Zn142  1  0.43880428  0.93927436  0.69284109  1
  Zn  Zn143  1  0.93592598  0.43763796  0.18397849  1
  Zn  Zn144  1  0.94472201  0.43216889  0.68714222  1
  Zn  Zn145  1  0.93510758  0.93846840  0.19168906  1
  Zn  Zn146  1  0.91575357  0.97055923  0.66071452  1
  Zn  Zn147  1  0.05887580  0.06067240  0.31473654  1
  Zn  Zn148  1  0.05533756  0.06276858  0.80830282  1
  Zn  Zn149  1  0.06390805  0.56194844  0.31351176  1
  Zn  Zn150  1  0.06386646  0.56304435  0.81088091  1
  Zn  Zn151  1  0.56140403  0.05951487  0.31781169  1
  Zn  Zn152  1  0.56363840  0.06166588  0.82393390  1
  Zn  Zn153  1  0.56152302  0.55900046  0.31415752  1
  Zn  Zn154  1  0.56108422  0.56412195  0.81106178  1
  Zn  Zn155  1  0.43981228  0.18709672  0.43482077  1
  Zn  Zn156  1  0.44197059  0.18563579  0.94426897  1
  Zn  Zn157  1  0.43570666  0.68666942  0.43745800  1
  Zn  Zn158  1  0.43611308  0.68678327  0.93549841  1
  Zn  Zn159  1  0.93513269  0.18784631  0.43395291  1
  Zn  Zn160  1  0.90163568  0.21508896  0.88880339  1
  Zn  Zn161  1  0.93198790  0.69001456  0.43988805  1
  Zn  Zn162  1  0.93580642  0.68778674  0.93696800  1
  Zn  Zn163  1  0.06186400  0.30958241  0.06150752  1
  Zn  Zn164  1  0.06622969  0.31047757  0.56183656  1
  Zn  Zn165  1  0.06314855  0.81312398  0.06241592  1
  Zn  Zn166  1  0.06346170  0.81440906  0.56333628  1
  Zn  Zn167  1  0.56458412  0.30894703  0.06178402  1
  Zn  Zn168  1  0.55778940  0.31538009  0.56114818  1
  Zn  Zn169  1  0.56276870  0.81081249  0.06450670  1
  Zn  Zn170  1  0.56734258  0.80744522  0.56231469  1
  O  O171  1  0.12627958  0.11554377  0.11734403  1
  O  O172  1  0.12220348  0.11293917  0.61070110  1
  O  O173  1  0.11829458  0.62047471  0.12059366  1
  O  O174  1  0.12492293  0.61491964  0.62164291  1
  O  O175  1  0.62896604  0.12637685  0.11324910  1
  O  O176  1  0.61786029  0.11912579  0.61907495  1
  O  O177  1  0.61550093  0.62206846  0.11478973  1
  O  O178  1  0.61070226  0.62987731  0.61548477  1
  O  O179  1  0.38859339  0.36853876  0.37180088  1
  O  O180  1  0.38268305  0.38430298  0.88404052  1
  O  O181  1  0.38631452  0.87502699  0.38261292  1
  O  O182  1  0.38454461  0.88057871  0.88787074  1
  O  O183  1  0.87986110  0.38009134  0.38204511  1
  O  O184  1  0.88582734  0.38095445  0.88686211  1
  O  O185  1  0.88015033  0.88735321  0.36673472  1
  O  O186  1  0.88301053  0.88018845  0.88289088  1
  O  O187  1  0.25233884  0.00404040  0.36871529  1
  O  O188  1  0.26651452  -0.00549929  0.87663806  1
  O  O189  1  0.24134300  0.50985518  0.36462577  1
  O  O190  1  0.26752365  0.49735241  0.88122361  1
  O  O191  1  0.75923136  0.00084859  0.36898867  1
  O  O192  1  0.75435784  -0.00819879  0.86435124  1
  O  O193  1  0.75339037  0.50636357  0.36726088  1
  O  O194  1  0.74833141  0.51308165  0.87843802  1
  O  O195  1  0.24451003  0.49631985  0.13404734  1
  O  O196  1  0.24282052  0.48968248  0.61363826  1
  O  O197  1  0.24454426  0.99025152  0.13079943  1
  O  O198  1  0.24621336  0.99009266  0.63038750  1
  O  O199  1  0.75132964  0.49390813  0.13260825  1
  O  O200  1  0.79009350  0.50313059  0.65991930  1
  O  O201  1  0.75507242  0.98387921  0.12457637  1
  O  O202  1  0.74077249  0.99435540  0.63397942  1
  O  O203  1  0.00601682  0.37747193  0.25585156  1
  O  O204  1  0.00836354  0.37262707  0.75977319  1
  O  O205  1  0.00507385  0.86831224  0.25657299  1
  O  O206  1  0.00891641  0.87498721  0.76543737  1
  O  O207  1  0.50325493  0.38839667  0.26603191  1
  O  O208  1  0.52639481  0.38218488  0.74629276  1
  O  O209  1  0.50399391  0.86805179  0.25683754  1
  O  O210  1  0.50185205  0.86826642  0.75928948  1
  O  O211  1  0.48598169  0.11521417  0.25092950  1
  O  O212  1  0.50745501  0.11919035  0.73797598  1
  O  O213  1  0.49525191  0.62858913  0.24627125  1
  O  O214  1  0.49243440  0.63191084  0.74030673  1
  O  O215  1  0.98790270  0.12574416  0.24887474  1
  O  O216  1  1.01549655  0.13990996  0.74249343  1
  O  O217  1  0.99336194  0.62927902  0.24572205  1
  O  O218  1  1.00134717  0.62916027  0.74802595  1
  O  O219  1  0.37050113  0.26184261  0.00137639  1
  O  O220  1  0.36331681  0.24524027  0.50018671  1
  O  O221  1  0.36618619  0.75839422  -0.00471400  1
  O  O222  1  0.37604652  0.75673921  0.51183410  1
  O  O223  1  0.86464211  0.26176802  -0.00687039  1
  O  O224  1  0.85791736  0.25381620  0.49153224  1
  O  O225  1  0.86697743  0.75582152  0.00680045  1
  O  O226  1  0.85876640  0.74779042  0.51083382  1
  O  O227  1  0.13578488  0.23982110  0.49366221  1
  O  O228  1  0.13748791  0.23888294  1.00795705  1
  O  O229  1  0.12645338  0.74693312  0.49253858  1
  O  O230  1  0.13290612  0.74610263  0.99606039  1
  O  O231  1  0.63200026  0.24580894  0.49537200  1
  O  O232  1  0.63200693  0.24043767  0.99589156  1
  O  O233  1  0.63763107  0.73480447  0.50483674  1
  O  O234  1  0.63413471  0.74118959  1.00572127  1
  O  O235  1  0.49835502  0.24902566  0.12793330  1
  O  O236  1  0.48540390  0.24463281  0.61894046  1
  O  O237  1  0.50197153  0.73792963  0.13434340  1
  O  O238  1  0.49270921  0.74268434  0.62875083  1
  O  O239  1  0.99509345  0.24675340  0.12903351  1
  O  O240  1  0.99525190  0.24969709  0.62032500  1
  O  O241  1  0.99389421  0.74529994  0.12991444  1
  O  O242  1  0.98392654  0.75492981  0.62071997  1
  O  O243  1  0.00713094  0.25758049  0.37241589  1
  O  O244  1  0.00892523  0.26785106  0.88745194  1
  O  O245  1  0.00049926  0.75603042  0.37011169  1
  O  O246  1  0.00656529  0.76083075  0.88013653  1
  O  O247  1  0.51209549  0.26571632  0.38585505  1
  O  O248  1  0.50881704  0.25022313  0.87877688  1
  O  O249  1  0.49660933  0.75811435  0.36788691  1
  O  O250  1  0.49024789  0.75764802  0.86389950  1
  O  O251  1  0.24420451  0.13230015  0.49370032  1
  O  O252  1  0.24535412  0.13400094  1.00685800  1
  O  O253  1  0.24934018  0.62769685  0.48742413  1
  O  O254  1  0.24598409  0.63275346  0.99963425  1
  O  O255  1  0.73801209  0.13584971  0.49796670  1
  O  O256  1  0.74505541  0.13633048  1.00484137  1
  O  O257  1  0.74426942  0.62743074  0.49284298  1
  O  O258  1  0.74276312  0.63233302  0.99235084  1
  O  O259  1  0.25850072  0.37026533  0.00651735  1
  O  O260  1  0.24312928  0.36324605  0.51099024  1
  O  O261  1  0.25740606  0.86735539  0.00649858  1
  O  O262  1  0.25746505  0.87373627  0.51158832  1
  O  O263  1  0.75714979  0.37392574  0.00545869  1
  O  O264  1  0.75655985  0.36416541  0.49676509  1
  O  O265  1  0.75269719  0.86899210  0.00707123  1
  O  O266  1  0.73632302  0.86435973  0.50950638  1
  O  O267  1  0.13365484  0.49530511  0.24481638  1
  O  O268  1  0.12151935  0.48989911  0.73632161  1
  O  O269  1  0.12967375  0.99384421  0.24610857  1
  O  O270  1  0.12938956  0.98713799  0.74418172  1
  O  O271  1  0.63769903  0.49777321  0.24834684  1
  O  O272  1  0.62180831  0.51245600  0.73082984  1
  O  O273  1  0.62455911  0.98592859  0.25395963  1
  O  O274  1  0.63346779  0.99941525  0.74557874  1
  O  O275  1  0.36729804  0.00700546  0.25277304  1
  O  O276  1  0.37385248  -0.00395994  0.76722205  1
  O  O277  1  0.36213044  0.51101385  0.24762550  1
  O  O278  1  0.38535729  0.49390914  0.76614071  1
  O  O279  1  0.87060794  0.01186259  0.25466879  1
  O  O280  1  0.85883806  -0.01346428  0.76224870  1
  O  O281  1  0.86508626  0.50490327  0.25410739  1
  O  O282  1  0.84536604  0.50069387  0.71327680  1
  O  O283  1  0.12063278  0.37002355  0.36993414  1
  O  O284  1  0.12054213  0.38542662  0.86284815  1
  O  O285  1  0.11655509  0.87037715  0.37016520  1
  O  O286  1  0.12065405  0.87297046  0.87040650  1
  O  O287  1  0.62094899  0.36434383  0.37351859  1
  O  O288  1  0.61554559  0.35670297  0.88906260  1
  O  O289  1  0.61374787  0.87630642  0.36813662  1
  O  O290  1  0.60909813  0.87712016  0.87767600  1
  O  O291  1  0.37426475  0.12204224  0.14032337  1
  O  O292  1  0.38110197  0.13851856  0.62389941  1
  O  O293  1  0.38502566  0.62023263  0.13565730  1
  O  O294  1  0.38393432  0.63420008  0.62135386  1
  O  O295  1  0.87615073  0.12551268  0.13746555  1
  O  O296  1  0.89178992  0.07760251  0.62918156  1
  O  O297  1  0.87884675  0.63021831  0.12997497  1
  O  O298  1  0.87556070  0.64250422  0.62393351  1
  O  O299  1  0.25871928  0.25842522  0.11661660  1
  O  O300  1  0.26301931  0.25600853  0.61717107  1
  O  O301  1  0.24406768  0.75492061  0.11306751  1
  O  O302  1  0.25995295  0.75985942  0.62466298  1
  O  O303  1  0.75484142  0.26169864  0.11455202  1
  O  O304  1  0.74496771  0.24630610  0.61046611  1
  O  O305  1  0.75442105  0.75746146  0.11630138  1
  O  O306  1  0.75628206  0.75672817  0.62005836  1
  O  O307  1  0.24433698  0.24467433  0.38127357  1
  O  O308  1  0.25395539  0.25937450  0.89176453  1
  O  O309  1  0.24273682  0.74240212  0.37461556  1
  O  O310  1  0.24451553  0.75292662  0.88851192  1
  O  O311  1  0.73483004  0.24810852  0.38563212  1
  O  O312  1  0.73770261  0.25935319  0.88911549  1
  O  O313  1  0.75722638  0.73873419  0.38311025  1
  O  O314  1  0.75487915  0.75144849  0.88847914  1
  O  O315  1  0.01034257  0.10837077  0.00468417  1
  O  O316  1  0.01391981  0.12757032  0.49373390  1
  O  O317  1  0.00478666  0.61955318  0.00557721  1
  O  O318  1  -0.00371590  0.61064492  0.50154549  1
  O  O319  1  0.50807087  0.11455885  0.00883212  1
  O  O320  1  0.50821646  0.12091556  0.50789512  1
  O  O321  1  0.50361225  0.62180802  0.00593029  1
  O  O322  1  0.50476426  0.61579719  0.50108808  1
  O  O323  1  0.50123981  0.39044730  0.49061591  1
  O  O324  1  0.49102068  0.38642678  1.00641336  1
  O  O325  1  0.49915734  0.87691339  0.49569878  1
  O  O326  1  0.49465923  0.87688513  0.99708042  1
  O  O327  1  0.99459276  0.38345350  0.49279621  1
  O  O328  1  0.99588738  0.38400614  0.99644227  1
  O  O329  1  1.00068624  0.87218778  0.48563057  1
  O  O330  1  0.99822805  0.88352443  0.99261512  1
  O  O331  1  0.50341729  0.49047139  0.38609146  1
  O  O332  1  0.49271695  0.49997486  0.88702837  1
  O  O333  1  0.49883767  0.98774293  0.38534408  1
  O  O334  1  0.49067564  0.99026464  0.88529505  1
  O  O335  1  0.99498978  0.49568960  0.38216132  1
  O  O336  1  1.00694033  0.49471447  0.88940565  1
  O  O337  1  0.98542096  0.99103888  0.37000713  1
  O  O338  1  0.99371506  0.99191816  0.88258038  1
  O  O339  1  0.00656203  -0.00468388  0.11658927  1
  O  O340  1  0.02336169  -0.01993715  0.62438522  1
  O  O341  1  0.00581979  0.50618033  0.11798341  1
  O  O342  1  0.01026695  0.49753025  0.61598607  1
  O  O343  1  0.49792345  -0.00301275  0.11338575  1
  O  O344  1  0.50613845  0.00717398  0.62271656  1
  O  O345  1  0.50122348  0.51117415  0.11582668  1
  O  O346  1  0.48891396  0.51002863  0.60859382  1
  O  O347  1  0.24683149  0.38348012  0.24725409  1
  O  O348  1  0.24509267  0.37399989  0.73556237  1
  O  O349  1  0.24548582  0.87688510  0.24718339  1
  O  O350  1  0.24384142  0.87285634  0.74271496  1
  O  O351  1  0.75267751  0.38242758  0.24129429  1
  O  O352  1  0.71374979  0.38258121  0.75732838  1
  O  O353  1  0.73919885  0.87150667  0.24219267  1
  O  O354  1  0.74182791  0.88084436  0.73909611  1
  O  O355  1  0.25724653  0.11745894  0.25578704  1
  O  O356  1  0.23916172  0.13255301  0.74974280  1
  O  O357  1  0.25551110  0.62067538  0.25457477  1
  O  O358  1  0.25808277  0.63051878  0.75459368  1
  O  O359  1  0.76022673  0.12371281  0.25244519  1
  O  O360  1  0.74977944  0.10639044  0.74684046  1
  O  O361  1  0.75177188  0.61979918  0.25453369  1
  O  O362  1  0.74284476  0.63539658  0.77113500  1
  O  O363  1  0.37098954  0.12165454  0.36532628  1
  O  O364  1  0.38091858  0.10844157  0.88477041  1
  O  O365  1  0.36282329  0.63078642  0.36348899  1
  O  O366  1  0.37556533  0.60884205  0.87573968  1
  O  O367  1  0.87440617  0.11328123  0.36558695  1
  O  O368  1  0.87838738  0.10411314  0.88479433  1
  O  O369  1  0.86428147  0.61824080  0.36996979  1
  O  O370  1  0.86208203  0.62562937  0.87966182  1
  O  O371  1  0.13124658  0.38035390  0.13020690  1
  O  O372  1  0.13450427  0.38068052  0.63151904  1
  O  O373  1  0.13108400  0.87831308  0.13223835  1
  O  O374  1  0.13714721  0.87641175  0.63101739  1
  O  O375  1  0.63913219  0.37811073  0.12430874  1
  O  O376  1  0.62573122  0.38663450  0.61748843  1
  O  O377  1  0.63287155  0.86988334  0.13460010  1
  O  O378  1  0.62735739  0.88833685  0.62554337  1
  O  O379  1  0.12798166  0.25671821  0.25604926  1
  O  O380  1  0.13206564  0.26496670  0.75049299  1
  O  O381  1  0.11749922  0.75467357  0.25640886  1
  O  O382  1  0.12183628  0.76406860  0.75582427  1
  O  O383  1  0.62976212  0.24817399  0.26539262  1
  O  O384  1  0.63034499  0.23917646  0.77198308  1
  O  O385  1  0.61182450  0.75830792  0.24837365  1
  O  O386  1  0.60786959  0.75157327  0.74019295  1
  O  O387  1  0.36934185  0.23195478  0.25052687  1
  O  O388  1  0.37610425  0.25246338  0.74050578  1
  O  O389  1  0.38750136  0.74001367  0.25047673  1
  O  O390  1  0.38489051  0.75482213  0.73741159  1
  O  O391  1  0.87369389  0.23461438  0.25533150  1
  O  O392  1  0.87396014  0.24938049  0.78377493  1
  O  O393  1  0.87813764  0.74384949  0.24534104  1
  O  O394  1  0.87539645  0.76110810  0.73249719  1
  O  O395  1  0.38398025  0.50329925  0.49209014  1
  O  O396  1  0.38191782  0.49306985  0.99396206  1
  O  O397  1  0.38242189  0.99375617  0.50255645  1
  O  O398  1  0.38289155  0.99012119  0.99376055  1
  O  O399  1  0.88106150  0.49087689  0.49579220  1
  O  O400  1  0.88731970  0.49366600  1.00826801  1
  O  O401  1  0.86590649  1.00269640  0.48135109  1
  O  O402  1  0.88231135  0.99247421  0.99629919  1
  O  O403  1  0.12145628  0.00298444  0.00665953  1
  O  O404  1  0.13542604  0.00911831  0.50659117  1
  O  O405  1  0.11883978  0.50531412  0.00679385  1
  O  O406  1  0.11560110  0.49922722  0.50764555  1
  O  O407  1  0.61605772  0.00879188  -0.00642433  1
  O  O408  1  0.62200497  0.00991726  0.50961828  1
  O  O409  1  0.61456376  0.50842617  -0.00033908  1
  O  O410  1  0.62133587  0.51370822  0.49811509  1
  O  O411  1  0.36932833  0.37979249  0.11703814  1
  O  O412  1  0.36920775  0.36139416  0.62749619  1
  O  O413  1  0.36984914  0.87880012  0.11319193  1
  O  O414  1  0.37135840  0.87023707  0.62234723  1
  O  O415  1  0.86684375  0.37387591  0.11420703  1
  O  O416  1  0.88040095  0.37305625  0.60978006  1
  O  O417  1  0.86686294  0.86876967  0.12201577  1
  O  O418  1  0.85920360  0.87384275  0.62158287  1
  O  O419  1  0.13127880  0.12794665  0.37846263  1
  O  O420  1  0.12331538  0.11496746  0.89298172  1
  O  O421  1  0.13381491  0.63181199  0.37457931  1
  O  O422  1  0.12702272  0.63204683  0.88369080  1
  O  O423  1  0.61945324  0.13622988  0.38592313  1
  O  O424  1  0.61955392  0.13615537  0.89259642  1
  O  O425  1  0.63638121  0.62180891  0.38022573  1
  O  O426  1  0.62736717  0.62385016  0.88791915  1
