# generated using pymatgen
data_V85Zn86O256
_symmetry_space_group_name_H-M   'P 1'
_cell_length_a   16.97239217
_cell_length_b   16.98189567
_cell_length_c   16.98025512
_cell_angle_alpha   89.94214266
_cell_angle_beta   89.79737291
_cell_angle_gamma   90.17789185
_symmetry_Int_Tables_number   1
_chemical_formula_structural   V85Zn86O256
_chemical_formula_sum   'V85 Zn86 O256'
_cell_volume   4894.05000097
_cell_formula_units_Z   1
loop_
 _symmetry_equiv_pos_site_id
 _symmetry_equiv_pos_as_xyz
  1  'x, y, z'
loop_
 _atom_site_type_symbol
 _atom_site_label
 _atom_site_symmetry_multiplicity
 _atom_site_fract_x
 _atom_site_fract_y
 _atom_site_fract_z
 _atom_site_occupancy
  V  V0  1  0.62305396  0.62382868  0.50205531  1
  V  V1  1  0.50345630  0.87353532  0.36770686  1
  V  V2  1  0.37382064  0.25850845  0.61559910  1
  V  V3  1  0.37665602  0.62890766  0.75217098  1
  V  V4  1  0.87724159  -0.00457080  0.86820101  1
  V  V5  1  0.37238494  0.87372788  0.49751107  1
  V  V6  1  0.24414274  0.12994861  0.37549756  1
  V  V7  1  0.12307136  0.75456960  0.87526928  1
  V  V8  1  0.00033901  0.62764697  0.12649707  1
  V  V9  1  0.00659911  0.36558413  0.37799011  1
  V  V10  1  0.37290369  0.74964268  0.62405379  1
  V  V11  1  0.13649190  -0.00275257  0.12186536  1
  V  V12  1  0.00042632  0.50034086  0.00085410  1
  V  V13  1  0.85907422  0.75249054  0.12172914  1
  V  V14  1  0.00871974  0.50318607  0.50130780  1
  V  V15  1  0.12720375  0.36717808  0.25357514  1
  V  V16  1  0.63397645  -0.00124331  0.13195016  1
  V  V17  1  0.49639505  0.12540103  0.62346282  1
  V  V18  1  0.85788321  0.12776483  0.75701772  1
  V  V19  1  -0.00274418  0.24867823  0.24310013  1
  V  V20  1  0.87718887  0.62474088  0.25435748  1
  V  V21  1  0.36010221  0.75460717  0.12253194  1
  V  V22  1  0.36315925  0.87487325  -0.00137535  1
  V  V23  1  0.38103869  0.62381874  0.24638903  1
  V  V24  1  0.50558145  0.87839318  0.86988525  1
  V  V25  1  0.87827773  0.49903109  0.37825826  1
  V  V26  1  0.24433937  0.73687468  0.49756491  1
  V  V27  1  0.87359386  0.36908751  0.01251594  1
  V  V28  1  0.00280162  0.00288961  0.50089643  1
  V  V29  1  0.36859050  -0.00194265  0.36782447  1
  V  V30  1  0.25248934  0.62999546  0.87871255  1
  V  V31  1  0.38181851  0.49414138  0.87509449  1
  V  V32  1  0.86910101  0.12346295  0.24981047  1
  V  V33  1  0.74922361  0.37440195  0.62477300  1
  V  V34  1  0.87530201  0.62460323  0.75330478  1
  V  V35  1  0.86754510  0.00006793  0.37126717  1
  V  V36  1  0.00167508  0.87641048  0.37526339  1
  V  V37  1  0.49949164  -0.00078340  0.49715263  1
  V  V38  1  0.62490037  0.75044034  0.37451983  1
  V  V39  1  0.00066407  0.75769010  0.75288042  1
  V  V40  1  0.74887418  0.24705132  0.49910465  1
  V  V41  1  0.75143279  0.62291284  0.37973587  1
  V  V42  1  0.49457339  0.37395738  0.38155653  1
  V  V43  1  0.62281486  0.50069241  0.62435285  1
  V  V44  1  0.25098195  0.50635739  0.25331920  1
  V  V45  1  0.24491626  0.24583651  -0.00097633  1
  V  V46  1  0.49606491  0.25456096  0.75758189  1
  V  V47  1  0.12750369  0.50053680  0.12585348  1
  V  V48  1  0.13881653  0.87998245  0.24667591  1
  V  V49  1  0.24531959  0.87757214  0.62542930  1
  V  V50  1  0.13024225  0.63331109  0.00191660  1
  V  V51  1  0.25077907  0.00080794  0.75656241  1
  V  V52  1  0.37009209  0.12424986  0.75248097  1
  V  V53  1  0.49768938  0.00040633  -0.00074745  1
  V  V54  1  0.00850874  0.62547351  0.62258603  1
  V  V55  1  0.50411098  0.25553798  0.24631393  1
  V  V56  1  0.25016940  0.37335519  0.12367745  1
  V  V57  1  0.74359227  0.87782158  0.63891486  1
  V  V58  1  0.87417162  0.87622474  0.50226172  1
  V  V59  1  0.61865225  0.37455465  0.75756772  1
  V  V60  1  0.87596774  0.37324594  0.50151663  1
  V  V61  1  0.12851971  0.73880800  0.37729770  1
  V  V62  1  0.50329856  0.49897912  0.00862655  1
  V  V63  1  0.12416919  0.25310619  0.86756293  1
  V  V64  1  0.24230614  0.37463303  0.62233987  1
  V  V65  1  0.37337440  0.49975040  0.37921033  1
  V  V66  1  0.74779489  0.24353892  0.00104163  1
  V  V67  1  0.62277693  0.12390833  0.49878287  1
  V  V68  1  0.37154426  0.12135890  0.24806969  1
  V  V69  1  0.62467849  -0.00350024  0.63642925  1
  V  V70  1  -0.00543462  0.11452986  0.12131058  1
  V  V71  1  0.74992077  0.49873055  0.75143734  1
  V  V72  1  0.87592533  0.88174496  0.00094508  1
  V  V73  1  0.49878399  0.62608130  0.62470681  1
  V  V74  1  0.74561407  0.62812162  0.88409618  1
  V  V75  1  0.62418927  0.25490063  0.36885520  1
  V  V76  1  0.00452898  0.37629328  0.86984454  1
  V  V77  1  -0.00134386  0.12690718  0.62930188  1
  V  V78  1  0.50360794  0.74725778  0.23959816  1
  V  V79  1  0.24130464  0.49559273  0.75260789  1
  V  V80  1  0.00092926  0.75156864  0.25082780  1
  V  V81  1  0.37595923  0.24936083  0.12291332  1
  V  V82  1  0.74611437  0.48987525  0.25205190  1
  V  V83  1  0.74972995  0.74970223  0.50230923  1
  V  V84  1  0.87356645  0.75189564  0.62669181  1
  Zn  Zn85  1  0.24563216  0.12120859  0.87600703  1
  Zn  Zn86  1  0.12511046  0.00426813  0.62675049  1
  Zn  Zn87  1  0.73650141  0.36664062  0.13743516  1
  Zn  Zn88  1  0.74302371  0.12080577  0.36530974  1
  Zn  Zn89  1  0.00025805  0.25493130  0.74702056  1
  Zn  Zn90  1  0.11919979  0.88165657  0.75641854  1
  Zn  Zn91  1  0.87545317  0.49933352  0.87886813  1
  Zn  Zn92  1  0.61460417  0.49707871  0.13598413  1
  Zn  Zn93  1  0.87329257  0.24843028  0.62738063  1
  Zn  Zn94  1  0.51099288  0.76413939  0.74478909  1
  Zn  Zn95  1  0.62222495  0.63039513  0.01320136  1
  Zn  Zn96  1  0.12287227  0.49711339  0.63032460  1
  Zn  Zn97  1  0.63396020  0.11680398  -0.00829273  1
  Zn  Zn98  1  0.12201911  0.13728354  0.49656503  1
  Zn  Zn99  1  0.50354790  0.12539317  0.12243896  1
  Zn  Zn100  1  0.63205808  0.75999722  0.87663504  1
  Zn  Zn101  1  0.11425307  0.11628285  -0.00556360  1
  Zn  Zn102  1  0.67069290  0.85400587  0.21973599  1
  Zn  Zn103  1  0.37991399  0.36700900  -0.01225122  1
  Zn  Zn104  1  0.63626692  0.24207909  0.87090679  1
  Zn  Zn105  1  0.24620369  0.26445627  0.48807819  1
  Zn  Zn106  1  0.49348917  0.49539079  0.50296110  1
  Zn  Zn107  1  0.18624734  0.18223821  0.18772375  1
  Zn  Zn108  1  0.18501949  0.18782763  0.68394398  1
  Zn  Zn109  1  0.18661727  0.68890118  0.19102238  1
  Zn  Zn110  1  0.18941905  0.68931218  0.69118533  1
  Zn  Zn111  1  0.68658224  0.18456877  0.17567908  1
  Zn  Zn112  1  0.68029661  0.18773880  0.68492203  1
  Zn  Zn113  1  0.68501639  0.67383194  0.19210326  1
  Zn  Zn114  1  0.68514021  0.69090750  0.69223007  1
  Zn  Zn115  1  0.31576677  0.31368687  0.30920604  1
  Zn  Zn116  1  0.30812718  0.31061506  0.80584486  1
  Zn  Zn117  1  0.31321914  0.80748630  0.31307767  1
  Zn  Zn118  1  0.31503103  0.81527802  0.81569830  1
  Zn  Zn119  1  0.81893356  0.30791776  0.31665808  1
  Zn  Zn120  1  0.81900301  0.31434560  0.81843229  1
  Zn  Zn121  1  0.81552888  0.81091324  0.31416443  1
  Zn  Zn122  1  0.81378678  0.81304988  0.81983465  1
  Zn  Zn123  1  0.18918881  0.43989388  0.43798556  1
  Zn  Zn124  1  0.19001489  0.43704360  0.93818227  1
  Zn  Zn125  1  0.18724877  0.93556447  0.43572169  1
  Zn  Zn126  1  0.18499734  0.93710854  0.94049482  1
  Zn  Zn127  1  0.68475577  0.43519189  0.43691975  1
  Zn  Zn128  1  0.68787515  0.43620790  0.93948831  1
  Zn  Zn129  1  0.68757994  0.93420405  0.43949066  1
  Zn  Zn130  1  0.69693102  0.93917517  0.94127176  1
  Zn  Zn131  1  0.31298398  0.06164701  0.06137128  1
  Zn  Zn132  1  0.31302121  0.06363795  0.56025117  1
  Zn  Zn133  1  0.31841236  0.56525762  0.06297607  1
  Zn  Zn134  1  0.31061658  0.55974579  0.56564719  1
  Zn  Zn135  1  0.81596816  0.05821724  0.05764691  1
  Zn  Zn136  1  0.81075148  0.06100455  0.56522027  1
  Zn  Zn137  1  0.81333822  0.56168714  0.06962591  1
  Zn  Zn138  1  0.81638550  0.56221360  0.56474203  1
  Zn  Zn139  1  0.43702084  0.43280201  0.18886957  1
  Zn  Zn140  1  0.43326181  0.43817295  0.68861305  1
  Zn  Zn141  1  0.44045537  0.93544400  0.18279571  1
  Zn  Zn142  1  0.43282314  0.94120191  0.68494270  1
  Zn  Zn143  1  0.93905472  0.43939078  0.19118087  1
  Zn  Zn144  1  0.93607669  0.43796812  0.68587476  1
  Zn  Zn145  1  0.93522873  0.93480843  0.18859195  1
  Zn  Zn146  1  0.93103935  0.94277457  0.68796368  1
  Zn  Zn147  1  0.05968622  0.05927594  0.30745240  1
  Zn  Zn148  1  0.05864980  0.06293333  0.81434149  1
  Zn  Zn149  1  0.06259064  0.55841347  0.31257611  1
  Zn  Zn150  1  0.06180454  0.56802861  0.81542721  1
  Zn  Zn151  1  0.55837029  0.06632337  0.31022501  1
  Zn  Zn152  1  0.55752024  0.06651044  0.81694727  1
  Zn  Zn153  1  0.56061268  0.56341189  0.31521791  1
  Zn  Zn154  1  0.56313856  0.56638468  0.81235385  1
  Zn  Zn155  1  0.43387296  0.18675698  0.43565307  1
  Zn  Zn156  1  0.43454350  0.18402310  0.93439482  1
  Zn  Zn157  1  0.43430113  0.68488526  0.43467737  1
  Zn  Zn158  1  0.47365189  0.70792666  0.96229454  1
  Zn  Zn159  1  0.93604112  0.18551449  0.43579904  1
  Zn  Zn160  1  0.93563885  0.18905331  0.93603783  1
  Zn  Zn161  1  0.94053825  0.68927912  0.43946079  1
  Zn  Zn162  1  0.93995149  0.69667018  0.94285626  1
  Zn  Zn163  1  0.06238387  0.31047083  0.06254073  1
  Zn  Zn164  1  0.06673766  0.30826648  0.56139266  1
  Zn  Zn165  1  0.05415553  0.81820643  0.06228019  1
  Zn  Zn166  1  0.06324898  0.81214547  0.56239901  1
  Zn  Zn167  1  0.56511028  0.32347454  0.05755042  1
  Zn  Zn168  1  0.56246004  0.31263872  0.56440677  1
  Zn  Zn169  1  0.56769679  0.82029272  0.05703193  1
  Zn  Zn170  1  0.56156295  0.81400984  0.56070829  1
  O  O171  1  0.11523113  0.11105335  0.12923134  1
  O  O172  1  0.11229912  0.12368889  0.62073119  1
  O  O173  1  0.12219752  0.62180616  0.11934475  1
  O  O174  1  0.11096278  0.62525110  0.63155355  1
  O  O175  1  0.61993754  0.11538221  0.11073919  1
  O  O176  1  0.61638051  0.11757889  0.61733158  1
  O  O177  1  0.63806700  0.60563176  0.12079288  1
  O  O178  1  0.61894546  0.61990366  0.62157201  1
  O  O179  1  0.38299872  0.38546763  0.36913380  1
  O  O180  1  0.36456194  0.39142047  0.86946176  1
  O  O181  1  0.38107656  0.88044136  0.37641529  1
  O  O182  1  0.37982867  0.87148487  0.89320396  1
  O  O183  1  0.88823807  0.37876996  0.38211817  1
  O  O184  1  0.88773563  0.38076482  0.88949032  1
  O  O185  1  0.88374892  0.88193421  0.38409795  1
  O  O186  1  0.87852268  0.88874569  0.87578402  1
  O  O187  1  0.26332064  0.00575308  0.37579662  1
  O  O188  1  0.24327994  0.00037732  0.86125265  1
  O  O189  1  0.25887912  0.49179136  0.36176119  1
  O  O190  1  0.25403160  0.50914770  0.87007193  1
  O  O191  1  0.76452162  0.00640409  0.39073690  1
  O  O192  1  0.77801798  0.00985080  0.89760953  1
  O  O193  1  0.75860303  0.50203172  0.37267501  1
  O  O194  1  0.75335934  0.50515153  0.86311143  1
  O  O195  1  0.24812046  0.49395446  0.13242437  1
  O  O196  1  0.24820803  0.49132524  0.63337459  1
  O  O197  1  0.23521134  1.00635002  0.12834758  1
  O  O198  1  0.24826429  0.99186778  0.62945478  1
  O  O199  1  0.76125998  0.49513296  0.14867161  1
  O  O200  1  0.74523804  0.49643009  0.63426409  1
  O  O201  1  0.73272145  1.00495133  0.11469190  1
  O  O202  1  0.73754808  0.98956065  0.61838914  1
  O  O203  1  0.00718984  0.36864897  0.25685021  1
  O  O204  1  -0.00757907  0.37647075  0.76509730  1
  O  O205  1  0.00426122  0.86848530  0.25741532  1
  O  O206  1  -0.00158553  0.86102971  0.74096665  1
  O  O207  1  0.49547130  0.36128285  0.25996190  1
  O  O208  1  0.50826620  0.36725692  0.74102748  1
  O  O209  1  0.49523698  0.86548012  0.26137244  1
  O  O210  1  0.48834613  0.88404400  0.76632251  1
  O  O211  1  0.48746014  0.13803777  0.24841946  1
  O  O212  1  0.48892012  0.13348480  0.74232454  1
  O  O213  1  0.49347937  0.63450393  0.25194290  1
  O  O214  1  0.48702605  0.62331103  0.74436055  1
  O  O215  1  0.99424640  0.13173710  0.24341631  1
  O  O216  1  0.99228440  0.12692502  0.73815634  1
  O  O217  1  0.99684477  0.62914796  0.24623469  1
  O  O218  1  0.99149814  0.63014875  0.74289211  1
  O  O219  1  0.36708215  0.24854126  0.00674532  1
  O  O220  1  0.36728308  0.24391577  0.51176938  1
  O  O221  1  0.38161278  0.75842790  0.01592025  1
  O  O222  1  0.36485587  0.75360471  0.50287277  1
  O  O223  1  0.86923318  0.26455217  -0.00118130  1
  O  O224  1  0.86374905  0.25453227  0.49823490  1
  O  O225  1  0.86565953  0.73557682  0.02137526  1
  O  O226  1  0.87090141  0.75555793  0.50728771  1
  O  O227  1  0.13352536  0.24957320  0.49497635  1
  O  O228  1  0.13350410  0.24632723  0.99554423  1
  O  O229  1  0.13202189  0.75783998  0.48849984  1
  O  O230  1  0.11677563  0.73835505  0.99412304  1
  O  O231  1  0.63026738  0.24497393  0.49198940  1
  O  O232  1  0.63936802  0.25464928  0.99709392  1
  O  O233  1  0.62999672  0.74300517  0.49554580  1
  O  O234  1  0.59339073  0.73767336  0.98583898  1
  O  O235  1  0.49153388  0.25064260  0.12861268  1
  O  O236  1  0.49161634  0.24564438  0.62984736  1
  O  O237  1  0.49804050  0.75781702  0.13883362  1
  O  O238  1  0.49093837  0.74612518  0.62637936  1
  O  O239  1  1.00841467  0.23707524  0.13723244  1
  O  O240  1  0.99533408  0.24140479  0.62546322  1
  O  O241  1  0.99380353  0.74306537  0.13366308  1
  O  O242  1  0.99454766  0.74292354  0.63118604  1
  O  O243  1  -0.00084899  0.26063526  0.36770356  1
  O  O244  1  0.00819065  0.25957746  0.87644000  1
  O  O245  1  0.00832906  0.75661734  0.37242329  1
  O  O246  1  0.01040766  0.73712830  0.86193440  1
  O  O247  1  0.50354679  0.25503222  0.36807334  1
  O  O248  1  0.49202554  0.25090610  0.85863422  1
  O  O249  1  0.50375306  0.75574425  0.36698554  1
  O  O250  1  0.49236172  0.77158011  0.86813154  1
  O  O251  1  0.24829002  0.12134155  0.48270820  1
  O  O252  1  0.24927044  0.13531437  0.99740166  1
  O  O253  1  0.24793971  0.63819713  0.50975222  1
  O  O254  1  0.23981850  0.61808024  0.99237332  1
  O  O255  1  0.74364728  0.13594901  0.50108783  1
  O  O256  1  0.75778550  0.14202691  1.00325321  1
  O  O257  1  0.74555119  0.62909676  0.49921619  1
  O  O258  1  0.75497691  0.60984592  0.98404208  1
  O  O259  1  0.25295453  0.36390617  0.00638984  1
  O  O260  1  0.25032984  0.38204402  0.51690773  1
  O  O261  1  0.26409526  0.87730071  -0.00039825  1
  O  O262  1  0.25412490  0.87139764  0.50862167  1
  O  O263  1  0.76758836  0.38197394  0.00525069  1
  O  O264  1  0.75389483  0.36669208  0.50342892  1
  O  O265  1  0.77468986  0.86501082  -0.01152638  1
  O  O266  1  0.75601603  0.86655710  0.50692388  1
  O  O267  1  0.13268009  0.49222742  0.24540924  1
  O  O268  1  0.13719331  0.50886027  0.75136192  1
  O  O269  1  0.12238978  0.98536057  0.24254048  1
  O  O270  1  0.13232105  0.99814916  0.74752627  1
  O  O271  1  0.64378381  0.50194986  0.26037354  1
  O  O272  1  0.63140198  0.49430200  0.74483790  1
  O  O273  1  0.61893925  1.01039464  0.23222980  1
  O  O274  1  0.61410687  1.00711765  0.73432495  1
  O  O275  1  0.38505182  0.00952942  0.25635771  1
  O  O276  1  0.36292184  0.01346623  0.74092255  1
  O  O277  1  0.36971237  0.50583091  0.25309517  1
  O  O278  1  0.36557116  0.50842969  0.75823492  1
  O  O279  1  0.88386397  0.00965082  0.26239361  1
  O  O280  1  0.87260605  0.01251765  0.75913531  1
  O  O281  1  0.87304237  0.50515381  0.26087910  1
  O  O282  1  0.86656116  0.50853985  0.74944958  1
  O  O283  1  0.11690867  0.38276156  0.36435407  1
  O  O284  1  0.11475502  0.36673968  0.88516474  1
  O  O285  1  0.12095422  0.87224954  0.36149637  1
  O  O286  1  0.13147400  0.85838013  0.87649946  1
  O  O287  1  0.61557576  0.36123786  0.37703347  1
  O  O288  1  0.62938844  0.37381027  0.85903127  1
  O  O289  1  0.61169767  0.86758639  0.38156500  1
  O  O290  1  0.60982124  0.88027402  0.88197779  1
  O  O291  1  0.37408878  0.13456220  0.13147623  1
  O  O292  1  0.37689464  0.13448410  0.63061171  1
  O  O293  1  0.37331211  0.63883637  0.13483915  1
  O  O294  1  0.37776894  0.62875543  0.63378210  1
  O  O295  1  0.88824968  0.11379894  0.13499701  1
  O  O296  1  0.88018031  0.12433222  0.63567275  1
  O  O297  1  0.87981849  0.63307546  0.13539900  1
  O  O298  1  0.88102713  0.63101866  0.63615361  1
  O  O299  1  0.25505003  0.25149435  0.11820229  1
  O  O300  1  0.25542526  0.26436636  0.62918810  1
  O  O301  1  0.26099555  0.75078297  0.12773187  1
  O  O302  1  0.25273149  0.75854287  0.61915569  1
  O  O303  1  0.74952466  0.25664084  0.10975279  1
  O  O304  1  0.74644700  0.25594423  0.61282015  1
  O  O305  1  0.76107666  0.74906006  0.14175195  1
  O  O306  1  0.75392238  0.75590449  0.62097183  1
  O  O307  1  0.26103520  0.23462233  0.37367832  1
  O  O308  1  0.24118781  0.25278260  0.88272254  1
  O  O309  1  0.24149600  0.75515369  0.38561075  1
  O  O310  1  0.24150689  0.73643025  0.86762660  1
  O  O311  1  0.74115180  0.24915724  0.38291527  1
  O  O312  1  0.75204992  0.26324327  0.89494525  1
  O  O313  1  0.74586901  0.74147717  0.38320360  1
  O  O314  1  0.75243732  0.73162544  0.87366699  1
  O  O315  1  -0.00328422  0.13350206  0.01899447  1
  O  O316  1  -0.00240610  0.11826572  0.50733294  1
  O  O317  1  0.00877726  0.61752133  0.00491239  1
  O  O318  1  -0.00894782  0.61497474  0.51181831  1
  O  O319  1  0.48727784  0.10686824  -0.00052438  1
  O  O320  1  0.50238666  0.12020779  0.50366355  1
  O  O321  1  0.49548945  0.60175173  -0.00909343  1
  O  O322  1  0.50526141  0.62445782  0.50640574  1
  O  O323  1  0.50143973  0.37471183  0.48711266  1
  O  O324  1  0.49232201  0.39005947  0.99565914  1
  O  O325  1  0.49111247  0.87748259  0.48893696  1
  O  O326  1  0.49028773  0.88475505  0.99140773  1
  O  O327  1  0.99707864  0.38137751  0.49483929  1
  O  O328  1  0.99414026  0.38231250  0.99726816  1
  O  O329  1  0.99473181  0.88329704  0.49773176  1
  O  O330  1  0.97279838  0.84193115  0.98836530  1
  O  O331  1  0.49223245  0.49030155  0.37411442  1
  O  O332  1  0.48337056  0.50090544  0.87077730  1
  O  O333  1  0.49229404  0.99209480  0.37701476  1
  O  O334  1  0.49764483  0.99194016  0.88892416  1
  O  O335  1  0.99736525  0.49166646  0.38310250  1
  O  O336  1  1.00304278  0.49562366  0.88622052  1
  O  O337  1  0.99215649  0.99701362  0.38311692  1
  O  O338  1  0.97882593  1.01586297  0.88094112  1
  O  O339  1  0.00761258  0.01134478  0.13182553  1
  O  O340  1  -0.00172390  0.00771852  0.61652365  1
  O  O341  1  0.00702253  0.50675600  0.11993212  1
  O  O342  1  0.00118852  0.50682085  0.61903872  1
  O  O343  1  0.50634704  0.00094424  0.11348370  1
  O  O344  1  0.50373789  0.00404659  0.61583255  1
  O  O345  1  0.49206898  0.49820741  0.11271752  1
  O  O346  1  0.50338420  0.50659305  0.62333265  1
  O  O347  1  0.24339216  0.38085485  0.24437521  1
  O  O348  1  0.25256300  0.38726938  0.73956762  1
  O  O349  1  0.23731676  0.87136919  0.25038337  1
  O  O350  1  0.25340222  0.88333141  0.74103986  1
  O  O351  1  0.75991384  0.38643459  0.25739998  1
  O  O352  1  0.74499700  0.38259396  0.74565829  1
  O  O353  1  0.75500020  0.89093483  0.27348056  1
  O  O354  1  0.75376308  0.86823089  0.73738205  1
  O  O355  1  0.26318055  0.12954925  0.25891599  1
  O  O356  1  0.25376315  0.11735316  0.74630653  1
  O  O357  1  0.25803001  0.61199050  0.24428604  1
  O  O358  1  0.25798142  0.61786077  0.75620557  1
  O  O359  1  0.76491207  0.13465906  0.24750473  1
  O  O360  1  0.75938547  0.13135424  0.74497935  1
  O  O361  1  0.75915107  0.61231196  0.26239728  1
  O  O362  1  0.75795918  0.61630069  0.75613910  1
  O  O363  1  0.36923631  0.11583749  0.36711461  1
  O  O364  1  0.36617164  0.13317211  0.85635696  1
  O  O365  1  0.37906436  0.61503834  0.35818119  1
  O  O366  1  0.36498029  0.61473738  0.86637903  1
  O  O367  1  0.87369765  0.11730673  0.36625124  1
  O  O368  1  0.87504828  0.12767605  0.85942383  1
  O  O369  1  0.87201661  0.61999709  0.37442946  1
  O  O370  1  0.86967440  0.62346237  0.86539320  1
  O  O371  1  0.12929804  0.38047007  0.13365127  1
  O  O372  1  0.13813088  0.37545446  0.62858926  1
  O  O373  1  0.11759568  0.88451302  0.13505175  1
  O  O374  1  0.13638292  0.87605534  0.62833919  1
  O  O375  1  0.62558349  0.38622888  0.12808547  1
  O  O376  1  0.63075339  0.38106234  0.63282591  1
  O  O377  1  0.62051433  0.88997843  0.12655482  1
  O  O378  1  0.63091113  0.88374810  0.61917055  1
  O  O379  1  0.11966171  0.26186601  0.24695353  1
  O  O380  1  0.12360304  0.24825385  0.76377529  1
  O  O381  1  0.12133532  0.76107283  0.25534300  1
  O  O382  1  0.11726282  0.75186836  0.75813558  1
  O  O383  1  0.61537557  0.23925971  0.25780424  1
  O  O384  1  0.61378227  0.25785662  0.74868962  1
  O  O385  1  0.61990473  0.74941168  0.25558182  1
  O  O386  1  0.61907205  0.74170340  0.76382640  1
  O  O387  1  0.38205399  0.24300661  0.24045425  1
  O  O388  1  0.37840963  0.24503013  0.73805485  1
  O  O389  1  0.38102512  0.74358861  0.24156374  1
  O  O390  1  0.37244102  0.74015400  0.74367989  1
  O  O391  1  0.88842694  0.23971902  0.25539719  1
  O  O392  1  0.87697388  0.24013799  0.74847287  1
  O  O393  1  0.88252999  0.74363377  0.24579399  1
  O  O394  1  0.88205718  0.74240161  0.74748864  1
  O  O395  1  0.37427953  0.51077442  0.48355159  1
  O  O396  1  0.37705785  0.49855906  0.98578486  1
  O  O397  1  0.38048019  0.99446418  0.48948700  1
  O  O398  1  0.38388543  0.98402777  1.01411660  1
  O  O399  1  0.88409015  0.49280077  0.49751384  1
  O  O400  1  0.88924573  0.49512116  1.00340917  1
  O  O401  1  0.88504366  0.99670137  0.49454664  1
  O  O402  1  0.88669926  0.98343958  1.00561486  1
  O  O403  1  0.12526591  -0.00164405  0.01601887  1
  O  O404  1  0.11086526  0.00185453  0.49796692  1
  O  O405  1  0.11806947  0.50771187  0.00600714  1
  O  O406  1  0.11159165  0.49789400  0.50229013  1
  O  O407  1  0.61089296  -0.00371382  0.00638538  1
  O  O408  1  0.61647720  0.00645432  0.50221100  1
  O  O409  1  0.60810707  0.49807499  -0.00605829  1
  O  O410  1  0.62330576  0.50577460  0.50661353  1
  O  O411  1  0.36770982  0.36014473  0.12740314  1
  O  O412  1  0.36478969  0.36702783  0.62898422  1
  O  O413  1  0.37680583  0.86150284  0.12024021  1
  O  O414  1  0.36593245  0.86987910  0.61805614  1
  O  O415  1  0.88228762  0.37717810  0.11374478  1
  O  O416  1  0.86744154  0.37225724  0.61899662  1
  O  O417  1  0.87946262  0.86023017  0.11694112  1
  O  O418  1  0.86525132  0.87189747  0.62099778  1
  O  O419  1  0.14276107  0.11657777  0.36592193  1
  O  O420  1  0.12454900  0.13619176  0.87950161  1
  O  O421  1  0.12196657  0.63965094  0.36673074  1
  O  O422  1  0.13295522  0.63214942  0.88363948  1
  O  O423  1  0.62383749  0.13504136  0.38033794  1
  O  O424  1  0.61829285  0.13131441  0.88199759  1
  O  O425  1  0.63058925  0.63057457  0.38232340  1
  O  O426  1  0.64172581  0.61754696  0.87817676  1
