# generated using pymatgen
data_V85Zn86O256
_symmetry_space_group_name_H-M   'P 1'
_cell_length_a   16.96687581
_cell_length_b   16.95759999
_cell_length_c   16.95708373
_cell_angle_alpha   89.97968653
_cell_angle_beta   90.06538792
_cell_angle_gamma   89.92109793
_symmetry_Int_Tables_number   1
_chemical_formula_structural   V85Zn86O256
_chemical_formula_sum   'V85 Zn86 O256'
_cell_volume   4878.84150963
_cell_formula_units_Z   1
loop_
 _symmetry_equiv_pos_site_id
 _symmetry_equiv_pos_as_xyz
  1  'x, y, z'
loop_
 _atom_site_type_symbol
 _atom_site_label
 _atom_site_symmetry_multiplicity
 _atom_site_fract_x
 _atom_site_fract_y
 _atom_site_fract_z
 _atom_site_occupancy
  V  V0  1  0.75257050  0.24965800  0.50320390  1
  V  V1  1  0.24299830  0.50265554  0.74468312  1
  V  V2  1  0.37395823  0.12570269  0.74914008  1
  V  V3  1  0.37063173  0.50223324  0.37373451  1
  V  V4  1  -0.00331309  0.12721814  0.11768986  1
  V  V5  1  0.62507901  -0.00031253  0.62383189  1
  V  V6  1  0.37407566  0.62570922  0.25287357  1
  V  V7  1  0.12028915  0.74924493  0.87331301  1
  V  V8  1  0.01006736  0.50685520  0.01459885  1
  V  V9  1  0.12782461  0.38662068  0.24692101  1
  V  V10  1  0.37582172  0.00148120  0.87846021  1
  V  V11  1  0.47778026  0.24885214  0.24506036  1
  V  V12  1  0.37512372  0.49931227  0.87420375  1
  V  V13  1  -0.00584555  0.25140406  0.74359206  1
  V  V14  1  0.24675317  0.62631699  0.87921887  1
  V  V15  1  -0.00467372  0.37628102  0.87587799  1
  V  V16  1  0.00308370  0.60839254  0.62365024  1
  V  V17  1  0.88428485  0.00164971  0.87757346  1
  V  V18  1  -0.00226328  0.12659186  0.62267356  1
  V  V19  1  0.50556686  0.75207533  0.24954086  1
  V  V20  1  0.87556114  0.87365335  0.50082890  1
  V  V21  1  0.87308768  -0.00049862  0.36527876  1
  V  V22  1  0.49552346  0.37542748  0.87842014  1
  V  V23  1  0.37579241  0.25075193  0.62296467  1
  V  V24  1  0.87183035  0.37135236  0.01796435  1
  V  V25  1  0.48215729  0.12294405  0.12548939  1
  V  V26  1  0.24957776  0.12746352  0.87278071  1
  V  V27  1  0.37753926  0.37596746  0.49845075  1
  V  V28  1  0.37499336  0.00302730  0.36687315  1
  V  V29  1  0.50033958  0.12515399  0.62366288  1
  V  V30  1  0.50222334  0.87277382  0.87843443  1
  V  V31  1  0.24704006  0.37873147  0.62216227  1
  V  V32  1  0.12076147  -0.00334052  0.11780018  1
  V  V33  1  0.24464335  0.63073106  0.37618706  1
  V  V34  1  0.50002826  0.75167229  0.74897062  1
  V  V35  1  -0.00044627  -0.00121301  0.49811304  1
  V  V36  1  0.62502125  0.25691230  0.36349183  1
  V  V37  1  0.64010095  0.00761896  0.12323843  1
  V  V38  1  0.75030704  0.25202251  0.01084423  1
  V  V39  1  0.62676925  0.87229437  0.75394324  1
  V  V40  1  0.62327290  0.48549066  0.12937538  1
  V  V41  1  0.11964465  0.87192692  0.74875795  1
  V  V42  1  0.62522949  0.50122564  0.62617882  1
  V  V43  1  0.62583789  0.62634897  0.50038895  1
  V  V44  1  0.12498310  0.24708631  0.37352358  1
  V  V45  1  0.63919667  0.88084868  0.24321456  1
  V  V46  1  0.74974086  0.62501354  0.37553635  1
  V  V47  1  0.74928779  0.12014094  0.36812901  1
  V  V48  1  0.12388509  0.24990884  0.87599703  1
  V  V49  1  0.12483567  0.12312179  0.49786156  1
  V  V50  1  0.49999141  0.00028669  0.49946499  1
  V  V51  1  0.25436269  0.87082211  0.62646691  1
  V  V52  1  0.74963837  0.12617345  0.87625037  1
  V  V53  1  0.00270433  0.86477943  0.37242561  1
  V  V54  1  0.49878320  0.62826636  0.62570009  1
  V  V55  1  0.75493417  0.37021430  0.62647201  1
  V  V56  1  0.87095568  0.50480672  0.87801250  1
  V  V57  1  0.87628330  0.49663751  0.38607167  1
  V  V58  1  0.49903450  0.25064519  0.75012626  1
  V  V59  1  0.87961893  0.62425872  0.24316048  1
  V  V60  1  0.50191102  0.87660339  0.37398497  1
  V  V61  1  0.87362585  0.12931810  0.74327964  1
  V  V62  1  0.62432514  0.24583700  0.88026760  1
  V  V63  1  0.25078673  0.25589651  0.01086701  1
  V  V64  1  0.24759407  0.74927983  -0.00026173  1
  V  V65  1  0.37644487  0.86803052  0.50341845  1
  V  V66  1  0.25318307  0.12353706  0.36731628  1
  V  V67  1  0.63416452  0.62748284  -0.00692074  1
  V  V68  1  0.75211949  0.87412700  0.62740707  1
  V  V69  1  0.12550365  -0.00098046  0.62393668  1
  V  V70  1  0.37338753  0.63304869  0.74393906  1
  V  V71  1  0.88503174  0.75014368  0.63015834  1
  V  V72  1  0.88100217  0.63178368  0.75318930  1
  V  V73  1  0.12290267  0.37873880  0.74544144  1
  V  V74  1  0.00171904  0.87905175  0.88228739  1
  V  V75  1  0.74940719  0.50715319  0.75556250  1
  V  V76  1  0.12890311  0.86928923  0.25480091  1
  V  V77  1  0.12188689  0.61152513  0.50449357  1
  V  V78  1  0.50046574  0.50028518  0.50015229  1
  V  V79  1  0.62385707  0.37679849  0.75152370  1
  V  V80  1  0.37775180  0.75141575  0.12252394  1
  V  V81  1  -0.00097446  0.37702798  0.38245541  1
  V  V82  1  0.74543120  0.48501067  0.24865204  1
  V  V83  1  -0.00670644  0.24616614  0.24839998  1
  V  V84  1  0.24024249  0.75151648  0.49929369  1
  Zn  Zn85  1  0.23469014  0.40554035  0.12595932  1
  Zn  Zn86  1  0.86634897  0.87798211  0.00844200  1
  Zn  Zn87  1  0.25031724  0.00023132  0.74951307  1
  Zn  Zn88  1  0.25407470  0.00424845  0.24312733  1
  Zn  Zn89  1  0.88214873  0.37160977  0.51024589  1
  Zn  Zn90  1  0.75023327  0.00079181  0.74982015  1
  Zn  Zn91  1  0.00888051  0.73772611  0.24025491  1
  Zn  Zn92  1  0.62917280  0.75297481  0.37501449  1
  Zn  Zn93  1  0.75428849  0.74475614  -0.00612394  1
  Zn  Zn94  1  0.37270195  0.37623038  0.01566525  1
  Zn  Zn95  1  0.25209356  0.87763163  0.12368442  1
  Zn  Zn96  1  0.25243981  0.24809609  0.49876361  1
  Zn  Zn97  1  0.86933999  0.12304768  0.24123982  1
  Zn  Zn98  1  0.50645749  0.62507891  0.12321838  1
  Zn  Zn99  1  0.12114348  0.11705941  -0.00589681  1
  Zn  Zn100  1  0.75090971  0.74867801  0.50300543  1
  Zn  Zn101  1  0.38023085  0.87689608  0.00230964  1
  Zn  Zn102  1  0.87474161  0.76169367  0.12216035  1
  Zn  Zn103  1  0.50295788  0.50015150  0.00375124  1
  Zn  Zn104  1  0.50307254  0.38126814  0.36244458  1
  Zn  Zn105  1  0.51082527  0.01328805  -0.00277750  1
  Zn  Zn106  1  0.62418510  0.12570116  0.49656328  1
  Zn  Zn107  1  0.17996628  0.18675031  0.18789283  1
  Zn  Zn108  1  0.18624176  0.19006525  0.68630845  1
  Zn  Zn109  1  0.19154607  0.68475987  0.18527323  1
  Zn  Zn110  1  0.18394515  0.68906000  0.68551891  1
  Zn  Zn111  1  0.68120262  0.18412904  0.18755357  1
  Zn  Zn112  1  0.68434324  0.18820422  0.68892745  1
  Zn  Zn113  1  0.69428508  0.68220435  0.17521376  1
  Zn  Zn114  1  0.69014658  0.69145618  0.69170385  1
  Zn  Zn115  1  0.30824284  0.31598966  0.31199835  1
  Zn  Zn116  1  0.31058613  0.31333180  0.81107843  1
  Zn  Zn117  1  0.31400713  0.81264820  0.31390237  1
  Zn  Zn118  1  0.31283076  0.81406453  0.81282878  1
  Zn  Zn119  1  0.81428260  0.30825896  0.31699125  1
  Zn  Zn120  1  0.80998845  0.31471728  0.81521873  1
  Zn  Zn121  1  0.81689496  0.80892846  0.31182733  1
  Zn  Zn122  1  0.80161923  0.81923411  0.83848917  1
  Zn  Zn123  1  0.18912474  0.43737949  0.43354485  1
  Zn  Zn124  1  0.18588345  0.43810116  0.93257213  1
  Zn  Zn125  1  0.18948563  0.93865665  0.43614217  1
  Zn  Zn126  1  0.19192666  0.93350353  0.93729793  1
  Zn  Zn127  1  0.68804727  0.43604122  0.43922044  1
  Zn  Zn128  1  0.68660285  0.43662168  0.94235681  1
  Zn  Zn129  1  0.68878885  0.93630525  0.43678445  1
  Zn  Zn130  1  0.68854650  0.93988521  0.94033655  1
  Zn  Zn131  1  0.30579027  0.06575369  0.05876755  1
  Zn  Zn132  1  0.31243486  0.05971492  0.55752598  1
  Zn  Zn133  1  0.31937928  0.55627627  0.06877115  1
  Zn  Zn134  1  0.31222118  0.56395594  0.56046366  1
  Zn  Zn135  1  0.81544377  0.06321644  0.05786251  1
  Zn  Zn136  1  0.81042905  0.06098611  0.55775445  1
  Zn  Zn137  1  0.80952381  0.55487832  0.06506130  1
  Zn  Zn138  1  0.81250840  0.56258610  0.56745322  1
  Zn  Zn139  1  0.43162865  0.43639391  0.18718941  1
  Zn  Zn140  1  0.43501876  0.43967392  0.68776825  1
  Zn  Zn141  1  0.44472648  0.93718507  0.18493368  1
  Zn  Zn142  1  0.43764064  0.93925912  0.68884708  1
  Zn  Zn143  1  0.94045749  0.44009065  0.19644921  1
  Zn  Zn144  1  0.93386604  0.43995657  0.69089906  1
  Zn  Zn145  1  0.94277374  0.93443916  0.18353659  1
  Zn  Zn146  1  0.93729325  0.93963129  0.69190674  1
  Zn  Zn147  1  0.06199287  0.05671302  0.30639369  1
  Zn  Zn148  1  0.06347145  0.06173540  0.80768566  1
  Zn  Zn149  1  0.06149079  0.56276330  0.32141987  1
  Zn  Zn150  1  0.05889796  0.56431037  0.81669620  1
  Zn  Zn151  1  0.56232013  0.06616771  0.30676853  1
  Zn  Zn152  1  0.56230036  0.06092207  0.81090905  1
  Zn  Zn153  1  0.56271933  0.56278720  0.31193083  1
  Zn  Zn154  1  0.56140890  0.56439182  0.81319804  1
  Zn  Zn155  1  0.43900241  0.18772858  0.43468041  1
  Zn  Zn156  1  0.43311190  0.18962250  0.94369113  1
  Zn  Zn157  1  0.43909749  0.68995588  0.43728781  1
  Zn  Zn158  1  0.44428229  0.68413677  0.93786515  1
  Zn  Zn159  1  0.93481919  0.18631019  0.43545378  1
  Zn  Zn160  1  0.93343961  0.18945775  0.93694171  1
  Zn  Zn161  1  0.93784551  0.68506068  0.44023721  1
  Zn  Zn162  1  0.94111221  0.68759907  0.94495695  1
  Zn  Zn163  1  0.06121059  0.31501694  0.06373829  1
  Zn  Zn164  1  0.06637617  0.31159789  0.56178170  1
  Zn  Zn165  1  0.05791595  0.80647321  0.06357564  1
  Zn  Zn166  1  0.06212294  0.80981174  0.56269218  1
  Zn  Zn167  1  0.55909856  0.30723502  0.06471773  1
  Zn  Zn168  1  0.56621424  0.31279471  0.55831481  1
  Zn  Zn169  1  0.57070416  0.81301708  0.06267875  1
  Zn  Zn170  1  0.56416017  0.81106612  0.56473114  1
  O  O171  1  0.11796352  0.11243479  0.12248975  1
  O  O172  1  0.11918305  0.12057893  0.61902090  1
  O  O173  1  0.15885422  0.58875479  0.12660780  1
  O  O174  1  0.11444600  0.62891299  0.61889004  1
  O  O175  1  0.61513570  0.10966329  0.13262763  1
  O  O176  1  0.61771894  0.11823684  0.62510643  1
  O  O177  1  0.62407556  0.60967426  0.11906817  1
  O  O178  1  0.62013370  0.62050267  0.62213931  1
  O  O179  1  0.37354483  0.38645146  0.37917155  1
  O  O180  1  0.38131710  0.38291043  0.87132159  1
  O  O181  1  0.38082440  0.88203886  0.38360386  1
  O  O182  1  0.38450979  0.88537236  0.87246621  1
  O  O183  1  0.88369319  0.38014725  0.37720172  1
  O  O184  1  0.88303072  0.38348386  0.87582908  1
  O  O185  1  0.88205615  0.88052894  0.37877642  1
  O  O186  1  0.89237465  0.88848752  0.85779675  1
  O  O187  1  0.25803913  0.00708349  0.37349571  1
  O  O188  1  0.25845860  0.00762544  0.87433135  1
  O  O189  1  0.26293927  0.51357901  0.38158432  1
  O  O190  1  0.25504151  0.50668298  0.86562875  1
  O  O191  1  0.75994512  0.00901058  0.38106292  1
  O  O192  1  0.75580715  0.01552788  0.87133651  1
  O  O193  1  0.75368616  0.50435787  0.36791299  1
  O  O194  1  0.75922470  0.48943716  0.86598451  1
  O  O195  1  0.22002769  0.53539548  0.12732024  1
  O  O196  1  0.25667022  0.49129218  0.63475280  1
  O  O197  1  0.23877069  0.99888458  0.12573132  1
  O  O198  1  0.24355004  0.98890827  0.62271849  1
  O  O199  1  0.74124893  0.49594560  0.14173524  1
  O  O200  1  0.74467076  0.49202555  0.63546354  1
  O  O201  1  0.73953493  1.01217718  0.12543750  1
  O  O202  1  0.74436182  0.99314027  0.62696330  1
  O  O203  1  0.00816277  0.36612205  0.26041035  1
  O  O204  1  0.00115344  0.36987661  0.75591377  1
  O  O205  1  0.01387420  0.87569324  0.25812589  1
  O  O206  1  0.01553284  0.87789038  0.75456201  1
  O  O207  1  0.48936696  0.35658530  0.24711610  1
  O  O208  1  0.50298702  0.37054370  0.75796916  1
  O  O209  1  0.50718484  0.86696183  0.25499880  1
  O  O210  1  0.50529528  0.86952155  0.75452405  1
  O  O211  1  0.49990070  0.13746205  0.23917387  1
  O  O212  1  0.49411941  0.13151624  0.74462101  1
  O  O213  1  0.49263971  0.63737198  0.25304150  1
  O  O214  1  0.49326461  0.63266172  0.74754319  1
  O  O215  1  1.00082350  0.13135058  0.24025961  1
  O  O216  1  0.99344924  0.13357591  0.74416319  1
  O  O217  1  0.98407421  0.62141437  0.26210184  1
  O  O218  1  0.98957815  0.61793408  0.74140193  1
  O  O219  1  0.35554111  0.25795722  -0.00362093  1
  O  O220  1  0.37511269  0.25723111  0.50441425  1
  O  O221  1  0.37153041  0.74772052  0.00905394  1
  O  O222  1  0.36891439  0.76307937  0.49772810  1
  O  O223  1  0.86460827  0.26306005  -0.00392466  1
  O  O224  1  0.85777059  0.25287150  0.49170918  1
  O  O225  1  0.87488105  0.75575606  0.00037505  1
  O  O226  1  0.87433666  0.75575509  0.51123078  1
  O  O227  1  0.12612021  0.24305040  0.48758122  1
  O  O228  1  0.12963848  0.25330454  0.98681549  1
  O  O229  1  0.13635294  0.74470585  0.50086032  1
  O  O230  1  0.13879702  0.75633490  0.98991957  1
  O  O231  1  0.63299320  0.24695723  0.48873540  1
  O  O232  1  0.63855152  0.25988939  0.98975679  1
  O  O233  1  0.62833833  0.74237036  0.49747395  1
  O  O234  1  0.62696324  0.73122165  1.00696969  1
  O  O235  1  0.49908915  0.24008850  0.13631775  1
  O  O236  1  0.49610992  0.24659927  0.63004500  1
  O  O237  1  0.49346013  0.75099534  0.13379072  1
  O  O238  1  0.50162275  0.74473138  0.63864243  1
  O  O239  1  1.01041925  0.23581745  0.13422681  1
  O  O240  1  1.00502162  0.24597774  0.63665887  1
  O  O241  1  0.99027284  0.74912130  0.12898490  1
  O  O242  1  0.98865321  0.74518175  0.62591039  1
  O  O243  1  0.00759161  0.25343547  0.36891697  1
  O  O244  1  0.00467970  0.25782916  0.86757097  1
  O  O245  1  -0.00643387  0.76223796  0.36972111  1
  O  O246  1  0.01561217  0.75649105  0.87849618  1
  O  O247  1  0.50952991  0.24642869  0.36121043  1
  O  O248  1  0.50453379  0.25655055  0.87255057  1
  O  O249  1  0.50283490  0.75690668  0.36553414  1
  O  O250  1  0.49315131  0.76060522  0.86170763  1
  O  O251  1  0.24253047  0.12562987  0.48939094  1
  O  O252  1  0.24418961  0.14049436  0.99118867  1
  O  O253  1  0.24371834  0.63341644  0.49797960  1
  O  O254  1  0.26006812  0.63371353  0.98507804  1
  O  O255  1  0.74750888  0.13258005  0.49021854  1
  O  O256  1  0.76205572  0.14251407  0.98634556  1
  O  O257  1  0.74460186  0.62230631  0.49260057  1
  O  O258  1  0.73754207  0.61492203  1.00283301  1
  O  O259  1  0.24357323  0.36507382  0.00223621  1
  O  O260  1  0.25655127  0.37516936  0.50769092  1
  O  O261  1  0.25958995  0.86234133  0.00014405  1
  O  O262  1  0.25540614  0.86920855  0.50489605  1
  O  O263  1  0.76253769  0.36550939  -0.00173904  1
  O  O264  1  0.74841330  0.36774682  0.51117307  1
  O  O265  1  0.76326186  0.85988615  -0.04563380  1
  O  O266  1  0.75797099  0.87321637  0.50770793  1
  O  O267  1  0.11894027  0.48465007  0.25993962  1
  O  O268  1  0.13620433  0.49573678  0.75742845  1
  O  O269  1  0.12941375  0.98807151  0.23925090  1
  O  O270  1  0.12926272  0.99130582  0.74224421  1
  O  O271  1  0.63559015  0.50017523  0.24463754  1
  O  O272  1  0.63191054  0.49705534  0.74714899  1
  O  O273  1  0.62234028  0.98814213  0.24116027  1
  O  O274  1  0.62482089  0.99063724  0.74196363  1
  O  O275  1  0.37407118  -0.00984039  0.26357996  1
  O  O276  1  0.37440849  0.00743102  0.76074097  1
  O  O277  1  0.38431826  0.51529777  0.26344584  1
  O  O278  1  0.36518793  0.50791497  0.75720439  1
  O  O279  1  0.88318586  0.00070846  0.26328538  1
  O  O280  1  0.87347980  0.01375081  0.75779848  1
  O  O281  1  0.86427021  0.50388671  0.26206144  1
  O  O282  1  0.86715784  0.50723814  0.75910003  1
  O  O283  1  0.11950366  0.36658563  0.36983912  1
  O  O284  1  0.11367322  0.36819695  0.86655294  1
  O  O285  1  0.11908825  0.87977214  0.36294776  1
  O  O286  1  0.12173169  0.87081420  0.86739369  1
  O  O287  1  0.62120965  0.36097095  0.37910471  1
  O  O288  1  0.61467987  0.36869309  0.87229901  1
  O  O289  1  0.62048747  0.87574931  0.36269488  1
  O  O290  1  0.61206424  0.88724430  0.86291846  1
  O  O291  1  0.38254085  0.11834097  0.12760362  1
  O  O292  1  0.37918989  0.12955542  0.62815695  1
  O  O293  1  0.37849280  0.63400144  0.13636092  1
  O  O294  1  0.38165148  0.61755186  0.63682501  1
  O  O295  1  0.89255639  0.11602441  0.12546204  1
  O  O296  1  0.87972239  0.11966560  0.63545799  1
  O  O297  1  0.87234978  0.61017962  0.14445457  1
  O  O298  1  0.88324788  0.63032029  0.63136466  1
  O  O299  1  0.23893507  0.24847867  0.11022929  1
  O  O300  1  0.25665093  0.26080143  0.62378261  1
  O  O301  1  0.25970147  0.75000095  0.11567405  1
  O  O302  1  0.24799976  0.76283990  0.61649590  1
  O  O303  1  0.74327173  0.24170810  0.10875631  1
  O  O304  1  0.74026347  0.25914353  0.61698787  1
  O  O305  1  0.76048520  0.74494041  0.11205449  1
  O  O306  1  0.76248206  0.75603730  0.62562524  1
  O  O307  1  0.24056038  0.24263624  0.37579535  1
  O  O308  1  0.23865565  0.24875774  0.87697337  1
  O  O309  1  0.25740122  0.74146775  0.38753777  1
  O  O310  1  0.24602638  0.74457699  0.88071165  1
  O  O311  1  0.73899781  0.24464649  0.38085187  1
  O  O312  1  0.74131837  0.24587753  0.87904290  1
  O  O313  1  0.75117003  0.73632977  0.37831254  1
  O  O314  1  0.75506240  0.72778042  0.87840994  1
  O  O315  1  0.00296895  0.13522004  0.01282330  1
  O  O316  1  0.00419155  0.12026093  0.50355629  1
  O  O317  1  -0.00013165  0.60499570  -0.00375044  1
  O  O318  1  0.01122361  0.62955950  0.50857777  1
  O  O319  1  0.49789234  0.13230697  0.01808996  1
  O  O320  1  0.50078020  0.11860098  0.50610803  1
  O  O321  1  0.51017453  0.61807583  0.00387448  1
  O  O322  1  0.50460607  0.62104487  0.50553751  1
  O  O323  1  0.49391018  0.38277880  0.49795473  1
  O  O324  1  0.49212687  0.37523498  0.99086940  1
  O  O325  1  0.49409240  0.87849478  0.49631727  1
  O  O326  1  0.50113554  0.87330714  0.98745579  1
  O  O327  1  0.99879950  0.36497095  0.48775074  1
  O  O328  1  0.98592717  0.37415647  0.99333587  1
  O  O329  1  0.99690667  0.87824293  0.49197747  1
  O  O330  1  1.00127776  0.87479581  0.98370044  1
  O  O331  1  0.49158644  0.50030649  0.38115337  1
  O  O332  1  0.49166462  0.48877821  0.87046116  1
  O  O333  1  0.49372425  0.99760657  0.37842090  1
  O  O334  1  0.49282082  0.99545567  0.87791939  1
  O  O335  1  0.98879465  0.48735351  0.37306023  1
  O  O336  1  0.99172371  0.48910689  0.88066845  1
  O  O337  1  0.99363884  0.99108772  0.37986564  1
  O  O338  1  0.99556860  0.99541180  0.87055943  1
  O  O339  1  0.01371408  0.01230132  0.12871394  1
  O  O340  1  0.00536883  0.00573110  0.61880716  1
  O  O341  1  -0.00372963  0.49351451  0.11344929  1
  O  O342  1  -0.00609747  0.50858762  0.62279862  1
  O  O343  1  0.50257255  0.01269558  0.12240582  1
  O  O344  1  0.50417293  0.00511341  0.61947997  1
  O  O345  1  0.51346725  0.49972249  0.13019150  1
  O  O346  1  0.50561080  0.50649600  0.62184485  1
  O  O347  1  0.23201266  0.37256972  0.24954248  1
  O  O348  1  0.24517825  0.38357712  0.74249077  1
  O  O349  1  0.23878887  0.87519349  0.24923824  1
  O  O350  1  0.24437906  0.87717289  0.74133263  1
  O  O351  1  0.75354588  0.38667683  0.25832563  1
  O  O352  1  0.74407127  0.38211134  0.74495341  1
  O  O353  1  0.73693678  0.87015653  0.25479624  1
  O  O354  1  0.74044565  0.87625493  0.74838882  1
  O  O355  1  0.24281995  0.12452844  0.26355801  1
  O  O356  1  0.25573932  0.12551733  0.75463666  1
  O  O357  1  0.26516624  0.63826145  0.26403733  1
  O  O358  1  0.25550152  0.62074593  0.75344892  1
  O  O359  1  0.75380030  0.13347508  0.26360043  1
  O  O360  1  0.75865921  0.13025002  0.75810767  1
  O  O361  1  0.75877878  0.61443795  0.26117076  1
  O  O362  1  0.75912796  0.61220234  0.74442500  1
  O  O363  1  0.36555245  0.11443974  0.38179240  1
  O  O364  1  0.37120809  0.12071419  0.86986958  1
  O  O365  1  0.36902925  0.62137849  0.37300804  1
  O  O366  1  0.36786661  0.61942162  0.86233403  1
  O  O367  1  0.86779766  0.11538540  0.37367411  1
  O  O368  1  0.87115395  0.12150809  0.86517473  1
  O  O369  1  0.86733966  0.61467800  0.37385938  1
  O  O370  1  0.88533413  0.61056841  0.86853721  1
  O  O371  1  0.12206292  0.37361677  0.14172437  1
  O  O372  1  0.13790498  0.36993769  0.62971259  1
  O  O373  1  0.12287422  0.88536743  0.13253680  1
  O  O374  1  0.13190985  0.87793471  0.63049469  1
  O  O375  1  0.62187788  0.38596832  0.12184732  1
  O  O376  1  0.63137712  0.38157102  0.63214183  1
  O  O377  1  0.62238492  0.88646051  0.13686420  1
  O  O378  1  0.63057292  0.87963008  0.63356165  1
  O  O379  1  0.11581296  0.25473379  0.26115282  1
  O  O380  1  0.11479786  0.25593418  0.75780359  1
  O  O381  1  0.12658903  0.76403051  0.24042668  1
  O  O382  1  0.13528187  0.76170708  0.76119044  1
  O  O383  1  0.62576302  0.25231058  0.26213924  1
  O  O384  1  0.61856049  0.25664688  0.76060037  1
  O  O385  1  0.61807748  0.75978372  0.24627129  1
  O  O386  1  0.61583795  0.76187454  0.74779711  1
  O  O387  1  0.37905773  0.24511615  0.25470241  1
  O  O388  1  0.37997632  0.24607179  0.74411850  1
  O  O389  1  0.38420054  0.74632285  0.24384802  1
  O  O390  1  0.38090343  0.74060204  0.75195731  1
  O  O391  1  0.88914845  0.24671365  0.25539879  1
  O  O392  1  0.88480655  0.24251137  0.75831139  1
  O  O393  1  0.87277713  0.73053514  0.24915671  1
  O  O394  1  0.86910884  0.73636960  0.74372156  1
  O  O395  1  0.38117482  0.49757032  0.49278622  1
  O  O396  1  0.37654609  0.50606908  0.97912509  1
  O  O397  1  0.38051507  0.98911594  0.49049699  1
  O  O398  1  0.37612307  1.00093942  0.98699249  1
  O  O399  1  0.86605656  0.49379340  0.48970193  1
  O  O400  1  0.87811271  0.48564917  0.99544513  1
  O  O401  1  0.88178655  0.99276566  0.49204664  1
  O  O402  1  0.87074087  0.99878667  0.98076490  1
  O  O403  1  0.12954359  -0.00274793  0.01270766  1
  O  O404  1  0.11889872  0.00338744  0.50373626  1
  O  O405  1  0.10765429  0.48585351  -0.00311126  1
  O  O406  1  0.13147636  0.51189194  0.49982969  1
  O  O407  1  0.62500430  -0.00633708  0.01727684  1
  O  O408  1  0.61742639  -0.00036883  0.50575289  1
  O  O409  1  0.62650482  0.50187421  0.01538684  1
  O  O410  1  0.62003068  0.50596747  0.50597609  1
  O  O411  1  0.34510329  0.43222650  0.11334384  1
  O  O412  1  0.36729313  0.37133212  0.62031800  1
  O  O413  1  0.37527186  0.86356680  0.12497375  1
  O  O414  1  0.36569066  0.88379706  0.61558818  1
  O  O415  1  0.87782908  0.37503532  0.11593328  1
  O  O416  1  0.86012837  0.37814461  0.62766786  1
  O  O417  1  0.87178385  0.88015194  0.12147263  1
  O  O418  1  0.87344436  0.86914943  0.62379328  1
  O  O419  1  0.12952219  0.12921204  0.37780732  1
  O  O420  1  0.12746054  0.13468771  0.87338058  1
  O  O421  1  0.13757322  0.62242561  0.38403194  1
  O  O422  1  0.13725004  0.63496106  0.86603597  1
  O  O423  1  0.63236983  0.13353176  0.37375458  1
  O  O424  1  0.63332528  0.13594240  0.86889192  1
  O  O425  1  0.63453831  0.62478728  0.38039185  1
  O  O426  1  0.62245231  0.61184190  0.89337038  1
