# generated using pymatgen
data_V85Zn86O256
_symmetry_space_group_name_H-M   'P 1'
_cell_length_a   16.98873978
_cell_length_b   16.97667669
_cell_length_c   16.96695392
_cell_angle_alpha   89.93935444
_cell_angle_beta   90.10008142
_cell_angle_gamma   90.01007399
_symmetry_Int_Tables_number   1
_chemical_formula_structural   V85Zn86O256
_chemical_formula_sum   'V85 Zn86 O256'
_cell_volume   4893.46864545
_cell_formula_units_Z   1
loop_
 _symmetry_equiv_pos_site_id
 _symmetry_equiv_pos_as_xyz
  1  'x, y, z'
loop_
 _atom_site_type_symbol
 _atom_site_label
 _atom_site_symmetry_multiplicity
 _atom_site_fract_x
 _atom_site_fract_y
 _atom_site_fract_z
 _atom_site_occupancy
  V  V0  1  0.00034683  0.61813205  0.61607397  1
  V  V1  1  0.49288700  0.38142170  0.87549417  1
  V  V2  1  0.25189643  0.49681059  0.24775010  1
  V  V3  1  0.37940743  0.62714214  0.24004858  1
  V  V4  1  0.74984534  0.12715143  0.87416576  1
  V  V5  1  0.38173093  0.50204037  0.38170122  1
  V  V6  1  0.00057113  0.62724168  0.12403816  1
  V  V7  1  0.24919389  0.87102729  0.62754058  1
  V  V8  1  0.75038403  0.12758699  0.37421463  1
  V  V9  1  0.49979978  0.00105899  0.50036594  1
  V  V10  1  0.49956667  0.87540398  0.37642836  1
  V  V11  1  0.12227135  0.12291330  0.50125999  1
  V  V12  1  0.12872954  0.75551691  0.37062308  1
  V  V13  1  0.62302708  0.75063412  0.37558337  1
  V  V14  1  0.62077925  0.61512846  0.50219246  1
  V  V15  1  0.38014510  0.61633677  0.75558334  1
  V  V16  1  0.37506990  0.87387194  0.50295229  1
  V  V17  1  0.75613606  0.87926098  0.11336168  1
  V  V18  1  0.12723702  0.75339330  0.87540902  1
  V  V19  1  0.62261582  0.38004344  0.74313490  1
  V  V20  1  0.12764617  0.49668865  0.12598339  1
  V  V21  1  0.62542487  0.25381462  0.37198706  1
  V  V22  1  0.24174782  -0.00753719  0.24913304  1
  V  V23  1  0.87202678  0.75563854  0.11401328  1
  V  V24  1  0.25223949  0.62508102  0.37912354  1
  V  V25  1  0.25600011  0.37080259  0.63390839  1
  V  V26  1  0.62396294  0.87974117  0.24255054  1
  V  V27  1  0.50146041  0.49741849  0.02131118  1
  V  V28  1  0.50351070  0.61508887  0.62446837  1
  V  V29  1  0.25375489  -0.00140308  0.75526545  1
  V  V30  1  0.87551939  0.37557827  0.00126773  1
  V  V31  1  0.62521007  0.12656657  0.49858232  1
  V  V32  1  0.00881264  0.12278124  0.11843192  1
  V  V33  1  0.87537440  0.62476209  0.74827053  1
  V  V34  1  0.74763571  0.37667942  0.62135788  1
  V  V35  1  0.25231201  0.11896120  0.88028064  1
  V  V36  1  0.50280677  0.38021415  0.37996250  1
  V  V37  1  0.38250622  0.75062959  0.63237107  1
  V  V38  1  0.88163060  -0.00338253  0.37977667  1
  V  V39  1  0.87780134  0.25061752  0.62377783  1
  V  V40  1  0.37527223  0.36958559  0.50174929  1
  V  V41  1  0.88386392  0.37957231  0.50068839  1
  V  V42  1  0.37115173  0.37357452  -0.00107203  1
  V  V43  1  0.49510843  0.74858096  0.23499755  1
  V  V44  1  0.62348459  0.25524894  0.87338628  1
  V  V45  1  0.24932783  0.61074700  0.86744509  1
  V  V46  1  0.12737463  0.25030290  0.37732697  1
  V  V47  1  -0.00652118  -0.00107423  -0.00777659  1
  V  V48  1  0.87626056  0.12609048  0.24845976  1
  V  V49  1  0.87310493  0.62941739  0.25292415  1
  V  V50  1  0.13136781  0.49989688  0.62514925  1
  V  V51  1  0.74968928  0.00282517  0.75209996  1
  V  V52  1  0.74330828  0.37736507  0.12476488  1
  V  V53  1  0.25771728  0.74800771  0.00361768  1
  V  V54  1  0.12339067  0.24108634  0.87904209  1
  V  V55  1  0.00489476  0.76178999  0.25120751  1
  V  V56  1  0.88445973  0.50288765  0.37795031  1
  V  V57  1  0.00265146  0.25054995  0.24916705  1
  V  V58  1  0.74991046  0.75475792  0.49817223  1
  V  V59  1  0.37840778  0.88449061  -0.01267971  1
  V  V60  1  -0.01870315  0.87151867  0.87915157  1
  V  V61  1  0.75186035  0.25377594  -0.00131869  1
  V  V62  1  -0.00011615  0.12041533  0.62283356  1
  V  V63  1  0.36955484  0.25301787  0.12710532  1
  V  V64  1  0.74906641  0.49945008  0.24737453  1
  V  V65  1  0.37486298  -0.00060853  0.37474050  1
  V  V66  1  0.87597271  0.12416818  0.75259724  1
  V  V67  1  0.74658795  0.00007926  0.24764867  1
  V  V68  1  0.25014656  0.12400849  0.37687707  1
  V  V69  1  0.12166526  -0.00334921  0.62275010  1
  V  V70  1  0.62350773  -0.00060145  0.62921501  1
  V  V71  1  0.49477524  0.13198228  0.62534122  1
  V  V72  1  0.00128977  0.50086011  0.00016590  1
  V  V73  1  0.00074360  0.37349856  0.87138056  1
  V  V74  1  0.12915846  0.37561402  0.25063533  1
  V  V75  1  0.24649684  0.24592999  0.00425037  1
  V  V76  1  0.00414775  0.37757021  0.37756409  1
  V  V77  1  0.37332392  0.13040421  0.74834849  1
  V  V78  1  0.87844596  0.25109195  0.12472477  1
  V  V79  1  0.75260248  0.49778134  0.74574077  1
  V  V80  1  0.24882511  0.86954117  0.12618059  1
  V  V81  1  0.87706023  0.74991026  0.62277623  1
  V  V82  1  0.37625895  0.12351993  0.24738430  1
  V  V83  1  0.87257418  0.50038494  0.87525410  1
  V  V84  1  0.74818062  0.87827847  0.62621983  1
  Zn  Zn85  1  0.00481364  0.24861343  0.75020182  1
  Zn  Zn86  1  0.75239574  0.25144590  0.49792579  1
  Zn  Zn87  1  0.74421242  0.63541404  0.88967015  1
  Zn  Zn88  1  0.74969428  0.62329093  0.37784708  1
  Zn  Zn89  1  0.50009995  0.25048874  0.24787451  1
  Zn  Zn90  1  0.61694079  0.38494322  0.24336149  1
  Zn  Zn91  1  0.11822334  0.61817062  0.49304635  1
  Zn  Zn92  1  0.00098311  0.75118124  0.74819085  1
  Zn  Zn93  1  0.54361839  0.87079243  0.82946865  1
  Zn  Zn94  1  0.13502248  0.37974687  0.75602193  1
  Zn  Zn95  1  0.12111248  0.87459611  0.75159313  1
  Zn  Zn96  1  0.25498217  0.24605180  0.50712337  1
  Zn  Zn97  1  0.01437410  0.88387804  0.38019672  1
  Zn  Zn98  1  0.51521873  -0.00605978  0.00110770  1
  Zn  Zn99  1  0.88806114  0.88378549  0.50589869  1
  Zn  Zn100  1  0.50592331  0.11739307  0.12005572  1
  Zn  Zn101  1  0.24808560  0.74618357  0.50294794  1
  Zn  Zn102  1  0.12557236  -0.00439517  0.11809043  1
  Zn  Zn103  1  0.49364015  0.25407528  0.74687304  1
  Zn  Zn104  1  0.63418880  0.61294070  0.01507550  1
  Zn  Zn105  1  0.62533340  0.12130825  0.01004589  1
  Zn  Zn106  1  0.12846472  0.62322704  -0.00120374  1
  Zn  Zn107  1  0.18923342  0.18417232  0.19063530  1
  Zn  Zn108  1  0.18616936  0.18945128  0.69264491  1
  Zn  Zn109  1  0.18902422  0.68455579  0.18857368  1
  Zn  Zn110  1  0.18690642  0.68526933  0.69138374  1
  Zn  Zn111  1  0.68939064  0.19063143  0.18805193  1
  Zn  Zn112  1  0.68606655  0.19142216  0.68548984  1
  Zn  Zn113  1  0.65856589  0.71977405  0.14541535  1
  Zn  Zn114  1  0.69128768  0.68428090  0.68100620  1
  Zn  Zn115  1  0.31269490  0.31215291  0.31664006  1
  Zn  Zn116  1  0.31116842  0.30651133  0.81609557  1
  Zn  Zn117  1  0.31418498  0.81192774  0.31131879  1
  Zn  Zn118  1  0.31427285  0.80565573  0.81378712  1
  Zn  Zn119  1  0.81477534  0.31514389  0.31166527  1
  Zn  Zn120  1  0.81419795  0.31229203  0.81006212  1
  Zn  Zn121  1  0.81278220  0.81407044  0.30923713  1
  Zn  Zn122  1  0.80320594  0.81260392  0.80669434  1
  Zn  Zn123  1  0.19088437  0.43899281  0.44349058  1
  Zn  Zn124  1  0.18662692  0.43138127  0.94154663  1
  Zn  Zn125  1  0.19004323  0.93796779  0.44056859  1
  Zn  Zn126  1  0.18088801  0.93549478  0.94374431  1
  Zn  Zn127  1  0.69526266  0.43761327  0.43334385  1
  Zn  Zn128  1  0.63888884  0.48765725  0.89266588  1
  Zn  Zn129  1  0.68882404  0.93917669  0.43603694  1
  Zn  Zn130  1  0.66580167  0.94874310  0.93192529  1
  Zn  Zn131  1  0.31628020  0.05755149  0.06467005  1
  Zn  Zn132  1  0.31141207  0.06018706  0.56504930  1
  Zn  Zn133  1  0.31401252  0.56128101  0.05781463  1
  Zn  Zn134  1  0.31501827  0.55792181  0.56666309  1
  Zn  Zn135  1  0.81449101  0.06156512  0.05787512  1
  Zn  Zn136  1  0.81134619  0.06558865  0.56158397  1
  Zn  Zn137  1  0.81289297  0.56257844  0.06506978  1
  Zn  Zn138  1  0.81108872  0.56395087  0.56009522  1
  Zn  Zn139  1  0.42876843  0.42987415  0.19206406  1
  Zn  Zn140  1  0.43634826  0.43939783  0.68917295  1
  Zn  Zn141  1  0.43386983  0.93195625  0.17547367  1
  Zn  Zn142  1  0.43646434  0.93977030  0.69660194  1
  Zn  Zn143  1  0.93906952  0.43859559  0.18947537  1
  Zn  Zn144  1  0.94095873  0.43996314  0.68549025  1
  Zn  Zn145  1  0.93698157  0.94137480  0.18758675  1
  Zn  Zn146  1  0.93529040  0.93689063  0.69209873  1
  Zn  Zn147  1  0.06271950  0.06557177  0.30996432  1
  Zn  Zn148  1  0.06345598  0.05702778  0.81287643  1
  Zn  Zn149  1  0.06316422  0.56781122  0.30890837  1
  Zn  Zn150  1  0.06404699  0.56077534  0.80747901  1
  Zn  Zn151  1  0.56170347  0.06354167  0.31075965  1
  Zn  Zn152  1  0.55723226  0.06368898  0.81736582  1
  Zn  Zn153  1  0.56423530  0.56746430  0.30728736  1
  Zn  Zn154  1  0.56621888  0.67165094  0.82638564  1
  Zn  Zn155  1  0.43924692  0.18937093  0.43557456  1
  Zn  Zn156  1  0.43725195  0.18395564  0.93696373  1
  Zn  Zn157  1  0.43716587  0.68848937  0.44173198  1
  Zn  Zn158  1  0.43453999  0.68125983  0.94359464  1
  Zn  Zn159  1  0.93852393  0.18867795  0.43751764  1
  Zn  Zn160  1  0.93652938  0.18563056  0.93879443  1
  Zn  Zn161  1  0.94039106  0.69450939  0.43663277  1
  Zn  Zn162  1  0.93630035  0.68496080  0.93579017  1
  Zn  Zn163  1  0.06455712  0.31351065  0.06140290  1
  Zn  Zn164  1  0.06664882  0.31120463  0.56512720  1
  Zn  Zn165  1  0.06507042  0.81389492  0.05920441  1
  Zn  Zn166  1  0.06295801  0.80597755  0.55589633  1
  Zn  Zn167  1  0.56136256  0.29780994  0.06441015  1
  Zn  Zn168  1  0.56271172  0.31402509  0.55801497  1
  Zn  Zn169  1  0.56515435  0.79595276  -0.02693871  1
  Zn  Zn170  1  0.56024653  0.81355613  0.57125263  1
  O  O171  1  0.11117940  0.12367845  0.13002509  1
  O  O172  1  0.11935099  0.11825262  0.62108140  1
  O  O173  1  0.11868926  0.61311644  0.12526889  1
  O  O174  1  0.12056353  0.61443234  0.62608042  1
  O  O175  1  0.61079456  0.16843213  0.11486584  1
  O  O176  1  0.61950770  0.11885477  0.61861571  1
  O  O177  1  0.62908143  0.61355044  0.13175378  1
  O  O178  1  0.61047236  0.63275097  0.61894168  1
  O  O179  1  0.38222903  0.38254028  0.38133964  1
  O  O180  1  0.38264132  0.36022419  0.88634276  1
  O  O181  1  0.37982403  0.87963433  0.38252255  1
  O  O182  1  0.36943058  0.87003915  0.88692436  1
  O  O183  1  0.88332571  0.38218857  0.38158811  1
  O  O184  1  0.88270211  0.37845223  0.88041207  1
  O  O185  1  0.87156259  0.89216129  0.37449764  1
  O  O186  1  0.88253179  0.86249587  0.87337658  1
  O  O187  1  0.25567302  0.00358067  0.36979816  1
  O  O188  1  0.23552651  0.00762250  0.86424983  1
  O  O189  1  0.25839335  0.50719614  0.36767474  1
  O  O190  1  0.24213499  0.51244905  0.87892906  1
  O  O191  1  0.75720294  0.00776147  0.36614257  1
  O  O192  1  0.74009899  0.01405443  0.86064127  1
  O  O193  1  0.76720043  0.50137153  0.36610258  1
  O  O194  1  0.75860021  0.49632438  0.85633984  1
  O  O195  1  0.24016190  0.50818053  0.13747692  1
  O  O196  1  0.23992930  0.48999964  0.62456519  1
  O  O197  1  0.24686067  0.99315302  0.13393807  1
  O  O198  1  0.24163907  0.99156288  0.63319050  1
  O  O199  1  0.76362473  0.48723629  0.13673589  1
  O  O200  1  0.75926646  0.48556904  0.63129024  1
  O  O201  1  0.76442673  0.98949327  0.13827946  1
  O  O202  1  0.74349426  0.99729572  0.62840919  1
  O  O203  1  0.00824816  0.36957025  0.25697980  1
  O  O204  1  -0.00281757  0.37240965  0.76399374  1
  O  O205  1  -0.00369235  0.86493715  0.25560375  1
  O  O206  1  -0.00029450  0.87437229  0.76542852  1
  O  O207  1  0.50008989  0.37164334  0.26443381  1
  O  O208  1  0.50445379  0.37376120  0.75320348  1
  O  O209  1  0.50370858  0.86701569  0.25457510  1
  O  O210  1  0.51204051  0.86829347  0.72545094  1
  O  O211  1  0.48498907  0.12783863  0.25322894  1
  O  O212  1  0.49037274  0.12424286  0.74356439  1
  O  O213  1  0.49403182  0.63989112  0.25444537  1
  O  O214  1  0.48825312  0.63096954  0.73889240  1
  O  O215  1  0.99564409  0.13162524  0.24088761  1
  O  O216  1  0.99154795  0.12336549  0.74360952  1
  O  O217  1  0.99096192  0.63349919  0.24358067  1
  O  O218  1  0.98736288  0.62450505  0.74181256  1
  O  O219  1  0.36604135  0.25223331  0.00846131  1
  O  O220  1  0.37372908  0.26381963  0.49484410  1
  O  O221  1  0.36015417  0.75384557  -0.00239719  1
  O  O222  1  0.36949251  0.75622719  0.51055910  1
  O  O223  1  0.87176761  0.25616777  0.00467139  1
  O  O224  1  0.87476130  0.26059104  0.50447026  1
  O  O225  1  0.87915537  0.74812083  0.01579814  1
  O  O226  1  0.86219810  0.75049867  0.50337477  1
  O  O227  1  0.12718267  0.23821243  0.49580544  1
  O  O228  1  0.13351197  0.25412717  0.99031235  1
  O  O229  1  0.13106823  0.73916573  0.48701413  1
  O  O230  1  0.13219232  0.74448233  0.98977855  1
  O  O231  1  0.62782957  0.24568010  0.48772389  1
  O  O232  1  0.63466342  0.25799535  0.98191469  1
  O  O233  1  0.63254254  0.74848270  0.49315575  1
  O  O234  1  0.61827289  0.72478009  1.03782117  1
  O  O235  1  0.47877403  0.24880592  0.12999708  1
  O  O236  1  0.50879919  0.23577255  0.62643949  1
  O  O237  1  0.49559475  0.75467959  0.14026542  1
  O  O238  1  0.48739096  0.74037458  0.61982644  1
  O  O239  1  0.99804967  0.24359537  0.12792763  1
  O  O240  1  0.99783510  0.23828284  0.62893271  1
  O  O241  1  0.99191585  0.75005915  0.13138534  1
  O  O242  1  0.99517268  0.73964063  0.62801831  1
  O  O243  1  0.00779153  0.25538480  0.36905281  1
  O  O244  1  0.00686870  0.25600584  0.87748691  1
  O  O245  1  0.01215383  0.74918541  0.36577757  1
  O  O246  1  0.00571456  0.75933030  0.87665307  1
  O  O247  1  0.50902662  0.25990427  0.37397781  1
  O  O248  1  0.51014801  0.25617062  0.87099454  1
  O  O249  1  0.51052443  0.75762537  0.37853530  1
  O  O250  1  0.50455755  0.74591476  0.88449569  1
  O  O251  1  0.24124500  0.12518739  0.49714074  1
  O  O252  1  0.25679995  0.13129297  0.98957166  1
  O  O253  1  0.25531549  0.62240709  0.48650602  1
  O  O254  1  0.25215782  0.62974164  0.98680000  1
  O  O255  1  0.74310239  0.12897651  0.49284266  1
  O  O256  1  0.75439024  0.13485480  0.98866943  1
  O  O257  1  0.74123228  0.63854216  0.50191279  1
  O  O258  1  0.75210782  0.62576035  1.00080051  1
  O  O259  1  0.25837006  0.35724714  -0.00899421  1
  O  O260  1  0.25899256  0.37160525  0.50952050  1
  O  O261  1  0.25475770  0.86559208  0.00335298  1
  O  O262  1  0.25643593  0.87625619  0.51392071  1
  O  O263  1  0.76156174  0.36977074  0.01171129  1
  O  O264  1  0.76219334  0.37441309  0.50641521  1
  O  O265  1  0.75265809  0.88362492  0.01748843  1
  O  O266  1  0.75341448  0.86918563  0.50669794  1
  O  O267  1  0.13269216  0.49665422  0.24546745  1
  O  O268  1  0.12251816  0.49512432  0.73419924  1
  O  O269  1  0.13913381  1.00325334  0.25182677  1
  O  O270  1  0.13406033  0.99821750  0.73832144  1
  O  O271  1  0.64411849  0.50014235  0.26100743  1
  O  O272  1  0.63890946  0.48383803  0.75245336  1
  O  O273  1  0.63501131  0.99311702  0.25552018  1
  O  O274  1  0.63631447  1.01178846  0.73491933  1
  O  O275  1  0.36632395  0.00701031  0.25621972  1
  O  O276  1  0.36024940  0.01031799  0.74518773  1
  O  O277  1  0.36843239  0.50595004  0.25996256  1
  O  O278  1  0.37515453  0.51760237  0.74712054  1
  O  O279  1  0.86627852  0.00657290  0.25967542  1
  O  O280  1  0.86294537  0.01456672  0.74237203  1
  O  O281  1  0.87323510  0.50809889  0.25804342  1
  O  O282  1  0.87193402  0.50493892  0.75418023  1
  O  O283  1  0.12298135  0.37114350  0.37225559  1
  O  O284  1  0.11564281  0.36702480  0.87516336  1
  O  O285  1  0.13288801  0.86051590  0.37776115  1
  O  O286  1  0.11927732  0.86336107  0.87352395  1
  O  O287  1  0.61850551  0.37061909  0.37792579  1
  O  O288  1  0.61486844  0.37142554  0.86229459  1
  O  O289  1  0.62052667  0.86938922  0.36677313  1
  O  O290  1  0.63220701  0.85014414  0.89721692  1
  O  O291  1  0.37020485  0.13228486  0.13683259  1
  O  O292  1  0.38517353  0.11900804  0.63144183  1
  O  O293  1  0.36822815  0.61946479  0.14190123  1
  O  O294  1  0.38178407  0.62961893  0.63156997  1
  O  O295  1  0.88391594  0.13178109  0.12953608  1
  O  O296  1  0.88259557  0.12943244  0.62928975  1
  O  O297  1  0.88036988  0.63880212  0.13403602  1
  O  O298  1  0.88278968  0.62765897  0.62794879  1
  O  O299  1  0.25339664  0.24014166  0.11358074  1
  O  O300  1  0.24217498  0.26614141  0.62450269  1
  O  O301  1  0.24176020  0.75264604  0.11319507  1
  O  O302  1  0.25402740  0.75855209  0.62591472  1
  O  O303  1  0.76159036  0.25863870  0.12106815  1
  O  O304  1  0.75843179  0.26048589  0.62245323  1
  O  O305  1  0.76627039  0.76506421  0.13350870  1
  O  O306  1  0.75362324  0.76038672  0.61700359  1
  O  O307  1  0.24309729  0.24177473  0.37773391  1
  O  O308  1  0.24146157  0.23855617  0.88234235  1
  O  O309  1  0.24582891  0.74004910  0.37205739  1
  O  O310  1  0.24114228  0.74169287  0.88239817  1
  O  O311  1  0.74377818  0.24656876  0.37437295  1
  O  O312  1  0.74480416  0.24768598  0.87748614  1
  O  O313  1  0.74032184  0.75221005  0.38108205  1
  O  O314  1  0.72331260  0.73562503  0.83218894  1
  O  O315  1  -0.00433465  0.11303709  0.00579900  1
  O  O316  1  0.00965035  0.12817518  0.51090402  1
  O  O317  1  0.00233701  0.61815866  0.00553917  1
  O  O318  1  -0.00096194  0.62883005  0.51183309  1
  O  O319  1  0.50470972  0.11852509  -0.00348207  1
  O  O320  1  0.50383910  0.12071625  0.50567799  1
  O  O321  1  0.47852793  0.59510914  0.00364673  1
  O  O322  1  0.50650820  0.62768930  0.51271463  1
  O  O323  1  0.49198038  0.37423549  0.48952520  1
  O  O324  1  0.48959700  0.37397689  0.99636231  1
  O  O325  1  0.49527680  0.88190123  0.49758101  1
  O  O326  1  0.47904004  0.87147445  1.00576267  1
  O  O327  1  0.99088536  0.36991997  0.49569707  1
  O  O328  1  0.99585669  0.37994443  0.99063398  1
  O  O329  1  0.99818180  0.87064311  0.49209359  1
  O  O330  1  0.99847255  0.88086469  0.98685477  1
  O  O331  1  0.49142413  0.49363720  0.36759301  1
  O  O332  1  0.49767964  0.48033950  0.88605767  1
  O  O333  1  0.49531404  0.99496803  0.38030495  1
  O  O334  1  0.53572458  0.97815409  0.88347105  1
  O  O335  1  0.99175261  0.49538470  0.36787214  1
  O  O336  1  0.99541664  0.49282542  0.87898935  1
  O  O337  1  0.98537099  1.00158260  0.36658457  1
  O  O338  1  0.99952072  0.98657277  0.88151184  1
  O  O339  1  0.00117786  0.00620655  0.11809129  1
  O  O340  1  0.00949057  0.00884176  0.63263128  1
  O  O341  1  0.00699154  0.50632658  0.12152187  1
  O  O342  1  0.01090190  0.50847076  0.62614507  1
  O  O343  1  0.49286751  0.00463892  0.11763864  1
  O  O344  1  0.50827410  0.01107446  0.61914800  1
  O  O345  1  0.49582363  0.48598675  0.12113202  1
  O  O346  1  0.49650013  0.51627495  0.62589029  1
  O  O347  1  0.24621226  0.38907249  0.25852841  1
  O  O348  1  0.25614438  0.37304731  0.73806410  1
  O  O349  1  0.25908900  0.88312302  0.24144529  1
  O  O350  1  0.25026941  0.88154873  0.74175374  1
  O  O351  1  0.75286397  0.38317665  0.24230148  1
  O  O352  1  0.74694385  0.37855162  0.73946111  1
  O  O353  1  0.74242621  0.88564118  0.25162001  1
  O  O354  1  0.75517503  0.89063201  0.73654774  1
  O  O355  1  0.25728624  0.11530745  0.25722895  1
  O  O356  1  0.25468732  0.11762844  0.75474108  1
  O  O357  1  0.25869968  0.61756583  0.26054142  1
  O  O358  1  0.25858793  0.62496054  0.76098515  1
  O  O359  1  0.75486504  0.11875306  0.25259417  1
  O  O360  1  0.75742751  0.12305799  0.75262301  1
  O  O361  1  0.76744756  0.61738718  0.25399477  1
  O  O362  1  0.76511344  0.60908802  0.73227107  1
  O  O363  1  0.36981848  0.11967097  0.36950755  1
  O  O364  1  0.36066130  0.12809206  0.86422172  1
  O  O365  1  0.37190501  0.61831933  0.36992049  1
  O  O366  1  0.36226582  0.62822678  0.86269117  1
  O  O367  1  0.87142138  0.11919685  0.36896623  1
  O  O368  1  0.86275589  0.13373709  0.86351812  1
  O  O369  1  0.87771066  0.61927944  0.37033445  1
  O  O370  1  0.87027979  0.62145385  0.86320749  1
  O  O371  1  0.11927203  0.38845315  0.13321433  1
  O  O372  1  0.13516943  0.38373488  0.62594369  1
  O  O373  1  0.14095523  0.87573237  0.11897581  1
  O  O374  1  0.13189224  0.88021234  0.62523683  1
  O  O375  1  0.64000744  0.36420000  0.12738887  1
  O  O376  1  0.63625139  0.36798583  0.62928322  1
  O  O377  1  0.64579348  0.86606704  0.14080996  1
  O  O378  1  0.63784197  0.88788655  0.61554387  1
  O  O379  1  0.12265250  0.25535122  0.25644447  1
  O  O380  1  0.12409031  0.25665228  0.76423222  1
  O  O381  1  0.11573271  0.74202996  0.25785032  1
  O  O382  1  0.12190158  0.75099244  0.76128051  1
  O  O383  1  0.62485537  0.25634390  0.26486360  1
  O  O384  1  0.62690442  0.26311160  0.75677636  1
  O  O385  1  0.61235482  0.75872912  0.25672613  1
  O  O386  1  0.65621675  0.73697348  0.77688443  1
  O  O387  1  0.36773291  0.24056078  0.24466733  1
  O  O388  1  0.37370132  0.23526440  0.74837030  1
  O  O389  1  0.38843123  0.74268152  0.25754491  1
  O  O390  1  0.36675226  0.73771031  0.73776643  1
  O  O391  1  0.88355423  0.24607161  0.24591520  1
  O  O392  1  0.87760199  0.23977911  0.74222986  1
  O  O393  1  0.88480643  0.74421119  0.25007885  1
  O  O394  1  0.87310500  0.73902226  0.74073327  1
  O  O395  1  0.37034182  0.49024215  0.48753172  1
  O  O396  1  0.37541108  0.47786854  1.00849488  1
  O  O397  1  0.37989486  0.99465612  0.49530356  1
  O  O398  1  0.36874150  0.98632691  0.99360853  1
  O  O399  1  0.87105763  0.49146573  0.48981040  1
  O  O400  1  0.88312178  0.49459356  0.99476349  1
  O  O401  1  0.86970245  1.00406670  0.48356405  1
  O  O402  1  0.89243318  0.99834170  1.00350548  1
  O  O403  1  0.10466903  -0.00296952  0.00183191  1
  O  O404  1  0.13047711  0.01032655  0.51164932  1
  O  O405  1  0.12092044  0.49914804  0.01028957  1
  O  O406  1  0.12712489  0.50234624  0.51548072  1
  O  O407  1  0.63524821  0.00960032  0.01798089  1
  O  O408  1  0.62030190  0.00677486  0.50598545  1
  O  O409  1  0.60381529  0.49311575  0.00598472  1
  O  O410  1  0.63588062  0.51723714  0.49231791  1
  O  O411  1  0.36798293  0.36077260  0.11905459  1
  O  O412  1  0.36334531  0.38441968  0.61698987  1
  O  O413  1  0.35605824  0.87438499  0.11115140  1
  O  O414  1  0.36637447  0.86931588  0.62287655  1
  O  O415  1  0.87542199  0.36877404  0.12065470  1
  O  O416  1  0.87255537  0.37122264  0.61785534  1
  O  O417  1  0.86897196  0.86490895  0.13150055  1
  O  O418  1  0.86587406  0.87144569  0.62347817  1
  O  O419  1  0.12838557  0.12823882  0.38407203  1
  O  O420  1  0.13300417  0.13359530  0.86846937  1
  O  O421  1  0.13669780  0.62962239  0.37326790  1
  O  O422  1  0.13502681  0.63093645  0.87218505  1
  O  O423  1  0.62910819  0.13357680  0.37791700  1
  O  O424  1  0.63791464  0.14083691  0.86679127  1
  O  O425  1  0.62565144  0.63729460  0.38268369  1
  O  O426  1  0.63075275  0.60286809  0.89051248  1
