# generated using pymatgen
data_V85Zn86O256
_symmetry_space_group_name_H-M   'P 1'
_cell_length_a   16.97903899
_cell_length_b   16.96862647
_cell_length_c   16.95728881
_cell_angle_alpha   89.84715339
_cell_angle_beta   90.06290848
_cell_angle_gamma   89.83089406
_symmetry_Int_Tables_number   1
_chemical_formula_structural   V85Zn86O256
_chemical_formula_sum   'V85 Zn86 O256'
_cell_volume   4885.53928614
_cell_formula_units_Z   1
loop_
 _symmetry_equiv_pos_site_id
 _symmetry_equiv_pos_as_xyz
  1  'x, y, z'
loop_
 _atom_site_type_symbol
 _atom_site_label
 _atom_site_symmetry_multiplicity
 _atom_site_fract_x
 _atom_site_fract_y
 _atom_site_fract_z
 _atom_site_occupancy
  V  V0  1  0.00078210  0.37403794  0.87660842  1
  V  V1  1  0.12546488  0.11633416  0.00773339  1
  V  V2  1  0.61212352  0.62347840  0.00630312  1
  V  V3  1  0.62722898  0.24584232  0.87265885  1
  V  V4  1  0.62597804  0.12256979  -0.00145749  1
  V  V5  1  0.74425980  0.37410487  0.63171201  1
  V  V6  1  0.48693159  0.38008780  0.38183060  1
  V  V7  1  0.86907418  0.49869988  0.37605880  1
  V  V8  1  0.74332082  0.37422733  0.12783690  1
  V  V9  1  0.75942433  0.11634492  0.87481732  1
  V  V10  1  0.12783499  0.24259992  0.87308542  1
  V  V11  1  0.87525540  0.24287165  0.63015058  1
  V  V12  1  0.50344370  0.24729721  0.75435494  1
  V  V13  1  0.37737215  0.87174192  0.49859443  1
  V  V14  1  0.62633027  0.75301888  0.36873389  1
  V  V15  1  0.37523382  0.25426289  0.61469513  1
  V  V16  1  0.12370219  0.00644461  0.61936232  1
  V  V17  1  0.87315531  0.50485700  0.87814609  1
  V  V18  1  0.12468489  0.50225289  0.62742831  1
  V  V19  1  0.50595139  0.87538851  0.36814814  1
  V  V20  1  0.87244620  0.37557195  0.50103192  1
  V  V21  1  0.24146973  0.12963559  0.38347496  1
  V  V22  1  0.25760251  0.61865093  0.87823759  1
  V  V23  1  0.62693272  0.63041680  0.50021232  1
  V  V24  1  0.24948320  0.24529204  -0.00519982  1
  V  V25  1  0.49877408  0.63409394  0.62607144  1
  V  V26  1  0.25558871  0.37576194  0.61508557  1
  V  V27  1  0.12730038  0.62135032  0.00300502  1
  V  V28  1  -0.00314474  0.88455021  0.87647699  1
  V  V29  1  0.75257325  0.74365521  -0.00051387  1
  V  V30  1  0.62826019  0.87225176  0.74347481  1
  V  V31  1  0.63152491  0.74977091  0.87379277  1
  V  V32  1  0.00648885  0.25555522  0.24762029  1
  V  V33  1  0.87365747  0.62408570  0.75184218  1
  V  V34  1  0.25099692  0.87401551  0.62186016  1
  V  V35  1  0.62979956  0.00534547  0.62303973  1
  V  V36  1  0.50103777  0.12453766  0.12529794  1
  V  V37  1  0.25648463  0.49905558  0.25605659  1
  V  V38  1  0.87065698  0.13683097  0.24362623  1
  V  V39  1  0.74963957  0.63126396  0.37965097  1
  V  V40  1  0.12556883  0.62795264  0.49711327  1
  V  V41  1  0.12568675  0.37312744  0.74952865  1
  V  V42  1  0.75613095  -0.00168870  0.25494823  1
  V  V43  1  0.50308597  0.25220526  0.25135688  1
  V  V44  1  0.24478570  0.00040319  0.24371694  1
  V  V45  1  0.86487917  0.87213608  0.50260482  1
  V  V46  1  0.49290991  0.74696074  0.23946520  1
  V  V47  1  0.50140583  0.86893533  0.86852180  1
  V  V48  1  0.12633378  0.74909430  0.87499859  1
  V  V49  1  -0.00338131  0.88046553  0.37615859  1
  V  V50  1  0.37482334  0.24903613  0.12250066  1
  V  V51  1  0.37351389  0.00276055  0.87391730  1
  V  V52  1  0.00051422  0.24399938  0.74876324  1
  V  V53  1  0.00033821  0.49823474  0.00245149  1
  V  V54  1  0.00080249  0.74800361  0.75074909  1
  V  V55  1  0.50090907  -0.00131849  0.00004796  1
  V  V56  1  0.12298746  0.49260001  0.13453387  1
  V  V57  1  0.86109782  0.75017714  0.62207155  1
  V  V58  1  0.12252065  0.88055943  0.24300139  1
  V  V59  1  0.75214104  0.49938539  0.75618915  1
  V  V60  1  0.62352976  0.49941335  0.62476780  1
  V  V61  1  0.37692322  0.63110026  0.75102643  1
  V  V62  1  0.87408972  0.36654647  0.00637131  1
  V  V63  1  0.25511668  0.74732825  0.01047013  1
  V  V64  1  0.48670501  0.49977628  0.49846269  1
  V  V65  1  -0.00131225  0.62341395  0.12710757  1
  V  V66  1  0.00061269  0.62545936  0.62588762  1
  V  V67  1  0.00042678  0.75043350  0.25152941  1
  V  V68  1  0.38268809  0.38242133  -0.01414147  1
  V  V69  1  0.87360425  0.62535679  0.25117041  1
  V  V70  1  0.75688261  -0.00453582  0.74898025  1
  V  V71  1  0.56959025  0.42309451  0.81000126  1
  V  V72  1  0.25650535  0.49785353  0.75547281  1
  V  V73  1  0.37579288  0.00009003  0.37376650  1
  V  V74  1  0.74246071  0.24354772  0.50357062  1
  V  V75  1  -0.00051575  0.00214892  0.50174611  1
  V  V76  1  0.37354466  0.12483419  0.24928159  1
  V  V77  1  0.74598375  0.12444921  0.37904699  1
  V  V78  1  0.24534165  0.37097258  0.12994666  1
  V  V79  1  0.62652713  -0.00486316  0.13277581  1
  V  V80  1  0.25237287  0.00227871  0.74947692  1
  V  V81  1  0.37358063  0.12503818  0.75085678  1
  V  V82  1  0.50752220  0.00649887  0.49955485  1
  V  V83  1  0.75058491  0.87332060  0.13040652  1
  V  V84  1  0.37586651  0.87080755  0.00688887  1
  Zn  Zn85  1  0.62167872  0.25166224  0.38443505  1
  Zn  Zn86  1  0.26371586  0.62412885  0.37897961  1
  Zn  Zn87  1  0.25218824  0.74839388  0.49667478  1
  Zn  Zn88  1  0.75497414  0.24351666  0.00534138  1
  Zn  Zn89  1  0.03807952  0.16569941  0.57460688  1
  Zn  Zn90  1  0.11784319  0.24689798  0.39057189  1
  Zn  Zn91  1  -0.00272972  0.50282204  0.49939066  1
  Zn  Zn92  1  0.50440466  0.12930954  0.61873938  1
  Zn  Zn93  1  0.88451475  0.11117990  0.75253181  1
  Zn  Zn94  1  0.24927844  0.87484623  0.12654055  1
  Zn  Zn95  1  0.13051627  0.75054753  0.37448704  1
  Zn  Zn96  1  0.00508676  0.37695479  0.36852313  1
  Zn  Zn97  1  0.73952544  0.50603825  0.24511135  1
  Zn  Zn98  1  -0.00180409  0.12051850  0.12837594  1
  Zn  Zn99  1  0.12675791  0.87523273  0.74810531  1
  Zn  Zn100  1  0.37996059  0.75566515  0.63137383  1
  Zn  Zn101  1  -0.00639350  -0.00220571  0.01407085  1
  Zn  Zn102  1  0.60461324  0.50791559  0.12416216  1
  Zn  Zn103  1  0.38541973  0.61803430  0.25330845  1
  Zn  Zn104  1  0.62096788  0.38326472  0.25530822  1
  Zn  Zn105  1  0.86770641  0.88312554  -0.00553470  1
  Zn  Zn106  1  0.87599269  0.75156032  0.12218639  1
  Zn  Zn107  1  0.18501921  0.18771754  0.19096068  1
  Zn  Zn108  1  0.20184793  0.18849568  0.56551688  1
  Zn  Zn109  1  0.18505197  0.68302756  0.19188647  1
  Zn  Zn110  1  0.19039277  0.68802624  0.68659254  1
  Zn  Zn111  1  0.68620742  0.18751715  0.18651683  1
  Zn  Zn112  1  0.69015595  0.18184179  0.69039011  1
  Zn  Zn113  1  0.68389347  0.68870747  0.18834867  1
  Zn  Zn114  1  0.68601856  0.68470750  0.69084510  1
  Zn  Zn115  1  0.31022119  0.31083282  0.31419566  1
  Zn  Zn116  1  0.31192838  0.30935142  0.80894823  1
  Zn  Zn117  1  0.31315988  0.80888962  0.31163903  1
  Zn  Zn118  1  0.31171972  0.81350510  0.81643275  1
  Zn  Zn119  1  0.80838837  0.31160186  0.31390652  1
  Zn  Zn120  1  0.81394103  0.31223780  0.81727702  1
  Zn  Zn121  1  0.81436605  0.81389992  0.31449430  1
  Zn  Zn122  1  0.81324697  0.81252773  0.81083667  1
  Zn  Zn123  1  0.18607185  0.44071702  0.43749833  1
  Zn  Zn124  1  0.18896831  0.43227991  0.94115362  1
  Zn  Zn125  1  0.18419823  0.94015641  0.43256067  1
  Zn  Zn126  1  0.18986974  0.93390251  0.93691577  1
  Zn  Zn127  1  0.68032220  0.43680891  0.43836406  1
  Zn  Zn128  1  0.69103415  0.44219140  0.94789228  1
  Zn  Zn129  1  0.68793084  0.93841022  0.43649636  1
  Zn  Zn130  1  0.68943663  0.93555946  0.93841331  1
  Zn  Zn131  1  0.31229640  0.06234444  0.06060657  1
  Zn  Zn132  1  0.32195060  0.05795500  0.56414635  1
  Zn  Zn133  1  0.31969500  0.55494955  0.06670119  1
  Zn  Zn134  1  0.30964553  0.56515315  0.56768040  1
  Zn  Zn135  1  0.81583497  0.05816432  0.06188448  1
  Zn  Zn136  1  0.81492818  0.05776180  0.56277799  1
  Zn  Zn137  1  0.80943448  0.56028296  0.06502663  1
  Zn  Zn138  1  0.81040127  0.56368287  0.56576956  1
  Zn  Zn139  1  0.42977486  0.42952401  0.18687871  1
  Zn  Zn140  1  0.43462601  0.44238083  0.68356915  1
  Zn  Zn141  1  0.43736698  0.93764759  0.18894958  1
  Zn  Zn142  1  0.44323944  0.93759952  0.68492934  1
  Zn  Zn143  1  0.93009601  0.43617250  0.18846116  1
  Zn  Zn144  1  0.93749960  0.43405643  0.68697136  1
  Zn  Zn145  1  0.93367411  0.94276032  0.18465736  1
  Zn  Zn146  1  0.94077083  0.93085110  0.68352406  1
  Zn  Zn147  1  0.05730646  0.06266755  0.31261485  1
  Zn  Zn148  1  0.07235928  0.06437198  0.80981931  1
  Zn  Zn149  1  0.06044212  0.56034242  0.31647007  1
  Zn  Zn150  1  0.06416851  0.56150521  0.81422164  1
  Zn  Zn151  1  0.56657850  0.06568750  0.31441047  1
  Zn  Zn152  1  0.56404973  0.05988637  0.80980802  1
  Zn  Zn153  1  0.55985379  0.56230923  0.31284143  1
  Zn  Zn154  1  0.55945557  0.58564042  0.81853828  1
  Zn  Zn155  1  0.43435631  0.18730333  0.43186273  1
  Zn  Zn156  1  0.43836759  0.18940679  0.93704880  1
  Zn  Zn157  1  0.43873201  0.68637243  0.43120464  1
  Zn  Zn158  1  0.43745613  0.68980148  0.93679218  1
  Zn  Zn159  1  0.92528763  0.18812771  0.42851641  1
  Zn  Zn160  1  0.94202102  0.18389810  0.93770611  1
  Zn  Zn161  1  0.93872205  0.69082369  0.43864166  1
  Zn  Zn162  1  0.93757364  0.68964776  0.94035129  1
  Zn  Zn163  1  0.06055269  0.30588975  0.06447463  1
  Zn  Zn164  1  0.08180911  0.33628900  0.53541935  1
  Zn  Zn165  1  0.06367156  0.81089114  0.06183934  1
  Zn  Zn166  1  0.06056784  0.81307594  0.56321261  1
  Zn  Zn167  1  0.56392465  0.31335106  0.05915920  1
  Zn  Zn168  1  0.55971540  0.31472623  0.56482308  1
  Zn  Zn169  1  0.56709523  0.81390999  0.05925025  1
  Zn  Zn170  1  0.56712632  0.81610112  0.55819052  1
  O  O171  1  0.12633126  0.12916011  0.11008321  1
  O  O172  1  0.13136512  0.10990821  0.62349766  1
  O  O173  1  0.11866922  0.61331708  0.12152981  1
  O  O174  1  0.12079693  0.62153399  0.62066954  1
  O  O175  1  0.62041961  0.11646523  0.11832719  1
  O  O176  1  0.62112456  0.11123773  0.63046635  1
  O  O177  1  0.62456050  0.62817573  0.11074026  1
  O  O178  1  0.61849713  0.62008394  0.62082125  1
  O  O179  1  0.38786057  0.36869413  0.37657294  1
  O  O180  1  0.37377169  0.36386732  0.88662691  1
  O  O181  1  0.38399735  0.88052746  0.38136502  1
  O  O182  1  0.38359686  0.88119948  0.88131449  1
  O  O183  1  0.86778050  0.38407910  0.38449194  1
  O  O184  1  0.88071679  0.38440376  0.88414594  1
  O  O185  1  0.88599370  0.86633420  0.38974816  1
  O  O186  1  0.89457846  0.86792483  0.87322063  1
  O  O187  1  0.25595406  0.00798938  0.36636870  1
  O  O188  1  0.26420261  -0.01179864  0.86335655  1
  O  O189  1  0.23759706  0.49918507  0.35740422  1
  O  O190  1  0.24137208  0.50900685  0.86764518  1
  O  O191  1  0.73900197  0.00896437  0.36368914  1
  O  O192  1  0.74360731  0.00720653  0.86474974  1
  O  O193  1  0.75438786  0.51016571  0.37343888  1
  O  O194  1  0.76214610  0.49144196  0.86811924  1
  O  O195  1  0.24150393  0.49032414  0.13327337  1
  O  O196  1  0.24580772  0.49506717  0.63766833  1
  O  O197  1  0.25519788  0.99978853  0.13987420  1
  O  O198  1  0.24735823  0.99219495  0.62917913  1
  O  O199  1  0.74568964  0.48743694  0.12575655  1
  O  O200  1  0.74431022  0.49293149  0.63476085  1
  O  O201  1  0.74334593  0.99332916  0.13338295  1
  O  O202  1  0.74030334  1.00347170  0.63443599  1
  O  O203  1  -0.00851048  0.36007288  0.24980246  1
  O  O204  1  0.00562582  0.36801366  0.75582026  1
  O  O205  1  0.00229323  0.86999038  0.25616859  1
  O  O206  1  0.00554926  0.86636855  0.76035599  1
  O  O207  1  0.49611525  0.36779925  0.26036961  1
  O  O208  1  0.50508209  0.36896140  0.74891108  1
  O  O209  1  0.49579703  0.86901392  0.26261127  1
  O  O210  1  0.51091060  0.88012748  0.76016595  1
  O  O211  1  0.49398354  0.13215223  0.24662029  1
  O  O212  1  0.49114869  0.13061744  0.74723462  1
  O  O213  1  0.50326903  0.64386375  0.25524752  1
  O  O214  1  0.48893293  0.61815872  0.73873565  1
  O  O215  1  0.98281714  0.13195713  0.25561338  1
  O  O216  1  0.99959488  0.13781405  0.75639190  1
  O  O217  1  0.99563290  0.63218615  0.24781260  1
  O  O218  1  0.99441082  0.62871040  0.74682210  1
  O  O219  1  0.36581162  0.25037133  0.00364056  1
  O  O220  1  0.38486426  0.24782442  0.51663351  1
  O  O221  1  0.36594438  0.75955152  -0.00695807  1
  O  O222  1  0.37853606  0.76453948  0.50110555  1
  O  O223  1  0.87497522  0.26276809  -0.00693225  1
  O  O224  1  0.86501460  0.25703310  0.51037921  1
  O  O225  1  0.86686275  0.75566920  0.00181253  1
  O  O226  1  0.88064543  0.76005881  0.50932358  1
  O  O227  1  0.11145304  0.23013157  0.51053461  1
  O  O228  1  0.13092207  0.24316549  0.99246565  1
  O  O229  1  0.12520372  0.73951027  0.50025764  1
  O  O230  1  0.13440045  0.74200379  0.99376175  1
  O  O231  1  0.63894908  0.25058469  0.50906114  1
  O  O232  1  0.62342205  0.24164105  0.98699712  1
  O  O233  1  0.61832462  0.73736272  0.48968461  1
  O  O234  1  0.63253225  0.74410812  0.99355632  1
  O  O235  1  0.49528825  0.24425510  0.13164669  1
  O  O236  1  0.49244452  0.25124582  0.63598377  1
  O  O237  1  0.51059605  0.76183206  0.14216810  1
  O  O238  1  0.50244360  0.73731384  0.61992357  1
  O  O239  1  1.00371994  0.24150012  0.14169211  1
  O  O240  1  0.98935207  0.25166032  0.63532218  1
  O  O241  1  0.99978955  0.74343305  0.13452994  1
  O  O242  1  0.99522342  0.74376404  0.63373392  1
  O  O243  1  -0.00467518  0.25219395  0.36374684  1
  O  O244  1  0.00720047  0.25583988  0.86932372  1
  O  O245  1  0.00251217  0.75720968  0.36468106  1
  O  O246  1  0.01183891  0.75157491  0.87191725  1
  O  O247  1  0.49989157  0.25865460  0.36896303  1
  O  O248  1  0.51145751  0.24467751  0.86478307  1
  O  O249  1  0.50746739  0.75967960  0.36815573  1
  O  O250  1  0.51172141  0.76201870  0.87942319  1
  O  O251  1  0.25690879  0.11871990  0.48817600  1
  O  O252  1  0.24140641  0.13633003  1.00389463  1
  O  O253  1  0.23901379  0.62565962  0.50166287  1
  O  O254  1  0.25059882  0.62745386  0.99700177  1
  O  O255  1  0.75955919  0.13255821  0.49247159  1
  O  O256  1  0.74433673  0.12453054  0.99211683  1
  O  O257  1  0.73862256  0.61952442  0.49216476  1
  O  O258  1  0.74554667  0.63944300  1.00562323  1
  O  O259  1  0.25490706  0.36164849  0.00804657  1
  O  O260  1  0.25390857  0.38699403  0.51657022  1
  O  O261  1  0.25737689  0.86539679  0.00250439  1
  O  O262  1  0.26081710  0.88013689  0.50581799  1
  O  O263  1  0.75722172  0.37187667  0.00889061  1
  O  O264  1  0.75564810  0.36827267  0.51010297  1
  O  O265  1  0.74786364  0.86552300  0.01064370  1
  O  O266  1  0.76638107  0.87704030  0.49382948  1
  O  O267  1  0.12810132  0.50106912  0.23896957  1
  O  O268  1  0.13401795  0.49451057  0.74716309  1
  O  O269  1  0.13311685  0.99176971  0.25700176  1
  O  O270  1  0.13746806  0.99749718  0.74158095  1
  O  O271  1  0.62120405  0.49997959  0.24068232  1
  O  O272  1  0.62908470  0.49327821  0.75238554  1
  O  O273  1  0.63406306  1.00774999  0.23812962  1
  O  O274  1  0.63219752  0.99169119  0.74256604  1
  O  O275  1  0.36783731  0.00458274  0.25520543  1
  O  O276  1  0.37425254  0.00412735  0.75440167  1
  O  O277  1  0.35760886  0.49263955  0.25393051  1
  O  O278  1  0.36315435  0.51058476  0.74640323  1
  O  O279  1  0.86098171  0.01237106  0.24871640  1
  O  O280  1  0.86310678  -0.00446355  0.73930939  1
  O  O281  1  0.87046795  0.50646515  0.26147562  1
  O  O282  1  0.87039362  0.50266040  0.75841542  1
  O  O283  1  0.10967696  0.36225552  0.41577419  1
  O  O284  1  0.11952207  0.36711238  0.87177298  1
  O  O285  1  0.11444214  0.87219163  0.36451422  1
  O  O286  1  0.12124535  0.86233269  0.87323737  1
  O  O287  1  0.61293413  0.36976129  0.37333555  1
  O  O288  1  0.62873377  0.36683064  0.87506840  1
  O  O289  1  0.61626188  0.86490879  0.38389648  1
  O  O290  1  0.61812971  0.87018305  0.86866470  1
  O  O291  1  0.38168365  0.12885143  0.12869085  1
  O  O292  1  0.37837699  0.13687237  0.63229413  1
  O  O293  1  0.41259535  0.58435581  0.13296420  1
  O  O294  1  0.38199763  0.63037555  0.63260531  1
  O  O295  1  0.86832908  0.12785890  0.14035644  1
  O  O296  1  0.86868503  0.13937451  0.63095520  1
  O  O297  1  0.88158132  0.62436911  0.13291940  1
  O  O298  1  0.88058256  0.63038504  0.63046888  1
  O  O299  1  0.25273715  0.25434834  0.11978137  1
  O  O300  1  0.26689173  0.25868108  0.62654725  1
  O  O301  1  0.24605346  0.74618684  0.11313671  1
  O  O302  1  0.25330848  0.76326381  0.62173094  1
  O  O303  1  0.73816121  0.26708722  0.12089642  1
  O  O304  1  0.75466363  0.25629173  0.62498464  1
  O  O305  1  0.74899877  0.75902919  0.12086157  1
  O  O306  1  0.76177841  0.74321515  0.62789161  1
  O  O307  1  0.24801579  0.23302224  0.37177682  1
  O  O308  1  0.23910499  0.25486740  0.88318563  1
  O  O309  1  0.24699324  0.74450595  0.37823127  1
  O  O310  1  0.24314005  0.74046219  0.88367349  1
  O  O311  1  0.74756519  0.24564488  0.38814553  1
  O  O312  1  0.73963654  0.24003253  0.87242302  1
  O  O313  1  0.74280494  0.73985105  0.37141650  1
  O  O314  1  0.74167380  0.76052615  0.88674218  1
  O  O315  1  0.01515759  0.12395869  0.00173530  1
  O  O316  1  -0.01887457  0.10732732  0.49450663  1
  O  O317  1  0.00628627  0.61871608  0.00668994  1
  O  O318  1  0.00733051  0.62434808  0.50731140  1
  O  O319  1  0.50460991  0.11824059  0.00510752  1
  O  O320  1  0.49539169  0.11015577  0.49623234  1
  O  O321  1  0.51285980  0.63147500  -0.00339002  1
  O  O322  1  0.50733614  0.61839086  0.50694294  1
  O  O323  1  0.50327951  0.38287245  0.48992140  1
  O  O324  1  0.48141518  0.37081451  1.00643113  1
  O  O325  1  0.49467898  0.88314355  0.49103990  1
  O  O326  1  0.49404450  0.87924701  0.99159893  1
  O  O327  1  0.97726852  0.38064878  0.50813738  1
  O  O328  1  0.99305448  0.37835126  0.99884100  1
  O  O329  1  0.99643035  0.88095391  0.49240063  1
  O  O330  1  1.00641229  0.87537958  0.98482931  1
  O  O331  1  0.50087588  0.48747206  0.38233770  1
  O  O332  1  0.51473936  0.48618224  0.86247235  1
  O  O333  1  0.49954300  0.99391933  0.37866598  1
  O  O334  1  0.49384287  0.99063528  0.87961693  1
  O  O335  1  0.98380856  0.49645886  0.37751982  1
  O  O336  1  0.99425956  0.49386889  0.88165399  1
  O  O337  1  1.00219721  0.98824279  0.38366688  1
  O  O338  1  1.01048003  0.98441353  0.86931642  1
  O  O339  1  0.00413916  0.00650700  0.12790265  1
  O  O340  1  0.01222503  -0.00589938  0.61752010  1
  O  O341  1  0.00515097  0.50164253  0.12286739  1
  O  O342  1  0.00587731  0.50714675  0.62730446  1
  O  O343  1  0.50761433  0.00372514  0.12196883  1
  O  O344  1  0.50826565  0.00217208  0.61534668  1
  O  O345  1  0.47049237  0.52098133  0.12994767  1
  O  O346  1  0.50574689  0.50769192  0.61852789  1
  O  O347  1  0.25137740  0.38043523  0.23903887  1
  O  O348  1  0.24619710  0.38234768  0.74496451  1
  O  O349  1  0.24174778  0.88222667  0.25014318  1
  O  O350  1  0.25443867  0.88383311  0.73951788  1
  O  O351  1  0.74626132  0.37505259  0.23722771  1
  O  O352  1  0.75602468  0.38526274  0.74220549  1
  O  O353  1  0.75547272  0.88447632  0.24397496  1
  O  O354  1  0.73926309  0.88409301  0.75725449  1
  O  O355  1  0.25397343  0.11823783  0.25806665  1
  O  O356  1  0.26665445  0.10914942  0.74645483  1
  O  O357  1  0.25565684  0.60801797  0.24342811  1
  O  O358  1  0.25593427  0.61764919  0.75803258  1
  O  O359  1  0.75548225  0.12262541  0.25398244  1
  O  O360  1  0.75366976  0.11293941  0.75883549  1
  O  O361  1  0.75495984  0.62621856  0.26084909  1
  O  O362  1  0.75546576  0.60703958  0.74616941  1
  O  O363  1  0.36577961  0.11940505  0.36817132  1
  O  O364  1  0.38295400  0.11111056  0.86728523  1
  O  O365  1  0.37624957  0.62016336  0.36921735  1
  O  O366  1  0.36473525  0.62834029  0.86905799  1
  O  O367  1  0.85525267  0.12720715  0.36040480  1
  O  O368  1  0.86291586  0.13086436  0.87243022  1
  O  O369  1  0.86700842  0.61981254  0.37442160  1
  O  O370  1  0.88221727  0.61156725  0.87105948  1
  O  O371  1  0.13380978  0.38149716  0.11736957  1
  O  O372  1  0.13564866  0.38177713  0.62911776  1
  O  O373  1  0.12641886  0.87031152  0.13874299  1
  O  O374  1  0.13649614  0.88251849  0.62545153  1
  O  O375  1  0.63144933  0.38567435  0.11962729  1
  O  O376  1  0.63696267  0.38226725  0.62121523  1
  O  O377  1  0.63549477  0.88710802  0.12103860  1
  O  O378  1  0.61902569  0.88208530  0.63652864  1
  O  O379  1  0.10910675  0.24242976  0.25981960  1
  O  O380  1  0.11480225  0.25703725  0.75941120  1
  O  O381  1  0.11436670  0.75627699  0.25067611  1
  O  O382  1  0.12291983  0.74819168  0.76077408  1
  O  O383  1  0.60845627  0.25284430  0.24687399  1
  O  O384  1  0.61546859  0.24300872  0.75816499  1
  O  O385  1  0.61711775  0.74873361  0.26389061  1
  O  O386  1  0.63467429  0.75884913  0.76097515  1
  O  O387  1  0.38300920  0.24525212  0.24341500  1
  O  O388  1  0.38477495  0.24093039  0.74848140  1
  O  O389  1  0.38878925  0.75033701  0.24629613  1
  O  O390  1  0.36898875  0.73655812  0.75087369  1
  O  O391  1  0.87774315  0.24093002  0.25187974  1
  O  O392  1  0.88486049  0.25399672  0.74515243  1
  O  O393  1  0.88576077  0.74442442  0.24982731  1
  O  O394  1  0.87912090  0.74315169  0.74368970  1
  O  O395  1  0.38819396  0.50376446  0.51042775  1
  O  O396  1  0.36162654  0.48058470  0.99295470  1
  O  O397  1  0.38672770  0.98988646  0.49474051  1
  O  O398  1  0.37853877  0.99309388  0.99136715  1
  O  O399  1  0.86923932  0.49406683  0.49283249  1
  O  O400  1  0.87997920  0.49339396  0.99406828  1
  O  O401  1  0.88511526  0.98045366  0.51232073  1
  O  O402  1  0.88006937  0.99610931  0.99609692  1
  O  O403  1  0.13174656  0.01535565  -0.00766191  1
  O  O404  1  0.11365503  -0.00552307  0.50699164  1
  O  O405  1  0.12044107  0.50242344  0.00968393  1
  O  O406  1  0.12127447  0.51083661  0.51009639  1
  O  O407  1  0.62007747  0.00380246  0.00848280  1
  O  O408  1  0.61788655  -0.00921650  0.51077238  1
  O  O409  1  0.62714147  0.51949243  -0.00023432  1
  O  O410  1  0.61653375  0.51169473  0.50514206  1
  O  O411  1  0.36182334  0.36632317  0.11558755  1
  O  O412  1  0.37059132  0.36169011  0.63449333  1
  O  O413  1  0.37444887  0.88092962  0.10987495  1
  O  O414  1  0.37066648  0.87656171  0.61679993  1
  O  O415  1  0.85999972  0.38022782  0.11556057  1
  O  O416  1  0.86221217  0.36843627  0.62115621  1
  O  O417  1  0.86133595  0.87300988  0.12378061  1
  O  O418  1  0.88017305  0.86181813  0.61349292  1
  O  O419  1  0.13946665  0.12145022  0.37402789  1
  O  O420  1  0.12333032  0.13693455  0.88498842  1
  O  O421  1  0.12527044  0.62371934  0.38767222  1
  O  O422  1  0.13476074  0.63063100  0.88188877  1
  O  O423  1  0.63875427  0.13450236  0.36958220  1
  O  O424  1  0.63267140  0.12837959  0.87849892  1
  O  O425  1  0.63117974  0.63145428  0.38250366  1
  O  O426  1  0.62734227  0.64070147  0.88589920  1
