# generated using pymatgen
data_V85Zn86O256
_symmetry_space_group_name_H-M   'P 1'
_cell_length_a   16.95306883
_cell_length_b   16.95170073
_cell_length_c   16.95681817
_cell_angle_alpha   90.02343934
_cell_angle_beta   89.97922086
_cell_angle_gamma   90.04328724
_symmetry_Int_Tables_number   1
_chemical_formula_structural   V85Zn86O256
_chemical_formula_sum   'V85 Zn86 O256'
_cell_volume   4873.10508096
_cell_formula_units_Z   1
loop_
 _symmetry_equiv_pos_site_id
 _symmetry_equiv_pos_as_xyz
  1  'x, y, z'
loop_
 _atom_site_type_symbol
 _atom_site_label
 _atom_site_symmetry_multiplicity
 _atom_site_fract_x
 _atom_site_fract_y
 _atom_site_fract_z
 _atom_site_occupancy
  V  V0  1  0.00332620  0.25233997  0.25433528  1
  V  V1  1  0.87289630  0.87528841  0.00013745  1
  V  V2  1  0.50572848  0.00094222  0.00289010  1
  V  V3  1  0.00910379  0.00142035  0.50403653  1
  V  V4  1  0.36788252  0.37027794  -0.00251937  1
  V  V5  1  0.37541172  0.87480771  -0.00226211  1
  V  V6  1  0.24808312  0.87964931  0.62743324  1
  V  V7  1  0.87284960  0.37242169  0.01051875  1
  V  V8  1  0.36994496  0.36971201  0.49705822  1
  V  V9  1  -0.00191845  0.87245767  0.37307266  1
  V  V10  1  0.24510687  0.12599871  0.39012250  1
  V  V11  1  -0.00238848  0.12330063  0.12997267  1
  V  V12  1  0.75025736  0.24885889  0.00781964  1
  V  V13  1  -0.00388297  0.62460528  0.12454923  1
  V  V14  1  0.12563971  0.37616961  0.75247794  1
  V  V15  1  0.24505139  -0.00315345  0.25105041  1
  V  V16  1  0.49863535  0.74332645  0.24654450  1
  V  V17  1  0.50566411  0.87445744  0.87245657  1
  V  V18  1  0.63136364  0.88024654  0.74384643  1
  V  V19  1  0.74458400  0.87958209  0.12557620  1
  V  V20  1  0.62313326  0.88091264  0.24806490  1
  V  V21  1  0.61260272  0.13427252  0.50427661  1
  V  V22  1  0.25132648  0.62600632  0.87265613  1
  V  V23  1  0.37004938  0.49673938  0.36759982  1
  V  V24  1  0.50060383  0.87842630  0.37511581  1
  V  V25  1  0.87763075  0.36917037  0.50109110  1
  V  V26  1  0.13287911  0.49917658  0.13153147  1
  V  V27  1  0.87676628  0.24680778  0.13299427  1
  V  V28  1  0.87148470  0.87372825  0.50122747  1
  V  V29  1  0.74156718  0.62097568  0.37590236  1
  V  V30  1  0.25231614  0.50176308  0.74807155  1
  V  V31  1  0.11912485  0.62395151  0.50148243  1
  V  V32  1  -0.00119206  0.00233607  -0.00067865  1
  V  V33  1  0.12400961  0.62551664  -0.00098456  1
  V  V34  1  0.12220166  0.50320736  0.62422382  1
  V  V35  1  0.50670443  0.75078310  0.75149871  1
  V  V36  1  0.64039717  0.48844912  0.13505651  1
  V  V37  1  0.38633490  0.49840167  0.87328268  1
  V  V38  1  0.24858689  0.61802846  0.36521984  1
  V  V39  1  0.37655570  0.74609926  0.62365420  1
  V  V40  1  0.13055385  0.37633326  0.25342167  1
  V  V41  1  0.87062581  0.62227619  0.75126118  1
  V  V42  1  0.12572580  0.75210484  0.87255702  1
  V  V43  1  0.00005373  0.49884261  0.00105451  1
  V  V44  1  0.50563366  0.25583079  0.76079554  1
  V  V45  1  0.87407899  0.00420127  0.86792632  1
  V  V46  1  0.75338386  0.00401773  0.25183224  1
  V  V47  1  0.37769381  0.00041652  0.38004614  1
  V  V48  1  0.75691530  0.38733671  0.63642222  1
  V  V49  1  0.25136932  0.36650950  0.62193910  1
  V  V50  1  -0.00077814  0.37409635  0.87963258  1
  V  V51  1  0.61674327  0.00159215  0.61365998  1
  V  V52  1  0.00276773  0.74655256  0.74470080  1
  V  V53  1  0.75901896  0.24288969  0.51748946  1
  V  V54  1  0.49206239  0.25005689  0.24971835  1
  V  V55  1  0.12363531  0.74735379  0.37298733  1
  V  V56  1  0.12618008  0.24911645  0.38911861  1
  V  V57  1  0.74118442  0.74958120  0.50344848  1
  V  V58  1  0.87960427  0.74802508  0.62172926  1
  V  V59  1  0.24902198  0.87442763  0.12527588  1
  V  V60  1  0.37363666  0.12797388  0.74805193  1
  V  V61  1  0.37053742  0.12262524  0.24847596  1
  V  V62  1  0.74656817  0.12381684  0.87635262  1
  V  V63  1  0.74473576  0.75235757  -0.00940027  1
  V  V64  1  0.39212345  0.24967721  0.62099508  1
  V  V65  1  0.37820016  0.74264576  0.12467635  1
  V  V66  1  0.87495217  0.49596037  0.37270747  1
  V  V67  1  0.50628429  0.11930979  0.12684761  1
  V  V68  1  0.37967048  0.87727861  0.50027674  1
  V  V69  1  0.75676707  0.12273797  0.37857241  1
  V  V70  1  0.25070350  0.75039738  -0.00159041  1
  V  V71  1  -0.00427695  0.74752569  0.24846977  1
  V  V72  1  0.50192559  0.49330410  0.01182603  1
  V  V73  1  -0.00018390  0.87566756  0.87362709  1
  V  V74  1  -0.00018554  0.49483831  0.49574457  1
  V  V75  1  0.49980276  0.37051105  0.37380144  1
  V  V76  1  0.13778023  0.13023385  -0.00185473  1
  V  V77  1  0.13951618  0.25021231  0.87984698  1
  V  V78  1  0.86654493  0.61811984  0.24547122  1
  V  V79  1  0.37000047  0.00653686  0.87233264  1
  V  V80  1  0.64658639  0.26280112  0.34951894  1
  V  V81  1  0.24992680  0.74808345  0.49824614  1
  V  V82  1  0.61312972  0.63549454  0.00446501  1
  V  V83  1  -0.01049701  0.24844362  0.75142639  1
  V  V84  1  0.37974025  0.62541680  0.74614368  1
  Zn  Zn85  1  0.61768302  0.39353597  0.76234994  1
  Zn  Zn86  1  0.62588314  0.12423548  0.00460628  1
  Zn  Zn87  1  0.12145837  0.87330225  0.24666640  1
  Zn  Zn88  1  0.12406013  0.88233608  0.74733609  1
  Zn  Zn89  1  0.75077866  0.00146318  0.73884523  1
  Zn  Zn90  1  0.37418775  0.61654039  0.24276518  1
  Zn  Zn91  1  0.24549298  0.00958208  0.75371558  1
  Zn  Zn92  1  0.87892874  0.00386516  0.37345965  1
  Zn  Zn93  1  0.86087076  0.14483917  0.73127092  1
  Zn  Zn94  1  0.13268057  0.01949193  0.62309692  1
  Zn  Zn95  1  0.52301808  0.63478507  0.59923192  1
  Zn  Zn96  1  0.61791087  0.74321612  0.37729638  1
  Zn  Zn97  1  0.62230579  0.25910787  0.88424379  1
  Zn  Zn98  1  0.50679703  0.50857514  0.49841063  1
  Zn  Zn99  1  -0.00107853  0.13636030  0.61698853  1
  Zn  Zn100  1  0.86888762  0.74678592  0.12363740  1
  Zn  Zn101  1  0.12349210  -0.00026668  0.12284059  1
  Zn  Zn102  1  0.86666567  0.49608830  0.86517432  1
  Zn  Zn103  1  0.36644272  0.24200269  0.11090815  1
  Zn  Zn104  1  0.74102786  0.62007155  0.87218789  1
  Zn  Zn105  1  0.62413501  0.51111849  0.63065844  1
  Zn  Zn106  1  0.24866452  0.36533728  0.12473070  1
  Zn  Zn107  1  0.18662115  0.18823194  0.18760521  1
  Zn  Zn108  1  0.18173887  0.18812217  0.68988225  1
  Zn  Zn109  1  0.18508292  0.68838853  0.18485037  1
  Zn  Zn110  1  0.18995925  0.68938263  0.68580574  1
  Zn  Zn111  1  0.69119471  0.19523484  0.19366410  1
  Zn  Zn112  1  0.68243075  0.18431011  0.68590519  1
  Zn  Zn113  1  0.68198729  0.68594504  0.18279753  1
  Zn  Zn114  1  0.68919552  0.68768860  0.68711363  1
  Zn  Zn115  1  0.30486707  0.30885333  0.31186706  1
  Zn  Zn116  1  0.31857169  0.31631223  0.80848208  1
  Zn  Zn117  1  0.31233015  0.80951419  0.31148921  1
  Zn  Zn118  1  0.31611947  0.81626964  0.81054726  1
  Zn  Zn119  1  0.81572744  0.30631087  0.31826510  1
  Zn  Zn120  1  0.79314564  0.32403705  0.82836408  1
  Zn  Zn121  1  0.80933848  0.80798362  0.31309841  1
  Zn  Zn122  1  0.81384503  0.81202422  0.81081976  1
  Zn  Zn123  1  0.18704395  0.43407375  0.43544435  1
  Zn  Zn124  1  0.18958786  0.44042870  0.93591577  1
  Zn  Zn125  1  0.18909869  0.93451868  0.43648407  1
  Zn  Zn126  1  0.18563703  0.93931897  0.93772907  1
  Zn  Zn127  1  0.69118337  0.43746557  0.44700332  1
  Zn  Zn128  1  0.68822269  0.44030204  0.93745512  1
  Zn  Zn129  1  0.68546838  0.93875082  0.43848350  1
  Zn  Zn130  1  0.68712523  0.93845756  0.93436009  1
  Zn  Zn131  1  0.31561397  0.05798218  0.06276423  1
  Zn  Zn132  1  0.32042149  0.06534012  0.56790076  1
  Zn  Zn133  1  0.31269584  0.56055937  0.05844382  1
  Zn  Zn134  1  0.31333017  0.55775405  0.55518495  1
  Zn  Zn135  1  0.81302877  0.06156877  0.06413523  1
  Zn  Zn136  1  0.81280926  0.05766239  0.56612765  1
  Zn  Zn137  1  0.80013425  0.55515147  0.04420828  1
  Zn  Zn138  1  0.81345534  0.56683625  0.56157144  1
  Zn  Zn139  1  0.43763765  0.43323672  0.18477054  1
  Zn  Zn140  1  0.44484293  0.44072983  0.68241697  1
  Zn  Zn141  1  0.43489214  0.93548314  0.18734744  1
  Zn  Zn142  1  0.44063400  0.94232725  0.68647777  1
  Zn  Zn143  1  0.94321354  0.43595209  0.19025598  1
  Zn  Zn144  1  0.93829665  0.43529549  0.68600098  1
  Zn  Zn145  1  0.93263112  0.93727155  0.18629727  1
  Zn  Zn146  1  0.93565487  0.93476326  0.68459921  1
  Zn  Zn147  1  0.06274363  0.06524943  0.31749441  1
  Zn  Zn148  1  0.06606054  0.06581311  0.81216307  1
  Zn  Zn149  1  0.05788625  0.56131902  0.31183315  1
  Zn  Zn150  1  0.05951254  0.56434670  0.81156485  1
  Zn  Zn151  1  0.56766149  0.06926882  0.31650306  1
  Zn  Zn152  1  0.55980222  0.06685887  0.80854275  1
  Zn  Zn153  1  0.55948114  0.55528532  0.31083419  1
  Zn  Zn154  1  0.56645921  0.56739839  0.81451054  1
  Zn  Zn155  1  0.43181845  0.19173373  0.43490905  1
  Zn  Zn156  1  0.43832062  0.18506637  0.93425456  1
  Zn  Zn157  1  0.43494193  0.68630536  0.43171304  1
  Zn  Zn158  1  0.43982884  0.68684306  0.93440756  1
  Zn  Zn159  1  0.94060321  0.18634451  0.43635136  1
  Zn  Zn160  1  0.93900129  0.18612711  0.93867487  1
  Zn  Zn161  1  0.93408585  0.68334337  0.43453326  1
  Zn  Zn162  1  0.93530760  0.69054023  0.93579451  1
  Zn  Zn163  1  0.06598454  0.31034348  0.06686860  1
  Zn  Zn164  1  0.05970745  0.31582320  0.56798439  1
  Zn  Zn165  1  0.06077095  0.81282097  0.06255508  1
  Zn  Zn166  1  0.06266641  0.81458011  0.56113340  1
  Zn  Zn167  1  0.55841762  0.31061644  0.06868832  1
  Zn  Zn168  1  0.58118555  0.34081390  0.55461422  1
  Zn  Zn169  1  0.56018071  0.81751159  0.06574413  1
  Zn  Zn170  1  0.56248777  0.81627183  0.56573491  1
  O  O171  1  0.11646596  0.12349083  0.11362210  1
  O  O172  1  0.11176650  0.13063012  0.62538390  1
  O  O173  1  0.11794104  0.61914298  0.11899678  1
  O  O174  1  0.13562815  0.61484663  0.61272166  1
  O  O175  1  0.60870870  0.12837046  0.12791312  1
  O  O176  1  0.62099369  0.11947649  0.61101962  1
  O  O177  1  0.62816045  0.61105131  0.10971617  1
  O  O178  1  0.63454275  0.62495654  0.61582449  1
  O  O179  1  0.37544899  0.37662696  0.37854077  1
  O  O180  1  0.37054019  0.38869495  0.88453392  1
  O  O181  1  0.37936398  0.88121912  0.38072268  1
  O  O182  1  0.38619960  0.88302506  0.87762110  1
  O  O183  1  0.86168270  0.38674730  0.38574466  1
  O  O184  1  0.88476903  0.37798288  0.89051849  1
  O  O185  1  0.88580815  0.86933454  0.38156487  1
  O  O186  1  0.87921368  0.88293656  0.88038595  1
  O  O187  1  0.25702934  0.00340562  0.36893235  1
  O  O188  1  0.26603331  -0.00946025  0.87255596  1
  O  O189  1  0.25669049  0.50679630  0.37806818  1
  O  O190  1  0.25808591  0.50778006  0.86779876  1
  O  O191  1  0.75083302  0.00681052  0.37130829  1
  O  O192  1  0.75752950  0.00879738  0.87527524  1
  O  O193  1  0.75778897  0.51289682  0.38705611  1
  O  O194  1  0.76949883  0.51727560  0.91952784  1
  O  O195  1  0.23496594  0.50200044  0.12035871  1
  O  O196  1  0.24287000  0.49245976  0.62810169  1
  O  O197  1  0.25091489  0.99320377  0.13594216  1
  O  O198  1  0.25214104  0.99087239  0.62473189  1
  O  O199  1  0.74037978  0.49424628  0.12012371  1
  O  O200  1  0.75143421  0.48803161  0.61622321  1
  O  O201  1  0.75365633  0.98906773  0.13437548  1
  O  O202  1  0.72964051  1.00620188  0.62598881  1
  O  O203  1  0.01226349  0.36157129  0.24746127  1
  O  O204  1  0.00415897  0.37272354  0.76251925  1
  O  O205  1  -0.00256542  0.86883682  0.25797944  1
  O  O206  1  0.00030097  0.86417823  0.75505817  1
  O  O207  1  0.48945950  0.36060578  0.25889980  1
  O  O208  1  0.50084819  0.36152535  0.74740442  1
  O  O209  1  0.50468582  0.87027369  0.25575047  1
  O  O210  1  0.50560626  0.86993223  0.75440753  1
  O  O211  1  0.48520790  0.12136534  0.24638182  1
  O  O212  1  0.48697104  0.14108287  0.75291072  1
  O  O213  1  0.49677666  0.64041135  0.25923195  1
  O  O214  1  0.49463556  0.64069471  0.75557950  1
  O  O215  1  1.00950778  0.13320451  0.23825769  1
  O  O216  1  0.99694826  0.14519999  0.76139614  1
  O  O217  1  0.98815448  0.62787929  0.24485297  1
  O  O218  1  0.99186588  0.63971196  0.75302432  1
  O  O219  1  0.38141927  0.26770898  -0.00831066  1
  O  O220  1  0.37366560  0.25839470  0.50762091  1
  O  O221  1  0.37142727  0.75403948  0.00491516  1
  O  O222  1  0.37011132  0.75764145  0.50532496  1
  O  O223  1  0.87391384  0.25472810  0.01145440  1
  O  O224  1  0.87420890  0.25959965  0.49481183  1
  O  O225  1  0.86421717  0.75710456  0.00081924  1
  O  O226  1  0.87325442  0.75383983  0.50458822  1
  O  O227  1  0.11496723  0.25520469  0.48743900  1
  O  O228  1  0.12229065  0.23859709  0.99552898  1
  O  O229  1  0.12799954  0.74085864  0.49461088  1
  O  O230  1  0.12986749  0.74466145  0.99353524  1
  O  O231  1  0.63778121  0.24101111  0.50805783  1
  O  O232  1  0.63622711  0.24991763  1.00389789  1
  O  O233  1  0.63850328  0.75817904  0.49845810  1
  O  O234  1  0.62462846  0.74149886  1.00729603  1
  O  O235  1  0.48734462  0.23897851  0.13186538  1
  O  O236  1  0.49288948  0.26126412  0.62825781  1
  O  O237  1  0.48840546  0.75778783  0.13382641  1
  O  O238  1  0.49066226  0.75065938  0.63079338  1
  O  O239  1  0.99575017  0.24181941  0.13273413  1
  O  O240  1  0.99971183  0.25949395  0.64805686  1
  O  O241  1  0.99569123  0.74214767  0.12903736  1
  O  O242  1  0.99319277  0.75475861  0.63222595  1
  O  O243  1  0.01387285  0.23892077  0.36460633  1
  O  O244  1  0.00796861  0.26201175  0.87420391  1
  O  O245  1  0.00314040  0.75385997  0.36990319  1
  O  O246  1  0.00581702  0.75622882  0.86747447  1
  O  O247  1  0.50013887  0.25683965  0.36634675  1
  O  O248  1  0.50320512  0.25357362  0.86575969  1
  O  O249  1  0.49650273  0.76358624  0.36455044  1
  O  O250  1  0.49321476  0.76332816  0.86401029  1
  O  O251  1  0.25434020  0.11680420  0.48847399  1
  O  O252  1  0.23625460  0.11958231  1.00550191  1
  O  O253  1  0.24019804  0.62798538  0.48900098  1
  O  O254  1  0.24423654  0.63073222  0.99241052  1
  O  O255  1  0.74455784  0.12773020  0.49575499  1
  O  O256  1  0.74722594  0.12902062  0.99667509  1
  O  O257  1  0.75849213  0.63897476  0.48632687  1
  O  O258  1  0.73887421  0.64448348  1.00589456  1
  O  O259  1  0.26437753  0.38338552  0.00093278  1
  O  O260  1  0.25897380  0.37958642  0.50936348  1
  O  O261  1  0.25552286  0.86969231  0.00400656  1
  O  O262  1  0.26076871  0.86903621  0.50431379  1
  O  O263  1  0.76538800  0.36153293  -0.00038376  1
  O  O264  1  0.75976294  0.36164857  0.51343977  1
  O  O265  1  0.74938371  0.87231282  0.00652896  1
  O  O266  1  0.76072114  0.85936548  0.48510939  1
  O  O267  1  0.11439053  0.48998168  0.24247223  1
  O  O268  1  0.12896601  0.49804239  0.74283163  1
  O  O269  1  0.13631101  0.99875251  0.25100258  1
  O  O270  1  0.12864308  0.99956869  0.74464918  1
  O  O271  1  0.62312432  0.50481020  0.23335291  1
  O  O272  1  0.62544580  0.50386991  0.74642285  1
  O  O273  1  0.63308404  0.98824913  0.25938600  1
  O  O274  1  0.62282541  0.99630054  0.73907012  1
  O  O275  1  0.36493801  0.00344215  0.25930977  1
  O  O276  1  0.37750739  0.01036123  0.75516915  1
  O  O277  1  0.38058449  0.49902616  0.26213966  1
  O  O278  1  0.37299417  0.50466859  0.75597935  1
  O  O279  1  0.85908292  -0.00706081  0.25617803  1
  O  O280  1  0.87196763  -0.00537619  0.76154639  1
  O  O281  1  0.88018424  0.50551259  0.25945902  1
  O  O282  1  0.88609117  0.51866874  0.74791183  1
  O  O283  1  0.13036076  0.35918049  0.36866079  1
  O  O284  1  0.11804449  0.37144437  0.87423207  1
  O  O285  1  0.11423976  0.86624419  0.37393541  1
  O  O286  1  0.11845503  0.86903780  0.87342367  1
  O  O287  1  0.61595627  0.36094757  0.38261822  1
  O  O288  1  0.67143946  0.36080543  0.85771186  1
  O  O289  1  0.61379712  0.87338417  0.36942645  1
  O  O290  1  0.61137374  0.88469749  0.86356008  1
  O  O291  1  0.38053487  0.12157510  0.13586486  1
  O  O292  1  0.37673212  0.13988627  0.63088381  1
  O  O293  1  0.36734550  0.63783437  0.12517307  1
  O  O294  1  0.36718593  0.63800850  0.62636630  1
  O  O295  1  0.88700134  0.13367076  0.12138264  1
  O  O296  1  0.88852942  0.11326903  0.62861403  1
  O  O297  1  0.87638384  0.62069402  0.13272895  1
  O  O298  1  0.87211074  0.63714314  0.63594910  1
  O  O299  1  0.25636877  0.25082552  0.12829341  1
  O  O300  1  0.25572515  0.26511134  0.63442519  1
  O  O301  1  0.25637908  0.75494701  0.11844504  1
  O  O302  1  0.25884992  0.75847346  0.61894460  1
  O  O303  1  0.76419145  0.23768736  0.11643519  1
  O  O304  1  0.75923216  0.24694056  0.62092481  1
  O  O305  1  0.74780263  0.76443917  0.11821419  1
  O  O306  1  0.76057540  0.74847065  0.60751305  1
  O  O307  1  0.23632358  0.23966845  0.37489528  1
  O  O308  1  0.23814164  0.25886335  0.86946686  1
  O  O309  1  0.24466323  0.74193959  0.37946221  1
  O  O310  1  0.24758345  0.74662242  0.87848329  1
  O  O311  1  0.75069504  0.24049419  0.39820436  1
  O  O312  1  0.76039116  0.23448905  0.89390026  1
  O  O313  1  0.74689754  0.73793606  0.38297958  1
  O  O314  1  0.74905511  0.75254670  0.88756107  1
  O  O315  1  0.00569192  0.12038146  0.01004182  1
  O  O316  1  -0.00566087  0.10324055  0.49499247  1
  O  O317  1  0.00312937  0.61782445  0.00266620  1
  O  O318  1  0.01166203  0.61526303  0.49500840  1
  O  O319  1  0.49797157  0.11801715  0.00928356  1
  O  O320  1  0.51484175  0.13372612  0.48941754  1
  O  O321  1  0.50778784  0.61918942  0.00034917  1
  O  O322  1  0.50663396  0.62406031  0.48649057  1
  O  O323  1  0.48429154  0.36664475  0.48531190  1
  O  O324  1  0.49103060  0.38882964  1.00093988  1
  O  O325  1  0.48889128  0.86835234  0.48922417  1
  O  O326  1  0.49585547  0.88109745  0.99232351  1
  O  O327  1  0.99294384  0.38556729  0.50132161  1
  O  O328  1  0.99749983  0.37919821  0.99650653  1
  O  O329  1  0.99295774  0.87826053  0.48978868  1
  O  O330  1  0.99416429  0.88101552  0.99434587  1
  O  O331  1  0.49237376  0.48419361  0.37383583  1
  O  O332  1  0.48982861  0.50665477  0.88524865  1
  O  O333  1  0.48828709  0.99106391  0.36620883  1
  O  O334  1  0.49094938  0.99463925  0.88122022  1
  O  O335  1  0.98832924  0.50240685  0.38451965  1
  O  O336  1  1.00044232  0.49118734  0.88506192  1
  O  O337  1  0.99941323  0.98923928  0.38119079  1
  O  O338  1  0.99207278  0.99650148  0.87845111  1
  O  O339  1  -0.00105298  0.00686534  0.12047295  1
  O  O340  1  0.00426436  -0.01261419  0.60770197  1
  O  O341  1  0.01086448  0.50489236  0.11851052  1
  O  O342  1  0.01558604  0.49483786  0.61581657  1
  O  O343  1  0.49038771  0.00599379  0.11469638  1
  O  O344  1  0.51466554  0.00108824  0.62306025  1
  O  O345  1  0.49838736  0.50358450  0.11333406  1
  O  O346  1  0.49671705  0.51670387  0.61925732  1
  O  O347  1  0.23577237  0.37432633  0.24778473  1
  O  O348  1  0.24625891  0.38385879  0.74225490  1
  O  O349  1  0.24872192  0.88211186  0.24674155  1
  O  O350  1  0.25160661  0.87716741  0.73763099  1
  O  O351  1  0.71319035  0.29336194  0.27037837  1
  O  O352  1  0.78568560  0.38390727  0.73304768  1
  O  O353  1  0.74158438  0.87910675  0.24596096  1
  O  O354  1  0.73455271  0.87680327  0.75741325  1
  O  O355  1  0.25617083  0.11446098  0.25773498  1
  O  O356  1  0.26695095  0.12883784  0.74528329  1
  O  O357  1  0.24935562  0.62972223  0.26179167  1
  O  O358  1  0.25820625  0.62147235  0.75319905  1
  O  O359  1  0.73934781  0.11327715  0.26302471  1
  O  O360  1  0.75053357  0.12655437  0.76250167  1
  O  O361  1  0.75737243  0.63172922  0.26208067  1
  O  O362  1  0.76605887  0.63603074  0.75615067  1
  O  O363  1  0.36772742  0.11692185  0.36932580  1
  O  O364  1  0.37835811  0.11533115  0.86692870  1
  O  O365  1  0.36373506  0.61459082  0.37234537  1
  O  O366  1  0.37057479  0.61852853  0.86810375  1
  O  O367  1  0.86114171  0.12429182  0.37866830  1
  O  O368  1  0.86771663  0.11458108  0.87759197  1
  O  O369  1  0.86691244  0.61538858  0.36576348  1
  O  O370  1  0.87710206  0.62708837  0.85958849  1
  O  O371  1  0.12622087  0.38337679  0.13224363  1
  O  O372  1  0.13333938  0.38330950  0.63050745  1
  O  O373  1  0.13208346  0.87845549  0.12629112  1
  O  O374  1  0.14046318  0.87355310  0.62244994  1
  O  O375  1  0.61853375  0.38948996  0.12284169  1
  O  O376  1  0.65412794  0.36323608  0.64639007  1
  O  O377  1  0.63146422  0.87488975  0.13640852  1
  O  O378  1  0.62247145  0.88972703  0.62966153  1
  O  O379  1  0.11878611  0.25726880  0.25482594  1
  O  O380  1  0.11512721  0.25883642  0.76292537  1
  O  O381  1  0.11457688  0.74931573  0.25533110  1
  O  O382  1  0.11856335  0.75097911  0.75357073  1
  O  O383  1  0.59417885  0.22486172  0.25458710  1
  O  O384  1  0.60811203  0.24335387  0.75007224  1
  O  O385  1  0.61549688  0.75993242  0.25127186  1
  O  O386  1  0.61330643  0.76313183  0.73881028  1
  O  O387  1  0.37852721  0.23477449  0.25706753  1
  O  O388  1  0.38606431  0.24878330  0.74310792  1
  O  O389  1  0.38126656  0.75027551  0.24048403  1
  O  O390  1  0.38322573  0.74788782  0.74027058  1
  O  O391  1  0.88746012  0.25699865  0.24234159  1
  O  O392  1  0.88794768  0.25628460  0.76712550  1
  O  O393  1  0.87831805  0.73735602  0.24817330  1
  O  O394  1  0.88256337  0.74673364  0.74132803  1
  O  O395  1  0.37732936  0.48763002  0.48607889  1
  O  O396  1  0.38483381  0.49682030  0.99345569  1
  O  O397  1  0.37169256  0.99011661  0.48986963  1
  O  O398  1  0.38291080  0.99472358  0.99142275  1
  O  O399  1  0.88369854  0.49677153  0.49350807  1
  O  O400  1  0.89373122  0.48892157  1.01396348  1
  O  O401  1  0.88237042  0.98527057  0.49635562  1
  O  O402  1  0.87917048  0.99462629  0.99092159  1
  O  O403  1  0.11799022  0.01272219  -0.00198891  1
  O  O404  1  0.11242106  -0.00749167  0.49887837  1
  O  O405  1  0.11622575  0.50430212  0.00640388  1
  O  O406  1  0.11916544  0.50360569  0.50339198  1
  O  O407  1  0.60913937  0.00101924  -0.00473592  1
  O  O408  1  0.62586902  0.01403580  0.50482214  1
  O  O409  1  0.61124641  0.50272698  0.00663116  1
  O  O410  1  0.61019570  0.45636648  0.52240030  1
  O  O411  1  0.37279883  0.37636717  0.10788387  1
  O  O412  1  0.36965249  0.37020348  0.61619912  1
  O  O413  1  0.36834450  0.86605762  0.11810244  1
  O  O414  1  0.37152363  0.86833590  0.61737118  1
  O  O415  1  0.88583488  0.36203126  0.11890899  1
  O  O416  1  0.87237414  0.38112514  0.60867585  1
  O  O417  1  0.86373510  0.87255377  0.11762390  1
  O  O418  1  0.87636680  0.86291488  0.61221506  1
  O  O419  1  0.13314986  0.13711872  0.37309761  1
  O  O420  1  0.12113540  0.13493375  0.89013659  1
  O  O421  1  0.12952508  0.62640725  0.38145936  1
  O  O422  1  0.13054629  0.63050289  0.87886843  1
  O  O423  1  0.63527809  0.14039264  0.38434849  1
  O  O424  1  0.63561095  0.12903913  0.87876675  1
  O  O425  1  0.63895197  0.62167308  0.37005162  1
  O  O426  1  0.62707636  0.61984927  0.89879252  1
