# generated using pymatgen
data_V85Zn86O256
_symmetry_space_group_name_H-M   'P 1'
_cell_length_a   16.95338913
_cell_length_b   16.96094028
_cell_length_c   16.96982455
_cell_angle_alpha   89.92882765
_cell_angle_beta   90.16472019
_cell_angle_gamma   90.04392452
_symmetry_Int_Tables_number   1
_chemical_formula_structural   V85Zn86O256
_chemical_formula_sum   'V85 Zn86 O256'
_cell_volume   4879.56998864
_cell_formula_units_Z   1
loop_
 _symmetry_equiv_pos_site_id
 _symmetry_equiv_pos_as_xyz
  1  'x, y, z'
loop_
 _atom_site_type_symbol
 _atom_site_label
 _atom_site_symmetry_multiplicity
 _atom_site_fract_x
 _atom_site_fract_y
 _atom_site_fract_z
 _atom_site_occupancy
  V  V0  1  0.75882091  0.25572799  0.00639553  1
  V  V1  1  0.25492760  0.12308216  0.87261949  1
  V  V2  1  0.37083151  0.74982822  0.11542940  1
  V  V3  1  0.62534510  -0.00463686  0.62733009  1
  V  V4  1  0.74723395  0.88024227  0.12709665  1
  V  V5  1  0.12504026  0.26008673  0.86965804  1
  V  V6  1  0.50241715  0.62068642  0.12290944  1
  V  V7  1  0.13093502  0.75079922  0.88169169  1
  V  V8  1  0.24809376  0.63143998  0.37482564  1
  V  V9  1  -0.00965168  0.12098346  0.12457924  1
  V  V10  1  0.74809023  0.74591191  -0.00685115  1
  V  V11  1  0.62025999  0.61869686  0.49902048  1
  V  V12  1  0.74817866  0.50412843  0.75657674  1
  V  V13  1  0.00357498  0.26157692  0.75264203  1
  V  V14  1  0.74833150  0.37474637  0.62698489  1
  V  V15  1  0.87650285  0.12303773  0.75111217  1
  V  V16  1  0.49735196  0.61796916  0.62175233  1
  V  V17  1  0.62558747  0.87917248  0.25069454  1
  V  V18  1  0.12445609  0.49778990  0.63079213  1
  V  V19  1  0.49667177  0.12565047  0.12275279  1
  V  V20  1  0.00780053  0.49301493  -0.00561680  1
  V  V21  1  0.62737484  0.62388307  -0.00455917  1
  V  V22  1  0.01493806  0.36591216  0.38076988  1
  V  V23  1  0.49536950  0.12650404  0.62733939  1
  V  V24  1  0.37443245  0.50363198  0.37286558  1
  V  V25  1  0.87020543  0.86883118  0.49836677  1
  V  V26  1  0.00360495  -0.00383171  0.00178017  1
  V  V27  1  -0.00121552  0.50241484  0.50283879  1
  V  V28  1  0.86799011  0.61983024  0.24798043  1
  V  V29  1  0.74997833  0.62588804  0.38095001  1
  V  V30  1  0.87380827  0.37589777  0.50306391  1
  V  V31  1  0.61844275  0.00107572  0.12370868  1
  V  V32  1  0.37270486  -0.00535614  0.37455004  1
  V  V33  1  0.49752180  0.74941413  0.24942614  1
  V  V34  1  0.49966189  0.38028212  0.37791149  1
  V  V35  1  0.12490335  0.12414022  0.49893987  1
  V  V36  1  0.50073750  0.25033585  0.24905075  1
  V  V37  1  0.62119219  0.12128832  0.00107494  1
  V  V38  1  0.00466306  0.62231565  0.12090705  1
  V  V39  1  0.87142784  -0.00075055  0.36827128  1
  V  V40  1  0.24935171  0.87155997  0.11841107  1
  V  V41  1  0.37519991  0.37032400  0.01552341  1
  V  V42  1  0.25201066  0.24794634  0.01258274  1
  V  V43  1  0.00141225  0.87455274  0.87431750  1
  V  V44  1  0.24906988  0.50086927  0.75315532  1
  V  V45  1  0.50737425  0.75773470  0.74227736  1
  V  V46  1  0.25692743  0.75735275  0.51330086  1
  V  V47  1  0.62513682  0.24915988  0.87714632  1
  V  V48  1  0.62439700  0.37571182  0.75151785  1
  V  V49  1  0.62869510  0.75051389  0.38068695  1
  V  V50  1  0.87285539  0.75094316  0.12481486  1
  V  V51  1  0.00368508  0.87369315  0.37401576  1
  V  V52  1  0.49668301  0.24769194  0.74933635  1
  V  V53  1  0.24831424  0.00560311  0.73806619  1
  V  V54  1  0.37147727  0.12978578  0.24431628  1
  V  V55  1  0.37559146  0.63053554  0.74538266  1
  V  V56  1  0.12660703  0.88127497  0.73689682  1
  V  V57  1  0.12587294  0.63419518  0.49906785  1
  V  V58  1  0.75071320  0.12110724  0.36714209  1
  V  V59  1  0.00218251  0.74938353  0.25264246  1
  V  V60  1  0.49584072  -0.00151462  0.49896602  1
  V  V61  1  0.24317586  0.00161351  0.24243593  1
  V  V62  1  0.87406065  0.87447144  -0.00094048  1
  V  V63  1  0.49341365  0.37522871  0.87620521  1
  V  V64  1  0.12605981  0.11759380  0.00385805  1
  V  V65  1  0.24666922  0.37525778  0.62950742  1
  V  V66  1  0.87177178  0.49838608  0.37240135  1
  V  V67  1  0.62478671  0.12404509  0.49941813  1
  V  V68  1  0.25234707  0.63505525  0.87943070  1
  V  V69  1  0.50531129  0.87601307  0.88061509  1
  V  V70  1  0.87796965  0.48389338  0.87523198  1
  V  V71  1  0.62318798  0.24988254  0.37751100  1
  V  V72  1  -0.01638361  0.28997081  0.20754302  1
  V  V73  1  -0.00290730  0.62894976  0.62813514  1
  V  V74  1  0.12365878  0.87537817  0.24553720  1
  V  V75  1  0.00742834  0.11599108  0.62659357  1
  V  V76  1  0.37818850  0.38252641  0.50201304  1
  V  V77  1  0.74967019  0.24773975  0.50376746  1
  V  V78  1  0.37228222  0.24798203  0.62658110  1
  V  V79  1  0.87188019  0.62640516  0.75945110  1
  V  V80  1  0.74809616  -0.00485143  0.74950722  1
  V  V81  1  0.24244318  0.13320581  0.37183478  1
  V  V82  1  0.87613311  0.24873732  0.62712310  1
  V  V83  1  0.74835390  0.86921834  0.62058824  1
  V  V84  1  0.37637620  -0.00240486  0.87604406  1
  Zn  Zn85  1  -0.00096806  0.75225805  0.74940901  1
  Zn  Zn86  1  0.88280801  0.36895792  0.02841126  1
  Zn  Zn87  1  0.86627208  0.74549499  0.62201289  1
  Zn  Zn88  1  0.87414787  0.12579858  0.24499012  1
  Zn  Zn89  1  0.36990415  0.62376271  0.24586518  1
  Zn  Zn90  1  0.49634735  0.87194411  0.38059024  1
  Zn  Zn91  1  0.50638900  0.49435025  0.00475580  1
  Zn  Zn92  1  0.64546599  0.38962128  0.25250379  1
  Zn  Zn93  1  0.37224778  0.87190243  0.53596517  1
  Zn  Zn94  1  0.00600131  -0.00421968  0.50329687  1
  Zn  Zn95  1  0.62163252  0.49642856  0.62033613  1
  Zn  Zn96  1  0.21790403  0.38128798  0.13312900  1
  Zn  Zn97  1  0.74935004  0.12216031  0.87440112  1
  Zn  Zn98  1  0.82715084  0.41687884  0.18635675  1
  Zn  Zn99  1  0.37501553  0.50236413  0.87923997  1
  Zn  Zn100  1  0.23227189  0.49857938  0.24194503  1
  Zn  Zn101  1  0.87261185  -0.00120342  0.87467445  1
  Zn  Zn102  1  0.24250986  0.25724716  0.49108907  1
  Zn  Zn103  1  0.13648240  0.62328770  0.00660179  1
  Zn  Zn104  1  0.62932995  0.75081796  0.87101249  1
  Zn  Zn105  1  0.65467698  0.48846615  0.12767965  1
  Zn  Zn106  1  0.36582467  0.86875592  -0.01312910  1
  Zn  Zn107  1  0.16535422  0.19543827  0.19331397  1
  Zn  Zn108  1  0.18532434  0.18731906  0.68606690  1
  Zn  Zn109  1  0.18664378  0.68680646  0.19156864  1
  Zn  Zn110  1  0.18500556  0.69147151  0.69152080  1
  Zn  Zn111  1  0.71297190  0.23922764  0.20680570  1
  Zn  Zn112  1  0.68538824  0.18438962  0.68895537  1
  Zn  Zn113  1  0.68576425  0.68793270  0.18606145  1
  Zn  Zn114  1  0.68396982  0.68405359  0.68599343  1
  Zn  Zn115  1  0.31162792  0.31724275  0.30586336  1
  Zn  Zn116  1  0.31047770  0.30989229  0.81217302  1
  Zn  Zn117  1  0.30833016  0.80930676  0.31038363  1
  Zn  Zn118  1  0.33354672  0.83531430  0.75097090  1
  Zn  Zn119  1  0.82633659  0.30217030  0.32358978  1
  Zn  Zn120  1  0.81076813  0.30923588  0.81240763  1
  Zn  Zn121  1  0.81196328  0.81027350  0.31159141  1
  Zn  Zn122  1  0.81340125  0.81210026  0.80840311  1
  Zn  Zn123  1  0.19134055  0.44633218  0.44255459  1
  Zn  Zn124  1  0.19351322  0.43932126  0.94298172  1
  Zn  Zn125  1  0.18755485  0.93936970  0.43664821  1
  Zn  Zn126  1  0.18808849  0.93765521  0.93151362  1
  Zn  Zn127  1  0.68764505  0.43800303  0.43505634  1
  Zn  Zn128  1  0.69006937  0.43846551  0.94278664  1
  Zn  Zn129  1  0.68664188  0.93902533  0.43829124  1
  Zn  Zn130  1  0.68612783  0.93728097  0.93816344  1
  Zn  Zn131  1  0.31457426  0.05692202  0.05909276  1
  Zn  Zn132  1  0.31079315  0.06369759  0.55539892  1
  Zn  Zn133  1  0.31452932  0.55535744  0.06597536  1
  Zn  Zn134  1  0.31210667  0.56517305  0.56147670  1
  Zn  Zn135  1  0.80727273  0.06141443  0.05732617  1
  Zn  Zn136  1  0.81655864  0.05809288  0.55892716  1
  Zn  Zn137  1  0.81927535  0.56136557  0.05606396  1
  Zn  Zn138  1  0.80806097  0.56194094  0.56380433  1
  Zn  Zn139  1  0.43871541  0.43758559  0.19344730  1
  Zn  Zn140  1  0.43477871  0.43925290  0.69066745  1
  Zn  Zn141  1  0.43404699  0.93718859  0.18676257  1
  Zn  Zn142  1  0.43929981  0.94863218  0.69299697  1
  Zn  Zn143  1  1.05681584  0.44707634  0.18440623  1
  Zn  Zn144  1  0.93449303  0.44061610  0.68848421  1
  Zn  Zn145  1  0.93569304  0.94014948  0.18630701  1
  Zn  Zn146  1  0.93392997  0.93561242  0.68680208  1
  Zn  Zn147  1  0.06290227  0.05924694  0.31454098  1
  Zn  Zn148  1  0.06562112  0.06440257  0.81475117  1
  Zn  Zn149  1  0.05721945  0.56619064  0.32046074  1
  Zn  Zn150  1  0.06273142  0.56391052  0.81553280  1
  Zn  Zn151  1  0.56111712  0.06232057  0.31148780  1
  Zn  Zn152  1  0.56160404  0.06129459  0.81138030  1
  Zn  Zn153  1  0.56588229  0.55953953  0.30581149  1
  Zn  Zn154  1  0.56058582  0.56287965  0.81272838  1
  Zn  Zn155  1  0.43098802  0.18833256  0.43749414  1
  Zn  Zn156  1  0.43502055  0.18837099  0.93892894  1
  Zn  Zn157  1  0.43580786  0.69017542  0.43980936  1
  Zn  Zn158  1  0.44030355  0.68861018  0.93349711  1
  Zn  Zn159  1  0.93700935  0.18393586  0.44106375  1
  Zn  Zn160  1  0.94043572  0.18727404  0.93535049  1
  Zn  Zn161  1  0.93651256  0.68837439  0.43738537  1
  Zn  Zn162  1  0.93961946  0.68765442  0.93702132  1
  Zn  Zn163  1  0.05985481  0.30458282  0.04592681  1
  Zn  Zn164  1  0.06210527  0.30756083  0.56231143  1
  Zn  Zn165  1  0.06414581  0.80850349  0.06386141  1
  Zn  Zn166  1  0.06124818  0.81140143  0.55845234  1
  Zn  Zn167  1  0.56697161  0.31083395  0.06754960  1
  Zn  Zn168  1  0.56170122  0.31300179  0.56194622  1
  Zn  Zn169  1  0.56041250  0.80999093  0.06029041  1
  Zn  Zn170  1  0.55951223  0.81187334  0.56139790  1
  O  O171  1  0.11344906  0.12651452  0.10853782  1
  O  O172  1  0.11500837  0.12602731  0.61920091  1
  O  O173  1  0.10921100  0.63836069  0.12121676  1
  O  O174  1  0.11598188  0.61920357  0.62186295  1
  O  O175  1  0.61566501  0.11478818  0.11755417  1
  O  O176  1  0.61685551  0.11833823  0.61819716  1
  O  O177  1  0.61542781  0.62905465  0.11512638  1
  O  O178  1  0.61810813  0.62209767  0.61416623  1
  O  O179  1  0.37901928  0.38219221  0.38467807  1
  O  O180  1  0.38381922  0.37234384  0.87847122  1
  O  O181  1  0.37420561  0.89021369  0.36347498  1
  O  O182  1  0.38447829  0.88089696  0.86572265  1
  O  O183  1  0.88145058  0.38321419  0.38554662  1
  O  O184  1  0.87875431  0.38359301  0.86789741  1
  O  O185  1  0.87795200  0.87968963  0.37885917  1
  O  O186  1  0.88702551  0.87333179  0.87868500  1
  O  O187  1  0.25499199  0.00811182  0.36264116  1
  O  O188  1  0.25530277  0.00752472  0.86895483  1
  O  O189  1  0.25965544  0.51310493  0.37919265  1
  O  O190  1  0.24875785  0.50683010  0.86374921  1
  O  O191  1  0.75613298  0.01128349  0.37973051  1
  O  O192  1  0.74936327  0.00027450  0.86351519  1
  O  O193  1  0.76218755  0.50946983  0.37950615  1
  O  O194  1  0.75903004  0.49349218  0.86375001  1
  O  O195  1  0.24219933  0.49564582  0.12407800  1
  O  O196  1  0.24346200  0.49610845  0.63230029  1
  O  O197  1  0.25715008  0.98961517  0.13637608  1
  O  O198  1  0.25148959  1.01300124  0.63968261  1
  O  O199  1  0.76925717  0.48769040  0.12207220  1
  O  O200  1  0.74776467  0.49220396  0.63653099  1
  O  O201  1  0.73793425  0.98767184  0.11980451  1
  O  O202  1  0.74319271  0.99456575  0.62932520  1
  O  O203  1  -0.00161057  0.37831484  0.27376809  1
  O  O204  1  -0.00249502  0.36054332  0.74272928  1
  O  O205  1  0.00394244  0.86959856  0.25263032  1
  O  O206  1  0.00866900  0.87874787  0.75792561  1
  O  O207  1  0.48872009  0.36109275  0.26532045  1
  O  O208  1  0.50367869  0.36900547  0.75785590  1
  O  O209  1  0.50872415  0.86596171  0.24904755  1
  O  O210  1  0.50163459  0.86078871  0.75241310  1
  O  O211  1  0.49128081  0.12985458  0.24466842  1
  O  O212  1  0.50477001  0.13058987  0.73479255  1
  O  O213  1  0.50065612  0.63653728  0.24160959  1
  O  O214  1  0.49372699  0.63054824  0.74367908  1
  O  O215  1  1.00285263  0.10488230  0.22540688  1
  O  O216  1  0.99445969  0.12969270  0.74517109  1
  O  O217  1  0.98860879  0.63327041  0.24592935  1
  O  O218  1  0.99125145  0.62438709  0.74197587  1
  O  O219  1  0.36384617  0.25943785  -0.00372049  1
  O  O220  1  0.37011791  0.26113605  0.51064515  1
  O  O221  1  0.37820227  0.75132615  0.01144995  1
  O  O222  1  0.36186222  0.75458846  0.50022263  1
  O  O223  1  0.86290862  0.25296453  -0.01369212  1
  O  O224  1  0.86885573  0.25462783  0.50865648  1
  O  O225  1  0.86810244  0.75468070  0.00450899  1
  O  O226  1  0.87686192  0.76326225  0.50109590  1
  O  O227  1  0.12899811  0.23370167  0.50646563  1
  O  O228  1  0.13318355  0.23841599  0.98538971  1
  O  O229  1  0.13431645  0.74031486  0.50462596  1
  O  O230  1  0.12181599  0.74647430  0.98601008  1
  O  O231  1  0.62954636  0.24389472  0.49673287  1
  O  O232  1  0.63343939  0.24279059  0.99336109  1
  O  O233  1  0.61841185  0.74224205  0.48637195  1
  O  O234  1  0.63259481  0.74373302  0.99821453  1
  O  O235  1  0.50538781  0.23595897  0.13780895  1
  O  O236  1  0.49276306  0.24440288  0.62799823  1
  O  O237  1  0.49244864  0.74425867  0.13104696  1
  O  O238  1  0.50682831  0.74014466  0.63715653  1
  O  O239  1  0.99074480  0.22720831  0.10935029  1
  O  O240  1  0.99554384  0.24003096  0.63434632  1
  O  O241  1  0.99143952  0.74607012  0.13274036  1
  O  O242  1  0.99854887  0.73750390  0.62618311  1
  O  O243  1  -0.00117772  0.26793634  0.39231406  1
  O  O244  1  0.01681535  0.24469433  0.86894376  1
  O  O245  1  -0.00977733  0.76138025  0.36344615  1
  O  O246  1  0.00796831  0.75959882  0.87209170  1
  O  O247  1  0.50299768  0.25429935  0.37071082  1
  O  O248  1  0.50576631  0.25513259  0.87033445  1
  O  O249  1  0.50714480  0.75077344  0.36576409  1
  O  O250  1  0.50086680  0.76176580  0.86415477  1
  O  O251  1  0.24322761  0.12709863  0.48805976  1
  O  O252  1  0.24522768  0.12875272  0.99493767  1
  O  O253  1  0.24441720  0.63487559  0.49707663  1
  O  O254  1  0.25307749  0.61524069  0.98298659  1
  O  O255  1  0.74509710  0.12888513  0.49510369  1
  O  O256  1  0.73937904  0.13171726  0.99292697  1
  O  O257  1  0.74154033  0.62571873  0.48915615  1
  O  O258  1  0.74288785  0.63704949  1.00769558  1
  O  O259  1  0.26180961  0.36637309  0.00441614  1
  O  O260  1  0.25853840  0.37605667  0.51236784  1
  O  O261  1  0.24634165  0.88038585  0.01452352  1
  O  O262  1  0.24688638  0.86024373  0.49517193  1
  O  O263  1  0.75384091  0.35953970  -0.00141734  1
  O  O264  1  0.75334381  0.36895740  0.50623632  1
  O  O265  1  0.75283837  0.86854069  0.00840013  1
  O  O266  1  0.75815650  0.88144620  0.50871710  1
  O  O267  1  0.11868117  0.51059523  0.25000754  1
  O  O268  1  0.13420223  0.50828159  0.73965704  1
  O  O269  1  0.13462071  0.99000972  0.25131491  1
  O  O270  1  0.13271925  0.99042024  0.75470017  1
  O  O271  1  0.63755253  0.50353526  0.24428273  1
  O  O272  1  0.63394356  0.49469565  0.75241134  1
  O  O273  1  0.61970143  0.98825046  0.24156423  1
  O  O274  1  0.63519404  1.00860504  0.73682265  1
  O  O275  1  0.36604191  0.01082788  0.25488606  1
  O  O276  1  0.35633230  0.00043481  0.76104548  1
  O  O277  1  0.37491507  0.50392768  0.26526691  1
  O  O278  1  0.36491470  0.51003613  0.75311289  1
  O  O279  1  0.87492173  0.00019080  0.26370573  1
  O  O280  1  0.86642197  0.00788129  0.74999485  1
  O  O281  1  0.87841027  0.50901422  0.26325492  1
  O  O282  1  0.86850346  0.50619241  0.75662757  1
  O  O283  1  0.11319972  0.37957473  0.39298798  1
  O  O284  1  0.13533431  0.35802250  0.87992899  1
  O  O285  1  0.11199843  0.88039707  0.36299462  1
  O  O286  1  0.11668524  0.86902971  0.87031945  1
  O  O287  1  0.61614612  0.36939311  0.37412283  1
  O  O288  1  0.61541068  0.36561911  0.87401516  1
  O  O289  1  0.62486356  0.86851390  0.36783229  1
  O  O290  1  0.60957302  0.87670658  0.87647689  1
  O  O291  1  0.38357847  0.11651450  0.13282324  1
  O  O292  1  0.38466935  0.13548789  0.61473080  1
  O  O293  1  0.38190270  0.63414198  0.12541673  1
  O  O294  1  0.38305348  0.61964376  0.63440340  1
  O  O295  1  0.88492937  0.11216607  0.12535899  1
  O  O296  1  0.88164879  0.12911972  0.63346470  1
  O  O297  1  0.88307776  0.63115448  0.13203400  1
  O  O298  1  0.88262179  0.62344761  0.63134239  1
  O  O299  1  0.23629446  0.24763377  0.11299879  1
  O  O300  1  0.25638159  0.25939095  0.62861110  1
  O  O301  1  0.26015084  0.75854574  0.13464725  1
  O  O302  1  0.24901633  0.74593955  0.61314175  1
  O  O303  1  0.75440727  0.23846580  0.10418756  1
  O  O304  1  0.75476079  0.25416692  0.62376152  1
  O  O305  1  0.75280085  0.76013483  0.11598145  1
  O  O306  1  0.74514284  0.76530052  0.63112393  1
  O  O307  1  0.25880870  0.23676770  0.37276350  1
  O  O308  1  0.24229945  0.24084297  0.87798674  1
  O  O309  1  0.25441725  0.73702782  0.38328098  1
  O  O310  1  0.24237647  0.74017759  0.86803030  1
  O  O311  1  0.74563284  0.24046613  0.38639047  1
  O  O312  1  0.73662574  0.24689607  0.87842218  1
  O  O313  1  0.73900874  0.73987107  0.36950642  1
  O  O314  1  0.74815773  0.76054896  0.88821370  1
  O  O315  1  0.00470550  0.11403583  0.00206458  1
  O  O316  1  0.00630831  0.12290496  0.50949641  1
  O  O317  1  -0.00195244  0.61825792  0.00734009  1
  O  O318  1  0.00543999  0.62325271  0.50739346  1
  O  O319  1  0.50931041  0.13529560  0.01003092  1
  O  O320  1  0.50343285  0.12054733  0.50769613  1
  O  O321  1  0.50705159  0.62420757  0.00734254  1
  O  O322  1  0.50651959  0.63124954  0.51086151  1
  O  O323  1  0.49039541  0.36872559  0.48964998  1
  O  O324  1  0.48957046  0.36682253  0.99290674  1
  O  O325  1  0.49066674  0.88182796  0.50025590  1
  O  O326  1  0.49390093  0.86952030  0.98336250  1
  O  O327  1  0.99375447  0.38278258  0.50008286  1
  O  O328  1  0.99893990  0.38985024  0.99549775  1
  O  O329  1  0.99398780  0.87479155  0.48954079  1
  O  O330  1  0.99659414  0.87821905  0.99390077  1
  O  O331  1  0.49270190  0.48853152  0.37008858  1
  O  O332  1  0.49947075  0.48569600  0.87837393  1
  O  O333  1  0.49027681  1.00027398  0.38066251  1
  O  O334  1  0.49098213  0.98546766  0.85850756  1
  O  O335  1  0.98909336  0.49533606  0.38625352  1
  O  O336  1  0.99140253  0.50852848  0.88584173  1
  O  O337  1  0.99054419  0.98854513  0.37480676  1
  O  O338  1  0.99932258  0.98989825  0.88255545  1
  O  O339  1  -0.00192716  0.00144731  0.10823645  1
  O  O340  1  -0.00724160  0.01221998  0.62413291  1
  O  O341  1  -0.00408726  0.51186255  0.10639236  1
  O  O342  1  0.00573999  0.50817087  0.62351306  1
  O  O343  1  0.50783352  0.00923873  0.12944230  1
  O  O344  1  0.50654482  0.00895084  0.62176514  1
  O  O345  1  0.49168448  0.51608284  0.12592539  1
  O  O346  1  0.50359443  0.51203971  0.63285030  1
  O  O347  1  0.25202393  0.38242102  0.24280751  1
  O  O348  1  0.25704731  0.38668719  0.73897230  1
  O  O349  1  0.24123005  0.88097296  0.24450215  1
  O  O350  1  0.23380158  0.89037096  0.75282056  1
  O  O351  1  0.75554937  0.34468156  0.24557289  1
  O  O352  1  0.74395338  0.38124993  0.74624102  1
  O  O353  1  0.73735691  0.86522192  0.23806445  1
  O  O354  1  0.75798758  0.88796461  0.73833841  1
  O  O355  1  0.24903806  0.12218018  0.25018185  1
  O  O356  1  0.23838832  0.11383770  0.76071329  1
  O  O357  1  0.25070123  0.62384523  0.26249287  1
  O  O358  1  0.25735224  0.62027181  0.75470855  1
  O  O359  1  0.75508946  0.14198125  0.26467660  1
  O  O360  1  0.75929164  0.11648346  0.74914562  1
  O  O361  1  0.76264448  0.63294022  0.25793508  1
  O  O362  1  0.75856825  0.61417834  0.74239446  1
  O  O363  1  0.36593850  0.11481702  0.36650638  1
  O  O364  1  0.36332798  0.11907705  0.87959353  1
  O  O365  1  0.36899063  0.61758423  0.37707382  1
  O  O366  1  0.36956884  0.62327965  0.86555905  1
  O  O367  1  0.86896324  0.11622908  0.37634606  1
  O  O368  1  0.87559598  0.12269168  0.86112423  1
  O  O369  1  0.86902746  0.61958262  0.37011578  1
  O  O370  1  0.87820818  0.61938488  0.86265097  1
  O  O371  1  0.10448724  0.36178605  0.12943119  1
  O  O372  1  0.13426642  0.38633062  0.61758642  1
  O  O373  1  0.13257002  0.86782730  0.13690119  1
  O  O374  1  0.11550716  0.87471419  0.63879022  1
  O  O375  1  0.61226991  0.37986355  0.13979475  1
  O  O376  1  0.62877409  0.37519760  0.63240145  1
  O  O377  1  0.62680886  0.88113362  0.12913789  1
  O  O378  1  0.63162600  0.88814924  0.61653834  1
  O  O379  1  0.07258152  0.24669874  0.23714969  1
  O  O380  1  0.11993648  0.24582696  0.76235906  1
  O  O381  1  0.10998052  0.75800790  0.24959350  1
  O  O382  1  0.12361897  0.76579648  0.75811566  1
  O  O383  1  0.61119927  0.24747621  0.26196914  1
  O  O384  1  0.61910083  0.25386406  0.75878567  1
  O  O385  1  0.61638280  0.75728834  0.25675357  1
  O  O386  1  0.61134632  0.73935185  0.75573217  1
  O  O387  1  0.38404652  0.23552171  0.25601700  1
  O  O388  1  0.38000550  0.25511801  0.73526779  1
  O  O389  1  0.38537684  0.74983043  0.24264482  1
  O  O390  1  0.39091899  0.73703222  0.75232240  1
  O  O391  1  0.90611195  0.24139267  0.25861951  1
  O  O392  1  0.88240930  0.24132269  0.74720377  1
  O  O393  1  0.88194461  0.74368140  0.24424547  1
  O  O394  1  0.87678359  0.74008929  0.74481775  1
  O  O395  1  0.37196196  0.49010870  0.49329516  1
  O  O396  1  0.37870067  0.48018830  0.99682364  1
  O  O397  1  0.37595481  0.99470420  0.49075886  1
  O  O398  1  0.37082043  0.99287967  0.98187325  1
  O  O399  1  0.87837559  0.49646038  0.49524013  1
  O  O400  1  0.88359280  0.49132458  0.98912963  1
  O  O401  1  0.87965452  0.98792872  0.48909141  1
  O  O402  1  0.88203353  0.99197154  0.99476792  1
  O  O403  1  0.11586533  0.00674584  -0.00835078  1
  O  O404  1  0.12399211  0.01518911  0.49505379  1
  O  O405  1  0.11151024  0.50515294  -0.00980813  1
  O  O406  1  0.12121763  0.51285024  0.51464895  1
  O  O407  1  0.62718552  0.01082023  0.00801040  1
  O  O408  1  0.61740148  0.00528228  0.50782662  1
  O  O409  1  0.62651262  0.50852584  0.00805561  1
  O  O410  1  0.62617450  0.51368681  0.49819680  1
  O  O411  1  0.38569028  0.37044794  0.11367600  1
  O  O412  1  0.36939629  0.37090000  0.61925684  1
  O  O413  1  0.36666010  0.86720947  0.12349220  1
  O  O414  1  0.36892199  0.87583824  0.64750372  1
  O  O415  1  0.91800702  0.35751278  0.14233619  1
  O  O416  1  0.86880182  0.36959334  0.62189739  1
  O  O417  1  0.86550346  0.87200368  0.12067037  1
  O  O418  1  0.86689887  0.87380214  0.61544859  1
  O  O419  1  0.13347548  0.12289736  0.37896641  1
  O  O420  1  0.13564075  0.12880844  0.88484683  1
  O  O421  1  0.13274756  0.61958759  0.39159702  1
  O  O422  1  0.13450207  0.63537625  0.87177467  1
  O  O423  1  0.63138828  0.12731939  0.38018826  1
  O  O424  1  0.61888451  0.13324282  0.88270925  1
  O  O425  1  0.63053769  0.63090262  0.37972504  1
  O  O426  1  0.61714388  0.62674884  0.89112590  1
