# generated using pymatgen
data_V85Zn86O256
_symmetry_space_group_name_H-M   'P 1'
_cell_length_a   17.00448423
_cell_length_b   16.99998850
_cell_length_c   16.98641170
_cell_angle_alpha   89.93785051
_cell_angle_beta   89.88624719
_cell_angle_gamma   89.95588994
_symmetry_Int_Tables_number   1
_chemical_formula_structural   V85Zn86O256
_chemical_formula_sum   'V85 Zn86 O256'
_cell_volume   4910.35055348
_cell_formula_units_Z   1
loop_
 _symmetry_equiv_pos_site_id
 _symmetry_equiv_pos_as_xyz
  1  'x, y, z'
loop_
 _atom_site_type_symbol
 _atom_site_label
 _atom_site_symmetry_multiplicity
 _atom_site_fract_x
 _atom_site_fract_y
 _atom_site_fract_z
 _atom_site_occupancy
  V  V0  1  0.00361181  0.74474593  0.75431633  1
  V  V1  1  0.00299844  0.12941388  0.62409185  1
  V  V2  1  0.87152346  -0.00077216  0.87904460  1
  V  V3  1  0.37630427  0.62657694  0.25007586  1
  V  V4  1  0.62629698  0.12832886  0.48129578  1
  V  V5  1  0.12129434  0.75104078  0.37552774  1
  V  V6  1  -0.00232993  0.24597186  0.25120531  1
  V  V7  1  -0.00038305  0.62529982  0.62421566  1
  V  V8  1  0.37381836  0.87491029  0.49828939  1
  V  V9  1  0.25091171  0.49959150  0.25251913  1
  V  V10  1  -0.00156838  0.75228033  0.24865840  1
  V  V11  1  0.24392476  0.23688451  0.49556346  1
  V  V12  1  0.49951289  0.74892290  0.74937412  1
  V  V13  1  0.24937868  0.87444760  0.62368335  1
  V  V14  1  0.12961392  0.49292925  0.62131360  1
  V  V15  1  -0.00384659  0.87422699  0.87933116  1
  V  V16  1  0.51208452  0.87281980  0.37070993  1
  V  V17  1  0.49950753  0.87245929  0.87475510  1
  V  V18  1  0.12537221  0.87520048  0.24997051  1
  V  V19  1  0.24827076  0.13344115  0.87544632  1
  V  V20  1  0.74759303  0.50004858  0.74914883  1
  V  V21  1  0.36934128  0.00646007  0.37352027  1
  V  V22  1  0.38392808  0.12368888  0.74574240  1
  V  V23  1  0.86872404  0.62021544  0.24781574  1
  V  V24  1  0.12756225  0.37467639  0.25264593  1
  V  V25  1  0.24778597  0.00889040  0.25315177  1
  V  V26  1  0.75146378  0.37178441  0.62013683  1
  V  V27  1  0.74494562  0.87589964  0.13187872  1
  V  V28  1  0.63062152  0.87677259  0.74372142  1
  V  V29  1  0.25731738  0.36889340  0.11319900  1
  V  V30  1  0.62385096  0.49891097  0.62304909  1
  V  V31  1  0.87247670  0.01649038  0.36593567  1
  V  V32  1  0.37277592  0.87294802  -0.00034551  1
  V  V33  1  0.24846084  0.75159140  0.49894955  1
  V  V34  1  -0.00142714  0.12601659  0.12462820  1
  V  V35  1  0.63248999  0.01095137  0.62768631  1
  V  V36  1  0.75198185  0.75500271  -0.00237889  1
  V  V37  1  0.74713309  0.62484383  0.87601786  1
  V  V38  1  0.87537394  0.75840444  0.11967269  1
  V  V39  1  0.39053170  0.24622479  0.62030498  1
  V  V40  1  -0.00231076  0.37500669  0.38287750  1
  V  V41  1  0.87352754  0.25211060  0.12745154  1
  V  V42  1  0.62541060  0.39259877  0.25288546  1
  V  V43  1  0.25018922  0.49331567  0.74625115  1
  V  V44  1  0.12462010  0.00419798  0.61714486  1
  V  V45  1  0.50551861  0.24147392  0.24605740  1
  V  V46  1  0.74507358  0.24809081  -0.00125135  1
  V  V47  1  0.24916110  0.74809122  0.00120776  1
  V  V48  1  0.51363965  0.62400719  0.12128341  1
  V  V49  1  0.87637560  0.24990989  0.62631381  1
  V  V50  1  0.37657012  0.49389917  0.88450724  1
  V  V51  1  0.12340566  0.62479334  0.49704836  1
  V  V52  1  0.37509003  0.62325989  0.74992775  1
  V  V53  1  0.62376215  0.12505663  -0.00108600  1
  V  V54  1  0.12460025  0.50021367  0.12687979  1
  V  V55  1  0.61905719  -0.00488867  0.13139692  1
  V  V56  1  0.75176118  0.24612921  0.48922804  1
  V  V57  1  0.51770171  0.50130330  0.00262244  1
  V  V58  1  0.51346153  0.75311569  0.25257009  1
  V  V59  1  -0.00062275  0.62635803  0.12442536  1
  V  V60  1  0.62548257  0.74630331  0.87728946  1
  V  V61  1  0.50010442  0.00549133  0.50468948  1
  V  V62  1  0.12512739  0.87376489  0.75031761  1
  V  V63  1  0.12982798  0.23810892  0.37879285  1
  V  V64  1  -0.00842847  -0.00135852  0.50212043  1
  V  V65  1  0.49889044  0.00050521  0.00338944  1
  V  V66  1  0.24891755  0.87551977  0.12662721  1
  V  V67  1  0.37775827  0.49472020  0.37427699  1
  V  V68  1  0.37214479  -0.00374952  0.87358875  1
  V  V69  1  0.87784613  0.12848094  0.75254350  1
  V  V70  1  -0.00276451  0.49390703  -0.00323514  1
  V  V71  1  0.49943229  0.62350475  0.62466573  1
  V  V72  1  0.50087647  0.49857439  0.49747040  1
  V  V73  1  0.74630950  0.38962323  0.12918778  1
  V  V74  1  -0.00479667  0.49896206  0.49661838  1
  V  V75  1  0.12656101  0.13376411  -0.00548088  1
  V  V76  1  0.61904184  0.36582775  0.76043248  1
  V  V77  1  0.12548003  0.62474792  -0.00544140  1
  V  V78  1  -0.00461556  -0.00127186  0.00009126  1
  V  V79  1  0.87143943  0.50086711  0.37036551  1
  V  V80  1  0.87252542  0.76675154  0.62398154  1
  V  V81  1  0.37575779  0.74959367  0.12619825  1
  V  V82  1  -0.00850604  0.87690398  0.37861808  1
  V  V83  1  0.24987762  -0.00114697  0.74874049  1
  V  V84  1  0.87317612  0.62351535  0.74781780  1
  Zn  Zn85  1  0.62383917  0.63977365  0.48672329  1
  Zn  Zn86  1  0.24830947  0.36620027  0.62211795  1
  Zn  Zn87  1  0.12462059  0.00141561  0.12373356  1
  Zn  Zn88  1  0.37840735  0.24128342  0.11316759  1
  Zn  Zn89  1  0.24977280  0.62375536  0.87448845  1
  Zn  Zn90  1  0.74145474  0.01291860  0.26185129  1
  Zn  Zn91  1  0.50597001  0.24815729  0.77339291  1
  Zn  Zn92  1  0.74268634  0.63474320  0.37242092  1
  Zn  Zn93  1  0.43807577  0.33171281  0.94510943  1
  Zn  Zn94  1  0.74488016  0.76000761  0.49663069  1
  Zn  Zn95  1  0.51188120  0.36708326  0.37730078  1
  Zn  Zn96  1  -0.00651558  0.35728872  0.85699481  1
  Zn  Zn97  1  0.87269227  0.49689204  0.87482367  1
  Zn  Zn98  1  0.37405777  0.74987528  0.62382690  1
  Zn  Zn99  1  0.75538346  -0.00285854  0.74642864  1
  Zn  Zn100  1  0.87167416  0.37272337  -0.00477514  1
  Zn  Zn101  1  0.25068416  0.62614693  0.37464953  1
  Zn  Zn102  1  0.74772871  0.12782402  0.87405449  1
  Zn  Zn103  1  0.37551958  0.37105539  0.50005040  1
  Zn  Zn104  1  0.12673058  0.75095836  0.87636766  1
  Zn  Zn105  1  0.37579117  0.12683776  0.24063775  1
  Zn  Zn106  1  0.11807432  0.25617298  0.85422166  1
  Zn  Zn107  1  0.18433415  0.18912821  0.18345774  1
  Zn  Zn108  1  0.19626317  0.18445443  0.68209460  1
  Zn  Zn109  1  0.18706283  0.68730052  0.18720762  1
  Zn  Zn110  1  0.18757674  0.68384487  0.68639223  1
  Zn  Zn111  1  0.68526669  0.19250369  0.19862665  1
  Zn  Zn112  1  0.69098137  0.18553926  0.68808276  1
  Zn  Zn113  1  0.69036726  0.68714460  0.18727379  1
  Zn  Zn114  1  0.67107914  0.70721538  0.65694261  1
  Zn  Zn115  1  0.31682606  0.30600174  0.30923436  1
  Zn  Zn116  1  0.31344884  0.31035615  0.80514537  1
  Zn  Zn117  1  0.31430276  0.81603368  0.31486085  1
  Zn  Zn118  1  0.30971060  0.80947280  0.81315905  1
  Zn  Zn119  1  0.81314085  0.31797419  0.30926087  1
  Zn  Zn120  1  0.81203922  0.31457353  0.81294569  1
  Zn  Zn121  1  0.80813584  0.81939185  0.30863176  1
  Zn  Zn122  1  0.81435837  0.81245229  0.80792643  1
  Zn  Zn123  1  0.19176239  0.42895247  0.43932885  1
  Zn  Zn124  1  0.18409353  0.43291769  0.92951498  1
  Zn  Zn125  1  0.18425101  0.93866341  0.43615694  1
  Zn  Zn126  1  0.18347845  0.94094231  0.93825047  1
  Zn  Zn127  1  0.68907407  0.43785987  0.43779850  1
  Zn  Zn128  1  0.68912818  0.43489121  0.93980945  1
  Zn  Zn129  1  0.69521592  0.93791400  0.44177166  1
  Zn  Zn130  1  0.68718972  0.93476852  0.93970895  1
  Zn  Zn131  1  0.30874386  0.06447551  0.06294278  1
  Zn  Zn132  1  0.31427298  0.06394073  0.56215334  1
  Zn  Zn133  1  0.31163335  0.56073985  0.06753473  1
  Zn  Zn134  1  0.31300246  0.56334097  0.56038993  1
  Zn  Zn135  1  0.78837204  0.08590098  0.10261243  1
  Zn  Zn136  1  0.81281927  0.06404022  0.55814793  1
  Zn  Zn137  1  0.81245531  0.56935043  0.05963319  1
  Zn  Zn138  1  0.80894321  0.57094151  0.55808112  1
  Zn  Zn139  1  0.44290743  0.43576032  0.18309836  1
  Zn  Zn140  1  0.43682469  0.43264375  0.68892560  1
  Zn  Zn141  1  0.43342534  0.93666172  0.19006908  1
  Zn  Zn142  1  0.43960617  0.93607161  0.68598649  1
  Zn  Zn143  1  0.93811380  0.43539947  0.18700452  1
  Zn  Zn144  1  0.92913968  0.44221819  0.67609372  1
  Zn  Zn145  1  0.93574499  0.93913086  0.18817854  1
  Zn  Zn146  1  0.94290139  0.94170775  0.69545651  1
  Zn  Zn147  1  0.06113360  0.06043422  0.31220895  1
  Zn  Zn148  1  0.06271573  0.06433963  0.81028045  1
  Zn  Zn149  1  0.05868066  0.56480851  0.31167415  1
  Zn  Zn150  1  0.04733659  0.50954442  0.79136066  1
  Zn  Zn151  1  0.55657945  0.06040557  0.31271130  1
  Zn  Zn152  1  0.56326104  0.06056959  0.81786447  1
  Zn  Zn153  1  0.56393426  0.56574541  0.31131149  1
  Zn  Zn154  1  0.56169456  0.55746631  0.81292291  1
  Zn  Zn155  1  0.44042253  0.18904320  0.43059934  1
  Zn  Zn156  1  0.43171927  0.17591694  0.94163633  1
  Zn  Zn157  1  0.43991818  0.68810430  0.43680993  1
  Zn  Zn158  1  0.43777031  0.68239799  0.93771321  1
  Zn  Zn159  1  0.94118836  0.18977805  0.44295039  1
  Zn  Zn160  1  0.93728822  0.18928826  0.93892694  1
  Zn  Zn161  1  0.90140601  0.70967648  0.42061040  1
  Zn  Zn162  1  0.93674438  0.68406342  0.93713249  1
  Zn  Zn163  1  0.06861839  0.31382155  0.06172192  1
  Zn  Zn164  1  0.05952525  0.31854163  0.68936158  1
  Zn  Zn165  1  0.06387949  0.81356384  0.06182869  1
  Zn  Zn166  1  0.05795797  0.81311323  0.56357726  1
  Zn  Zn167  1  0.56618125  0.31345553  0.06998869  1
  Zn  Zn168  1  0.56785026  0.31253886  0.56045098  1
  Zn  Zn169  1  0.56237341  0.81096718  0.06224948  1
  Zn  Zn170  1  0.56109746  0.81959496  0.56193052  1
  O  O171  1  0.11482676  0.12440874  0.11508146  1
  O  O172  1  0.11625410  0.11173531  0.63184308  1
  O  O173  1  0.11924832  0.62022353  0.11915286  1
  O  O174  1  0.12055146  0.61894487  0.61336874  1
  O  O175  1  0.62392122  0.10081624  0.10980768  1
  O  O176  1  0.62148374  0.11269790  0.62569498  1
  O  O177  1  0.61268164  0.62931790  0.12735000  1
  O  O178  1  0.61679315  0.60520462  0.63559891  1
  O  O179  1  0.37870799  0.38952806  0.37122579  1
  O  O180  1  0.37334285  0.39138856  0.86723670  1
  O  O181  1  0.38173055  0.88557186  0.38162253  1
  O  O182  1  0.37896748  0.87703120  0.87941594  1
  O  O183  1  0.89016567  0.38572381  0.36387961  1
  O  O184  1  0.87887419  0.38075721  0.87824580  1
  O  O185  1  0.88998884  0.88644012  0.36759199  1
  O  O186  1  0.88784475  0.88346880  0.86693602  1
  O  O187  1  0.25782507  -0.00801448  0.36580018  1
  O  O188  1  0.25443087  0.00229119  0.86659751  1
  O  O189  1  0.26017947  0.50240894  0.37071570  1
  O  O190  1  0.25959229  0.50260851  0.86513757  1
  O  O191  1  0.76769025  -0.00202816  0.37486607  1
  O  O192  1  0.76371720  -0.00215501  0.87903156  1
  O  O193  1  0.77058258  0.49869714  0.38485584  1
  O  O194  1  0.74915928  0.51008780  0.87062894  1
  O  O195  1  0.24350515  0.49225480  0.13469172  1
  O  O196  1  0.24540316  0.49876047  0.62767582  1
  O  O197  1  0.24657980  0.99110759  0.13462196  1
  O  O198  1  0.24260484  0.99559756  0.62728193  1
  O  O199  1  0.75811255  0.48779587  0.11941715  1
  O  O200  1  0.74313403  0.49188084  0.62569613  1
  O  O201  1  0.73290622  0.98486319  0.11292589  1
  O  O202  1  0.73542734  1.00410516  0.62384183  1
  O  O203  1  0.01155003  0.36707517  0.25523576  1
  O  O204  1  0.00627892  0.40309251  0.74819828  1
  O  O205  1  0.00601092  0.87127104  0.25591909  1
  O  O206  1  0.00777483  0.86792416  0.76051178  1
  O  O207  1  0.51587689  0.37635215  0.25001881  1
  O  O208  1  0.51581401  0.37354382  0.74793058  1
  O  O209  1  0.49374114  0.86808008  0.26324664  1
  O  O210  1  0.50568127  0.86967874  0.75645761  1
  O  O211  1  0.50335384  0.13787619  0.24921601  1
  O  O212  1  0.48669375  0.12501290  0.76001356  1
  O  O213  1  0.49225614  0.63310711  0.24280897  1
  O  O214  1  0.49193024  0.62655813  0.74581934  1
  O  O215  1  1.01053576  0.13785487  0.23875410  1
  O  O216  1  0.98796497  0.11620408  0.73651167  1
  O  O217  1  0.99423111  0.63289977  0.24185070  1
  O  O218  1  0.99035879  0.62115322  0.74513810  1
  O  O219  1  0.37584415  0.25424978  0.00092575  1
  O  O220  1  0.37458288  0.24612074  0.50854887  1
  O  O221  1  0.37016986  0.75345056  0.00540096  1
  O  O222  1  0.36763971  0.75592249  0.49939212  1
  O  O223  1  0.86817844  0.25263785  0.01272047  1
  O  O224  1  0.85972392  0.23941254  0.51210394  1
  O  O225  1  0.86739035  0.74365077  0.01094319  1
  O  O226  1  0.88879648  0.74836044  0.52534241  1
  O  O227  1  0.14181141  0.24882801  0.49212770  1
  O  O228  1  0.12067286  0.23486861  0.99850417  1
  O  O229  1  0.12680964  0.74297108  0.49569538  1
  O  O230  1  0.13051638  0.74061612  1.00193879  1
  O  O231  1  0.63281991  0.23547734  0.50075808  1
  O  O232  1  0.63365328  0.23706780  1.01470687  1
  O  O233  1  0.63557199  0.73896398  0.54505977  1
  O  O234  1  0.63227171  0.75344060  0.98439131  1
  O  O235  1  0.49425340  0.26298164  0.14139729  1
  O  O236  1  0.49050618  0.24834869  0.61988348  1
  O  O237  1  0.49435781  0.74495598  0.13177309  1
  O  O238  1  0.49497669  0.74311396  0.63333101  1
  O  O239  1  0.99584178  0.24750023  0.13196061  1
  O  O240  1  0.98615656  0.24326166  0.62565972  1
  O  O241  1  0.99220883  0.74804016  0.12717488  1
  O  O242  1  0.99649672  0.74351201  0.63612075  1
  O  O243  1  0.00513579  0.25696906  0.37118180  1
  O  O244  1  0.00082623  0.24437474  0.86725113  1
  O  O245  1  -0.00061491  0.75961845  0.36945320  1
  O  O246  1  0.00092876  0.75738994  0.87271405  1
  O  O247  1  0.49276460  0.25654236  0.35608689  1
  O  O248  1  0.49325674  0.25233828  0.88368504  1
  O  O249  1  0.49787169  0.76465838  0.36985567  1
  O  O250  1  0.50789897  0.75106399  0.87034864  1
  O  O251  1  0.25685129  0.13723409  0.49673754  1
  O  O252  1  0.23748030  0.11250804  0.98545322  1
  O  O253  1  0.23922008  0.63099022  0.49807393  1
  O  O254  1  0.24102961  0.62957020  1.00449890  1
  O  O255  1  0.73706690  0.13504733  0.50336944  1
  O  O256  1  0.74236025  0.13328268  1.00533749  1
  O  O257  1  0.74554745  0.63684099  0.49511623  1
  O  O258  1  0.75400375  0.63681079  0.98549765  1
  O  O259  1  0.24284140  0.38381001  0.01574730  1
  O  O260  1  0.25899344  0.36182234  0.50196563  1
  O  O261  1  0.25331352  0.87015915  0.00535861  1
  O  O262  1  0.25309021  0.87103400  0.50449482  1
  O  O263  1  0.74807060  0.36779703  0.01362942  1
  O  O264  1  0.73683351  0.35785419  0.51092488  1
  O  O265  1  0.74932576  0.85963675  0.00562484  1
  O  O266  1  0.74466081  0.87010694  0.50974252  1
  O  O267  1  0.12815149  0.49294863  0.24854619  1
  O  O268  1  0.14132512  0.51519114  0.73269914  1
  O  O269  1  0.13105258  0.99245194  0.25014176  1
  O  O270  1  0.12962840  0.99325507  0.74005485  1
  O  O271  1  0.62284082  0.49134694  0.24501003  1
  O  O272  1  0.62830673  0.48831457  0.74267151  1
  O  O273  1  0.62087050  1.00141465  0.23420423  1
  O  O274  1  0.62358825  0.99704794  0.74039843  1
  O  O275  1  0.36493116  0.00000811  0.25695039  1
  O  O276  1  0.37125655  0.00401822  0.75238345  1
  O  O277  1  0.37402856  0.50929012  0.25596802  1
  O  O278  1  0.37176446  0.50726612  0.75512662  1
  O  O279  1  0.88009267  0.00413109  0.26376624  1
  O  O280  1  0.87424789  0.00838528  0.76006722  1
  O  O281  1  0.88362843  0.50974851  0.25570790  1
  O  O282  1  0.86551461  0.50913399  0.74890022  1
  O  O283  1  0.11745036  0.36814633  0.36769704  1
  O  O284  1  0.11069263  0.37001980  0.87834404  1
  O  O285  1  0.11436841  0.87000630  0.36964572  1
  O  O286  1  0.11510145  0.87482033  0.86877749  1
  O  O287  1  0.63077176  0.38077964  0.35826307  1
  O  O288  1  0.63354144  0.37662893  0.85850126  1
  O  O289  1  0.60957777  0.88611875  0.37666676  1
  O  O290  1  0.61894548  0.86606734  0.86666169  1
  O  O291  1  0.37131192  0.12666243  0.12705344  1
  O  O292  1  0.37321342  0.13414582  0.63412992  1
  O  O293  1  0.38021961  0.62975189  0.13577068  1
  O  O294  1  0.38117417  0.62428093  0.63417466  1
  O  O295  1  0.89227318  0.13834026  0.11885327  1
  O  O296  1  0.88026410  0.12966481  0.63233104  1
  O  O297  1  0.87933358  0.63431572  0.13051984  1
  O  O298  1  0.88083760  0.62573406  0.63572009  1
  O  O299  1  0.24726977  0.26734241  0.12990845  1
  O  O300  1  0.26055815  0.24768394  0.60920171  1
  O  O301  1  0.25609316  0.75538096  0.12132462  1
  O  O302  1  0.25044045  0.75662509  0.61766163  1
  O  O303  1  0.76029356  0.25762884  0.11988908  1
  O  O304  1  0.75589614  0.25493566  0.61821951  1
  O  O305  1  0.75474875  0.75599367  0.11765664  1
  O  O306  1  0.77375281  0.74870585  0.63682566  1
  O  O307  1  0.24392219  0.25456899  0.38400848  1
  O  O308  1  0.25103573  0.23456379  0.86601113  1
  O  O309  1  0.24100721  0.75050481  0.38085758  1
  O  O310  1  0.24681639  0.74466016  0.88461340  1
  O  O311  1  0.76014594  0.25634185  0.39116061  1
  O  O312  1  0.75777153  0.24934315  0.89480881  1
  O  O313  1  0.79058615  0.74360973  0.38692477  1
  O  O314  1  0.74549267  0.74556144  0.87853868  1
  O  O315  1  0.00750477  0.11820905  0.00636374  1
  O  O316  1  -0.00321098  0.11604048  0.51614652  1
  O  O317  1  0.00642704  0.61837338  0.00650114  1
  O  O318  1  0.01371823  0.61708965  0.50321704  1
  O  O319  1  0.50589350  0.10520544  -0.00291567  1
  O  O320  1  0.51491125  0.11659850  0.48961677  1
  O  O321  1  0.49434356  0.61467001  0.00981794  1
  O  O322  1  0.50178495  0.61543139  0.50625350  1
  O  O323  1  0.49937502  0.38516508  0.49642371  1
  O  O324  1  0.50692213  0.39609588  1.00951061  1
  O  O325  1  0.49535582  0.88297874  0.48931356  1
  O  O326  1  0.49255670  0.87833036  0.99369542  1
  O  O327  1  1.00553170  0.38855371  0.48659561  1
  O  O328  1  0.99858468  0.39089273  1.01003545  1
  O  O329  1  1.00482767  0.88557006  0.49005304  1
  O  O330  1  1.00704002  0.88409530  0.98953526  1
  O  O331  1  0.49362230  0.50092789  0.38381060  1
  O  O332  1  0.48799115  0.50732211  0.88978982  1
  O  O333  1  0.49185654  0.98979607  0.38111592  1
  O  O334  1  0.49262089  0.99080172  0.88318463  1
  O  O335  1  0.99647560  0.49340264  0.37911124  1
  O  O336  1  0.99766772  0.50465966  0.89258005  1
  O  O337  1  0.99429194  0.99677436  0.38287629  1
  O  O338  1  0.99420328  0.99328958  0.87921410  1
  O  O339  1  -0.00119060  0.00855696  0.11858361  1
  O  O340  1  0.00568035  0.00488688  0.61892669  1
  O  O341  1  0.00508873  0.50639993  0.11868386  1
  O  O342  1  0.00745162  0.50618184  0.61295763  1
  O  O343  1  0.51014565  -0.01632210  0.11569721  1
  O  O344  1  0.50616151  -0.00297883  0.60952541  1
  O  O345  1  0.49504942  0.51103074  0.11115843  1
  O  O346  1  0.50404751  0.50135573  0.61662950  1
  O  O347  1  0.23883969  0.37997646  0.24989224  1
  O  O348  1  0.25653141  0.39013193  0.74284280  1
  O  O349  1  0.24424726  0.88036038  0.24530431  1
  O  O350  1  0.24551220  0.87912951  0.74396463  1
  O  O351  1  0.74091082  0.37222418  0.23823208  1
  O  O352  1  0.74109363  0.37862905  0.73927733  1
  O  O353  1  0.75096289  0.88467945  0.23605949  1
  O  O354  1  0.73522139  0.87924823  0.75687505  1
  O  O355  1  0.24332587  0.11037424  0.24610284  1
  O  O356  1  0.26102175  0.11599690  0.75559089  1
  O  O357  1  0.26019879  0.62013878  0.25034256  1
  O  O358  1  0.26190084  0.61748714  0.74852861  1
  O  O359  1  0.75778093  0.11270482  0.21248226  1
  O  O360  1  0.76144135  0.11940410  0.75366915  1
  O  O361  1  0.76548097  0.63003255  0.25050899  1
  O  O362  1  0.75895968  0.61979547  0.75849994  1
  O  O363  1  0.38223770  0.10825008  0.36930927  1
  O  O364  1  0.36484905  0.11361373  0.86692377  1
  O  O365  1  0.37654554  0.61754548  0.36484708  1
  O  O366  1  0.37384373  0.61438409  0.86486695  1
  O  O367  1  0.88275168  0.11500688  0.37713880  1
  O  O368  1  0.87468278  0.11607814  0.86761920  1
  O  O369  1  0.88440001  0.61329057  0.36008947  1
  O  O370  1  0.86644155  0.62414515  0.86485750  1
  O  O371  1  0.13173216  0.37999919  0.13634397  1
  O  O372  1  0.12610301  0.39170806  0.61884022  1
  O  O373  1  0.13055054  0.87598692  0.13232080  1
  O  O374  1  0.12883491  0.88282373  0.63022163  1
  O  O375  1  0.64093480  0.37729677  0.13347903  1
  O  O376  1  0.63199787  0.38261182  0.63149419  1
  O  O377  1  0.63193945  0.88178387  0.11979012  1
  O  O378  1  0.61528618  0.89143346  0.63760686  1
  O  O379  1  0.11856150  0.25798596  0.25755838  1
  O  O380  1  0.13187378  0.25252990  0.74007920  1
  O  O381  1  0.11814618  0.75397850  0.25510350  1
  O  O382  1  0.12051999  0.75337624  0.75227040  1
  O  O383  1  0.61177790  0.26041869  0.24501837  1
  O  O384  1  0.62368278  0.26144001  0.74284981  1
  O  O385  1  0.61213219  0.74993051  0.24631850  1
  O  O386  1  0.61914074  0.75897435  0.75266196  1
  O  O387  1  0.38515453  0.24677755  0.24281340  1
  O  O388  1  0.37899266  0.24130657  0.73613590  1
  O  O389  1  0.38107802  0.74230521  0.24714891  1
  O  O390  1  0.38001243  0.73868682  0.75147548  1
  O  O391  1  0.88918760  0.25786787  0.24193834  1
  O  O392  1  0.86511507  0.23940199  0.73896688  1
  O  O393  1  0.88117740  0.74312379  0.23772922  1
  O  O394  1  0.88442554  0.74059076  0.74596554  1
  O  O395  1  0.38432986  0.50069955  0.49164593  1
  O  O396  1  0.36983610  0.50253271  0.98526879  1
  O  O397  1  0.38198962  0.99694022  0.49389379  1
  O  O398  1  0.38039812  0.99164274  0.99476148  1
  O  O399  1  0.89061140  0.51123121  0.49125037  1
  O  O400  1  0.88926809  0.50271249  1.00162448  1
  O  O401  1  0.88594312  1.00335460  0.49086647  1
  O  O402  1  0.89109221  1.00618989  0.98966735  1
  O  O403  1  0.11194796  0.00935420  0.00071445  1
  O  O404  1  0.11536018  -0.00366087  0.51098860  1
  O  O405  1  0.11466130  0.50736047  0.00675517  1
  O  O406  1  0.12175574  0.50778202  0.50119758  1
  O  O407  1  0.61376009  -0.00158451  0.00377870  1
  O  O408  1  0.62146996  0.01226887  0.50887203  1
  O  O409  1  0.61564067  0.50766250  -0.00752140  1
  O  O410  1  0.61613098  0.49703464  0.50972702  1
  O  O411  1  0.35756595  0.38033625  0.13015170  1
  O  O412  1  0.37519247  0.35667514  0.62567767  1
  O  O413  1  0.36921537  0.86830828  0.11942103  1
  O  O414  1  0.36805233  0.87482186  0.61696856  1
  O  O415  1  0.86544689  0.36790294  0.12545119  1
  O  O416  1  0.86114668  0.36517959  0.62700770  1
  O  O417  1  0.86677521  0.86416769  0.12920346  1
  O  O418  1  0.88331836  0.86538320  0.63740684  1
  O  O419  1  0.11766322  0.13969615  0.37195325  1
  O  O420  1  0.13311791  0.12464770  0.87756367  1
  O  O421  1  0.12436849  0.63161430  0.38172014  1
  O  O422  1  0.12699055  0.62458431  0.89137320  1
  O  O423  1  0.63179126  0.11595496  0.38332329  1
  O  O424  1  0.63128918  0.11441306  0.89231608  1
  O  O425  1  0.62946261  0.62679786  0.37466487  1
  O  O426  1  0.63503740  0.63718727  0.86134056  1
