# generated using pymatgen
data_V85Zn86O256
_symmetry_space_group_name_H-M   'P 1'
_cell_length_a   16.95462238
_cell_length_b   16.97067200
_cell_length_c   16.96817537
_cell_angle_alpha   89.91456021
_cell_angle_beta   89.99182676
_cell_angle_gamma   89.91377931
_symmetry_Int_Tables_number   1
_chemical_formula_structural   V85Zn86O256
_chemical_formula_sum   'V85 Zn86 O256'
_cell_volume   4882.26475279
_cell_formula_units_Z   1
loop_
 _symmetry_equiv_pos_site_id
 _symmetry_equiv_pos_as_xyz
  1  'x, y, z'
loop_
 _atom_site_type_symbol
 _atom_site_label
 _atom_site_symmetry_multiplicity
 _atom_site_fract_x
 _atom_site_fract_y
 _atom_site_fract_z
 _atom_site_occupancy
  V  V0  1  0.12333554  0.37391035  0.24957369  1
  V  V1  1  0.37385328  -0.01036378  0.37688428  1
  V  V2  1  0.61998056  0.12620161  0.49587381  1
  V  V3  1  0.75903716  0.25470892  0.50417985  1
  V  V4  1  0.74919840  0.00091110  0.74718588  1
  V  V5  1  0.87446166  0.87368072  -0.00118263  1
  V  V6  1  0.61926371  0.75117322  0.37221630  1
  V  V7  1  0.76299711  0.11996066  0.37106892  1
  V  V8  1  0.61933280  0.88473289  0.25115021  1
  V  V9  1  0.00165948  0.61883112  0.62544824  1
  V  V10  1  0.49926067  0.24630631  0.24572839  1
  V  V11  1  0.87926945  0.12981236  0.73503622  1
  V  V12  1  0.25029841  0.37096873  0.12367442  1
  V  V13  1  0.12464052  0.25041914  0.37335517  1
  V  V14  1  0.76909400  0.50171897  0.25403208  1
  V  V15  1  -0.00496397  0.24484798  0.24706870  1
  V  V16  1  0.87489434  0.74459989  0.13316198  1
  V  V17  1  0.87691737  0.37950622  -0.01376802  1
  V  V18  1  0.25249310  0.00634502  0.75787331  1
  V  V19  1  -0.00026608  0.62344667  0.12345246  1
  V  V20  1  0.62232584  0.25528532  0.37207593  1
  V  V21  1  0.75099277  0.62357399  0.87645614  1
  V  V22  1  0.50275266  0.37423229  0.37088364  1
  V  V23  1  0.14410067  0.49703942  0.62596288  1
  V  V24  1  -0.00418557  0.25405053  0.73216059  1
  V  V25  1  0.37227535  0.49937433  0.37514530  1
  V  V26  1  0.37387956  0.12333800  0.24707959  1
  V  V27  1  0.50125526  0.25012451  0.74763930  1
  V  V28  1  0.00933867  0.74414891  0.25789948  1
  V  V29  1  0.76169782  0.62196319  0.37168649  1
  V  V30  1  0.25363029  0.87649461  0.61886511  1
  V  V31  1  0.74928027  0.87541710  0.62371696  1
  V  V32  1  0.49852296  0.87463427  0.87159244  1
  V  V33  1  0.00091266  -0.00071606  -0.00295375  1
  V  V34  1  0.24661128  0.61714361  0.87699398  1
  V  V35  1  0.24699589  0.87814985  0.12920839  1
  V  V36  1  0.37668173  0.37558735  -0.00110579  1
  V  V37  1  0.24893165  0.25432026  0.50618761  1
  V  V38  1  0.61993846  0.75050458  0.87037464  1
  V  V39  1  0.00257657  0.75201677  0.75165987  1
  V  V40  1  0.49141952  0.12704978  0.62535461  1
  V  V41  1  0.37533471  0.62419475  0.25089964  1
  V  V42  1  0.11229857  0.25437135  0.87617549  1
  V  V43  1  0.12615323  -0.00202363  0.13615688  1
  V  V44  1  0.62399870  0.11916636  0.01431388  1
  V  V45  1  0.74697485  0.88194020  0.12783574  1
  V  V46  1  0.12719434  0.63084606  0.49965597  1
  V  V47  1  0.75181043  0.75030932  0.49814910  1
  V  V48  1  0.62225672  -0.00033052  0.62474778  1
  V  V49  1  0.50209029  0.63153187  0.63340190  1
  V  V50  1  0.37605817  0.75421055  0.62342296  1
  V  V51  1  0.75506822  0.49874030  0.75507175  1
  V  V52  1  0.24578276  0.63147257  0.37667733  1
  V  V53  1  0.50054475  0.49862869  -0.00060483  1
  V  V54  1  0.37197914  0.62393769  0.75076323  1
  V  V55  1  0.62521983  0.49784611  0.13608911  1
  V  V56  1  0.24999941  0.24621113  -0.00866545  1
  V  V57  1  0.12006999  0.00238899  0.62533511  1
  V  V58  1  0.12475156  0.50365523  0.11892901  1
  V  V59  1  0.62495939  0.62443170  0.00154514  1
  V  V60  1  0.75239181  0.25158277  -0.00003020  1
  V  V61  1  -0.00554043  0.12321245  0.12626499  1
  V  V62  1  0.49311682  -0.01265230  0.49775129  1
  V  V63  1  0.37473045  0.87693413  -0.00140022  1
  V  V64  1  0.74940948  0.37657703  0.12852271  1
  V  V65  1  0.62479729  0.37451767  0.75003000  1
  V  V66  1  0.13508568  0.37972132  0.75109548  1
  V  V67  1  -0.00563348  0.00192806  0.49689878  1
  V  V68  1  0.74879766  0.12603142  0.87309506  1
  V  V69  1  0.87638445  0.62133089  0.75738166  1
  V  V70  1  0.12629408  0.74795575  0.88196573  1
  V  V71  1  0.37442114  0.74971549  0.12378236  1
  V  V72  1  0.36976780  0.37456474  0.50495315  1
  V  V73  1  0.24871793  0.12162292  0.37008469  1
  V  V74  1  0.62540915  0.62566132  0.49950029  1
  V  V75  1  0.75053645  0.74847475  0.00226217  1
  V  V76  1  0.87596618  -0.00046697  0.87303218  1
  V  V77  1  0.62513774  0.50115554  0.62067989  1
  V  V78  1  0.12885694  0.12307381  -0.00724893  1
  V  V79  1  0.87532630  0.75172136  0.62439668  1
  V  V80  1  0.00009907  0.87579522  0.37564144  1
  V  V81  1  0.11872398  0.12718682  0.50287222  1
  V  V82  1  0.76150839  0.37253466  0.62258781  1
  V  V83  1  0.49893924  0.62449682  0.12659613  1
  V  V84  1  -0.00273845  0.49851650  -0.01167442  1
  Zn  Zn85  1  0.24841833  0.50006396  0.24854915  1
  Zn  Zn86  1  0.25120389  0.75866013  0.49532638  1
  Zn  Zn87  1  -0.01454318  0.49539964  0.49214472  1
  Zn  Zn88  1  0.76733785  -0.00162170  0.25494659  1
  Zn  Zn89  1  0.37758205  0.01048066  0.87965065  1
  Zn  Zn90  1  0.49975803  0.49859958  0.50061643  1
  Zn  Zn91  1  0.49925580  0.37637702  0.87295535  1
  Zn  Zn92  1  0.12786099  0.87653302  0.75171859  1
  Zn  Zn93  1  0.37356231  0.49905476  0.86910636  1
  Zn  Zn94  1  0.00123628  0.87491122  0.87449098  1
  Zn  Zn95  1  0.62376779  0.24979504  0.87645165  1
  Zn  Zn96  1  0.87232058  0.88122396  0.49384812  1
  Zn  Zn97  1  0.50618940  0.00043951  0.01004429  1
  Zn  Zn98  1  0.13087391  0.87334836  0.26120210  1
  Zn  Zn99  1  0.87536225  0.24919737  0.12439814  1
  Zn  Zn100  1  -0.01877271  0.38058118  0.37947169  1
  Zn  Zn101  1  0.38231079  0.24178315  0.12084593  1
  Zn  Zn102  1  0.24297934  0.74580431  0.00197071  1
  Zn  Zn103  1  0.36703073  0.25824820  0.62910943  1
  Zn  Zn104  1  0.36439221  0.13585627  0.76358910  1
  Zn  Zn105  1  0.49889464  0.75430173  0.25476329  1
  Zn  Zn106  1  0.61980718  0.87296544  0.74863322  1
  Zn  Zn107  1  0.18547363  0.18327624  0.18369559  1
  Zn  Zn108  1  0.18120984  0.18794034  0.68862911  1
  Zn  Zn109  1  0.18904573  0.68527334  0.18734962  1
  Zn  Zn110  1  0.19147477  0.68828376  0.69062144  1
  Zn  Zn111  1  0.68851469  0.18905462  0.19164380  1
  Zn  Zn112  1  0.68597033  0.18560067  0.68440876  1
  Zn  Zn113  1  0.68779897  0.68674787  0.19081626  1
  Zn  Zn114  1  0.68942209  0.68865047  0.68890652  1
  Zn  Zn115  1  0.31307845  0.30973255  0.31397521  1
  Zn  Zn116  1  0.31211385  0.31234447  0.81395816  1
  Zn  Zn117  1  0.31288617  0.81109756  0.30963892  1
  Zn  Zn118  1  0.31188704  0.81069350  0.80727209  1
  Zn  Zn119  1  0.80715255  0.30685637  0.30800815  1
  Zn  Zn120  1  0.81424768  0.31071692  0.80997007  1
  Zn  Zn121  1  0.81300253  0.81163262  0.31241008  1
  Zn  Zn122  1  0.81033842  0.81185816  0.81180830  1
  Zn  Zn123  1  0.18075808  0.44045185  0.43883451  1
  Zn  Zn124  1  0.18441985  0.43528395  0.93624607  1
  Zn  Zn125  1  0.18304348  0.94005035  0.43565155  1
  Zn  Zn126  1  0.18635946  0.93135758  0.93980817  1
  Zn  Zn127  1  0.81459307  0.43719633  0.43832886  1
  Zn  Zn128  1  0.68625786  0.43750985  0.93915078  1
  Zn  Zn129  1  0.68353384  0.93746709  0.43622773  1
  Zn  Zn130  1  0.68804955  0.93689984  0.93699245  1
  Zn  Zn131  1  0.31187633  0.05958214  0.06408325  1
  Zn  Zn132  1  0.30828728  0.06311527  0.56046899  1
  Zn  Zn133  1  0.31123738  0.56190208  0.05926930  1
  Zn  Zn134  1  0.31620394  0.56661584  0.56079713  1
  Zn  Zn135  1  0.81196537  0.06039372  0.06078644  1
  Zn  Zn136  1  0.80834836  0.06499961  0.55848901  1
  Zn  Zn137  1  0.81554929  0.56111834  0.06386471  1
  Zn  Zn138  1  0.81045376  0.56761802  0.56869106  1
  Zn  Zn139  1  0.43735313  0.43542615  0.18799224  1
  Zn  Zn140  1  0.43697623  0.44261551  0.68727279  1
  Zn  Zn141  1  0.43737668  0.94367043  0.18712663  1
  Zn  Zn142  1  0.43434172  0.93936737  0.68810463  1
  Zn  Zn143  1  0.93901596  0.43191884  0.18073048  1
  Zn  Zn144  1  0.94232246  0.43608451  0.69051872  1
  Zn  Zn145  1  0.94014674  0.92979364  0.18549753  1
  Zn  Zn146  1  0.93514263  0.93904926  0.68511126  1
  Zn  Zn147  1  -0.05495202  0.06199249  0.31214436  1
  Zn  Zn148  1  0.06161509  0.06772990  0.80989118  1
  Zn  Zn149  1  0.06044826  0.56097946  0.31078448  1
  Zn  Zn150  1  0.06770565  0.56325368  0.81038427  1
  Zn  Zn151  1  0.55711004  0.06179225  0.31155702  1
  Zn  Zn152  1  0.55943783  0.05958699  0.81679371  1
  Zn  Zn153  1  0.56352046  0.56354485  0.31556150  1
  Zn  Zn154  1  0.56222236  0.56205657  0.81312833  1
  Zn  Zn155  1  0.43342254  0.18630470  0.43575508  1
  Zn  Zn156  1  0.44072285  0.18843506  0.93556260  1
  Zn  Zn157  1  0.43723561  0.68679336  0.44390560  1
  Zn  Zn158  1  0.43601319  0.68827159  0.93747420  1
  Zn  Zn159  1  0.94062720  0.19794523  0.44015629  1
  Zn  Zn160  1  0.93648464  0.18603270  0.93654403  1
  Zn  Zn161  1  0.94010872  0.68475315  0.44071620  1
  Zn  Zn162  1  0.93982006  0.68531237  0.94133394  1
  Zn  Zn163  1  0.06114342  0.31413621  0.06104378  1
  Zn  Zn164  1  0.06310065  0.31931563  0.56250267  1
  Zn  Zn165  1  0.06015189  0.81267857  0.06340337  1
  Zn  Zn166  1  0.06414379  0.81621712  0.56380881  1
  Zn  Zn167  1  0.56647298  0.31152032  0.06326492  1
  Zn  Zn168  1  0.56376092  0.31517546  0.55931689  1
  Zn  Zn169  1  0.56191394  0.81429178  0.06388990  1
  Zn  Zn170  1  0.56406332  0.80999955  0.56268929  1
  O  O171  1  0.11773355  0.11689737  0.11464794  1
  O  O172  1  0.12946153  0.11635548  0.61189059  1
  O  O173  1  0.11858692  0.61247362  0.12741728  1
  O  O174  1  0.12157325  0.61465165  0.62485096  1
  O  O175  1  0.63577474  0.12723852  0.11287058  1
  O  O176  1  0.61628806  0.12040865  0.61410995  1
  O  O177  1  0.62006186  0.61759794  0.12076632  1
  O  O178  1  0.62106130  0.62140664  0.62337373  1
  O  O179  1  0.37937314  0.38225710  0.38213439  1
  O  O180  1  0.37409322  0.37783175  0.88694112  1
  O  O181  1  0.36637874  0.89067282  0.37149168  1
  O  O182  1  0.38142018  0.86975641  0.88383856  1
  O  O183  1  0.87072890  0.36320296  0.37672923  1
  O  O184  1  0.86846768  0.37601568  0.88662687  1
  O  O185  1  0.89156751  0.86498406  0.37788668  1
  O  O186  1  0.87446122  0.88071413  0.88065543  1
  O  O187  1  0.26051230  0.01134654  0.38426376  1
  O  O188  1  0.24594042  -0.00709880  0.85907011  1
  O  O189  1  0.25923100  0.50672559  0.37395464  1
  O  O190  1  0.25002194  0.51308724  0.88029301  1
  O  O191  1  0.74860644  0.01753314  0.38167863  1
  O  O192  1  0.75564553  0.00754887  0.86803774  1
  O  O193  1  0.75263970  0.50459022  0.35914191  1
  O  O194  1  0.74192036  0.50607388  0.86193558  1
  O  O195  1  0.24221491  0.48969625  0.12157260  1
  O  O196  1  0.24234160  0.50566745  0.62843534  1
  O  O197  1  0.23964794  0.98789068  0.11897029  1
  O  O198  1  0.24200343  0.99493096  0.63006746  1
  O  O199  1  0.74511052  0.49718842  0.13428149  1
  O  O200  1  0.74268849  0.49431171  0.63667310  1
  O  O201  1  0.75588233  0.98500077  0.12690482  1
  O  O202  1  0.74205699  0.99642852  0.62674533  1
  O  O203  1  0.01297210  0.36474219  0.24348290  1
  O  O204  1  0.00916534  0.36047345  0.74541497  1
  O  O205  1  0.00469375  0.85972202  0.25504167  1
  O  O206  1  -0.00182827  0.86135160  0.75022026  1
  O  O207  1  0.48984938  0.36429040  0.26361339  1
  O  O208  1  0.50863604  0.36872653  0.74608046  1
  O  O209  1  0.51560652  0.87383326  0.24538948  1
  O  O210  1  0.49972657  0.88246063  0.76611331  1
  O  O211  1  0.48720252  0.13580965  0.25807396  1
  O  O212  1  0.50386840  0.13429006  0.74048812  1
  O  O213  1  0.49257283  0.62535768  0.24374159  1
  O  O214  1  0.49546254  0.62360496  0.73984991  1
  O  O215  1  1.00424054  0.13349368  0.23866778  1
  O  O216  1  0.99201230  0.14117953  0.75408551  1
  O  O217  1  1.00467544  0.63614138  0.23966277  1
  O  O218  1  0.99455613  0.63081233  0.74574462  1
  O  O219  1  0.36818106  0.25769470  0.00196678  1
  O  O220  1  0.36596353  0.25791595  0.49995511  1
  O  O221  1  0.37532307  0.75809470  0.01121472  1
  O  O222  1  0.36972280  0.74271868  0.51712978  1
  O  O223  1  0.86584822  0.25739018  -0.00002015  1
  O  O224  1  0.85697585  0.24107371  0.50321710  1
  O  O225  1  0.87049951  0.75335890  0.00820827  1
  O  O226  1  0.86932714  0.74867476  0.50878031  1
  O  O227  1  0.12991547  0.24644934  0.49355048  1
  O  O228  1  0.12938918  0.24601187  0.99347611  1
  O  O229  1  0.12841499  0.73442654  0.51046558  1
  O  O230  1  0.12069707  0.74967766  0.98679398  1
  O  O231  1  0.62849687  0.24167025  0.49246310  1
  O  O232  1  0.63898443  0.24428899  0.99806126  1
  O  O233  1  0.63168957  0.74547722  0.49214780  1
  O  O234  1  0.63130392  0.74354838  0.99492710  1
  O  O235  1  0.50032144  0.25887922  0.14053374  1
  O  O236  1  0.50075098  0.24358893  0.63185306  1
  O  O237  1  0.48933924  0.74336165  0.12585027  1
  O  O238  1  0.49413475  0.74007015  0.62098716  1
  O  O239  1  1.00366480  0.24004909  0.12983953  1
  O  O240  1  1.00696351  0.24736656  0.63411304  1
  O  O241  1  0.99476124  0.74155158  0.12980076  1
  O  O242  1  0.99810644  0.74004001  0.63375055  1
  O  O243  1  0.01130528  0.25077256  0.36434988  1
  O  O244  1  0.00961366  0.25173109  0.87385810  1
  O  O245  1  -0.00033951  0.74841794  0.36137084  1
  O  O246  1  0.00713212  0.74548221  0.86676135  1
  O  O247  1  0.50334771  0.25516182  0.36954986  1
  O  O248  1  0.50468864  0.25483190  0.85968243  1
  O  O249  1  0.51411034  0.74242273  0.37679683  1
  O  O250  1  0.51130207  0.75817933  0.88307297  1
  O  O251  1  0.24148271  0.13371859  0.49162336  1
  O  O252  1  0.23909202  0.13548880  1.00835650  1
  O  O253  1  0.24379884  0.62625057  0.49278252  1
  O  O254  1  0.25838448  0.63032652  0.98300188  1
  O  O255  1  0.73951432  0.13352902  0.49228880  1
  O  O256  1  0.74610218  0.13284792  0.99317739  1
  O  O257  1  0.74299782  0.63092881  0.49352830  1
  O  O258  1  0.74581151  0.62751343  0.99621004  1
  O  O259  1  0.25595938  0.36826882  0.00493340  1
  O  O260  1  0.25727738  0.36577870  0.49163574  1
  O  O261  1  0.25788961  0.86748008  0.00855755  1
  O  O262  1  0.24265979  0.87642945  0.51350953  1
  O  O263  1  0.75577173  0.36982993  0.00477394  1
  O  O264  1  0.74805804  0.36079241  0.50645829  1
  O  O265  1  0.75338741  0.86846867  0.00827357  1
  O  O266  1  0.75086553  0.86953184  0.50450755  1
  O  O267  1  0.12750084  0.48904246  0.23806143  1
  O  O268  1  0.12288339  0.48813331  0.74192692  1
  O  O269  1  0.12001778  0.99434853  0.23429846  1
  O  O270  1  0.13166063  1.00291279  0.74148226  1
  O  O271  1  0.62624409  0.50088908  0.23803568  1
  O  O272  1  0.63234728  0.49382203  0.74194232  1
  O  O273  1  0.62887935  0.98630996  0.25984630  1
  O  O274  1  0.63109573  1.00122667  0.74244660  1
  O  O275  1  0.37996035  0.01024424  0.26771853  1
  O  O276  1  0.36044085  0.00433510  0.75162216  1
  O  O277  1  0.37240294  0.50376678  0.25926540  1
  O  O278  1  0.37888561  0.51544625  0.75175760  1
  O  O279  1  0.87992295  0.00050016  0.24610714  1
  O  O280  1  0.87088191  0.01014887  0.75282372  1
  O  O281  1  0.86703981  0.50029435  0.24271269  1
  O  O282  1  0.86653242  0.50951623  0.74543260  1
  O  O283  1  0.13560170  0.36300145  0.36161987  1
  O  O284  1  0.12554738  0.36984663  0.86058124  1
  O  O285  1  0.11022383  0.87578707  0.37614971  1
  O  O286  1  0.12113955  0.86348718  0.87043572  1
  O  O287  1  0.61203498  0.36033834  0.38042091  1
  O  O288  1  0.62544147  0.37392008  0.86090054  1
  O  O289  1  0.63337039  0.86419508  0.36138185  1
  O  O290  1  0.61769001  0.86715536  0.87680771  1
  O  O291  1  0.36145697  0.12693127  0.14149498  1
  O  O292  1  0.38535594  0.12822306  0.62587967  1
  O  O293  1  0.37710486  0.63078323  0.12922444  1
  O  O294  1  0.38311482  0.62982071  0.63158754  1
  O  O295  1  0.89084341  0.12728396  0.11263116  1
  O  O296  1  0.86833575  0.12518654  0.63668014  1
  O  O297  1  0.88519046  0.63434235  0.12150486  1
  O  O298  1  0.88277327  0.63177868  0.63770452  1
  O  O299  1  0.24609190  0.26007814  0.11304752  1
  O  O300  1  0.24810475  0.24453314  0.61080967  1
  O  O301  1  0.25874374  0.75353169  0.12242817  1
  O  O302  1  0.25623687  0.76034079  0.62644292  1
  O  O303  1  0.75112243  0.25860771  0.11876194  1
  O  O304  1  0.74058129  0.25670957  0.61123821  1
  O  O305  1  0.75796733  0.75319553  0.12237236  1
  O  O306  1  0.75417596  0.75468047  0.61930034  1
  O  O307  1  0.24376772  0.24304758  0.38346957  1
  O  O308  1  0.23820354  0.25548082  0.88662264  1
  O  O309  1  0.25739496  0.73640677  0.37712264  1
  O  O310  1  0.24029488  0.74408816  0.87459106  1
  O  O311  1  0.74090789  0.23966036  0.38394106  1
  O  O312  1  0.75057975  0.24248616  0.88251196  1
  O  O313  1  0.74168056  0.74160118  0.37792721  1
  O  O314  1  0.74284718  0.74417795  0.88288101  1
  O  O315  1  0.00973704  0.12065813  0.00505761  1
  O  O316  1  0.01130823  0.11912875  0.49052196  1
  O  O317  1  -0.00312217  0.61033429  0.01102234  1
  O  O318  1  0.00942953  0.62352697  0.51117201  1
  O  O319  1  0.52358853  0.13442257  -0.00451974  1
  O  O320  1  0.50502434  0.12318162  0.50735232  1
  O  O321  1  0.50409358  0.61871234  0.00699198  1
  O  O322  1  0.50817310  0.62045786  0.51154285  1
  O  O323  1  0.49046717  0.37542715  0.48888320  1
  O  O324  1  0.49179745  0.37731028  1.00024145  1
  O  O325  1  0.50270424  0.88848523  0.50501431  1
  O  O326  1  0.49058028  0.87480932  0.99402752  1
  O  O327  1  1.00718968  0.38085280  0.49305636  1
  O  O328  1  0.99044256  0.38783254  1.00650443  1
  O  O329  1  0.99944483  0.88281072  0.49442783  1
  O  O330  1  0.99182071  0.88122955  0.99817071  1
  O  O331  1  0.49086332  0.49266844  0.37570752  1
  O  O332  1  0.49856162  0.49688581  0.88433357  1
  O  O333  1  0.48471297  1.00581191  0.38524307  1
  O  O334  1  0.49915926  0.98979617  0.88724537  1
  O  O335  1  1.01044823  0.49163675  0.37815973  1
  O  O336  1  1.00650210  0.50665753  0.89012528  1
  O  O337  1  0.99858317  0.99105732  0.38728638  1
  O  O338  1  0.99386396  1.00005405  0.87826678  1
  O  O339  1  0.00779971  0.00474598  0.11573107  1
  O  O340  1  0.01328108  -0.00657113  0.61738574  1
  O  O341  1  0.00704276  0.50736103  0.12212414  1
  O  O342  1  0.00561155  0.51351439  0.63004142  1
  O  O343  1  0.49096248  0.00889865  0.11864613  1
  O  O344  1  0.50121446  0.00880367  0.61860901  1
  O  O345  1  0.50692316  0.50236334  0.12057492  1
  O  O346  1  0.51048946  0.50992069  0.62450686  1
  O  O347  1  0.24329869  0.37226877  0.23891736  1
  O  O348  1  0.23403134  0.36546848  0.74725080  1
  O  O349  1  0.24564427  0.86664759  0.23453495  1
  O  O350  1  0.24874077  0.88772813  0.73901895  1
  O  O351  1  0.75340249  0.38734566  0.23854273  1
  O  O352  1  0.74352663  0.37952188  0.74388030  1
  O  O353  1  0.74331574  0.87639821  0.24391709  1
  O  O354  1  0.74888954  0.88337715  0.74260887  1
  O  O355  1  0.25524198  0.13303828  0.26201332  1
  O  O356  1  0.24760935  0.11139562  0.74367621  1
  O  O357  1  0.25592584  0.62190472  0.25895288  1
  O  O358  1  0.25925514  0.62800653  0.76351175  1
  O  O359  1  0.74646911  0.12477872  0.26850883  1
  O  O360  1  0.75709359  0.12378242  0.75532043  1
  O  O361  1  0.74715084  0.60984341  0.25543665  1
  O  O362  1  0.75784133  0.61766585  0.75407469  1
  O  O363  1  0.36425426  0.12258032  0.36817510  1
  O  O364  1  0.37521458  0.12347642  0.87529628  1
  O  O365  1  0.36970568  0.61635526  0.37295663  1
  O  O366  1  0.36657067  0.62724077  0.86754962  1
  O  O367  1  0.86642990  0.12896783  0.37703672  1
  O  O368  1  0.86435065  0.12052902  0.86954773  1
  O  O369  1  0.86034428  0.63206671  0.37665492  1
  O  O370  1  0.86921367  0.63110580  0.86394899  1
  O  O371  1  0.13240802  0.38001338  0.13022395  1
  O  O372  1  0.12540502  0.38988644  0.63432429  1
  O  O373  1  0.13253811  0.88172861  0.11929914  1
  O  O374  1  0.13318698  0.88498987  0.62923139  1
  O  O375  1  0.63926109  0.38584636  0.11636694  1
  O  O376  1  0.63127682  0.38295425  0.63233070  1
  O  O377  1  0.63574374  0.86504877  0.13942959  1
  O  O378  1  0.63034658  0.88082064  0.62747499  1
  O  O379  1  0.11997086  0.25484461  0.25439028  1
  O  O380  1  0.11460133  0.25658945  0.75521743  1
  O  O381  1  0.11231698  0.75126431  0.24371925  1
  O  O382  1  0.11493374  0.74874310  0.75715668  1
  O  O383  1  0.61416138  0.24170992  0.26252432  1
  O  O384  1  0.61927844  0.25932664  0.74698950  1
  O  O385  1  0.62347176  0.75519353  0.25830592  1
  O  O386  1  0.63188748  0.75183017  0.76581594  1
  O  O387  1  0.38134684  0.24199528  0.24905427  1
  O  O388  1  0.38460016  0.25313731  0.74575662  1
  O  O389  1  0.37849632  0.74435739  0.24031122  1
  O  O390  1  0.37285059  0.73785395  0.73688350  1
  O  O391  1  0.89072470  0.25461359  0.24355855  1
  O  O392  1  0.88854409  0.24640269  0.75118907  1
  O  O393  1  0.88687676  0.75361108  0.23804105  1
  O  O394  1  0.88202217  0.74143116  0.74604219  1
  O  O395  1  0.37499300  0.49343344  0.49035075  1
  O  O396  1  0.38174026  0.48967801  1.00036472  1
  O  O397  1  0.38069496  1.00728548  0.48852841  1
  O  O398  1  0.36860314  0.98512315  0.99717029  1
  O  O399  1  0.87266361  0.50469212  0.50485833  1
  O  O400  1  0.88771736  0.49428801  1.00317022  1
  O  O401  1  0.88986311  1.00150918  0.51061661  1
  O  O402  1  0.88007693  0.99426706  0.99253686  1
  O  O403  1  0.12088411  0.00834001  0.00016485  1
  O  O404  1  0.11728784  0.00940192  0.50615770  1
  O  O405  1  0.11061411  0.48801369  0.01027946  1
  O  O406  1  0.12826999  0.50931281  0.51775417  1
  O  O407  1  0.63087685  0.01626651  -0.00269108  1
  O  O408  1  0.61431828  0.00864521  0.50246951  1
  O  O409  1  0.62079767  0.50556745  0.00908933  1
  O  O410  1  0.62755519  0.50709262  0.51662291  1
  O  O411  1  0.36559041  0.37377036  0.11604125  1
  O  O412  1  0.38125763  0.37809807  0.60912667  1
  O  O413  1  0.36737615  0.86762826  0.12039845  1
  O  O414  1  0.36700478  0.86644526  0.63119637  1
  O  O415  1  0.86288919  0.37391161  0.11267049  1
  O  O416  1  0.85988969  0.37800138  0.63310917  1
  O  O417  1  0.86776680  0.86347566  0.11808527  1
  O  O418  1  0.86736730  0.86833906  0.62257813  1
  O  O419  1  0.13420364  0.13904492  0.38470180  1
  O  O420  1  0.12166325  0.13556798  0.88613854  1
  O  O421  1  0.13631307  0.61616525  0.38620722  1
  O  O422  1  0.13966816  0.63139249  0.86858196  1
  O  O423  1  0.62540245  0.13157415  0.38475148  1
  O  O424  1  0.64006640  0.12696522  0.87674177  1
  O  O425  1  0.63379172  0.63031120  0.38027616  1
  O  O426  1  0.62971333  0.63149978  0.88108367  1
