# generated using pymatgen
data_V85Zn86O256
_symmetry_space_group_name_H-M   'P 1'
_cell_length_a   16.95748870
_cell_length_b   16.94640957
_cell_length_c   16.95524229
_cell_angle_alpha   90.14718746
_cell_angle_beta   90.01250113
_cell_angle_gamma   89.93549561
_symmetry_Int_Tables_number   1
_chemical_formula_structural   V85Zn86O256
_chemical_formula_sum   'V85 Zn86 O256'
_cell_volume   4872.38409325
_cell_formula_units_Z   1
loop_
 _symmetry_equiv_pos_site_id
 _symmetry_equiv_pos_as_xyz
  1  'x, y, z'
loop_
 _atom_site_type_symbol
 _atom_site_label
 _atom_site_symmetry_multiplicity
 _atom_site_fract_x
 _atom_site_fract_y
 _atom_site_fract_z
 _atom_site_occupancy
  V  V0  1  0.25000493  0.12298890  0.87959894  1
  V  V1  1  0.12393598  0.74935738  0.37591927  1
  V  V2  1  0.86695427  0.49958150  0.38145472  1
  V  V3  1  0.87199684  0.37186634  0.01987702  1
  V  V4  1  -0.00424478  0.74490743  0.24981886  1
  V  V5  1  -0.00065888  0.62059453  0.12405311  1
  V  V6  1  0.62437801  0.75488541  0.87232741  1
  V  V7  1  0.49844734  0.13773778  0.62648871  1
  V  V8  1  0.12500658  0.62519381  0.50087444  1
  V  V9  1  0.75294728  0.25470687  0.01089219  1
  V  V10  1  0.24907769  -0.00324713  0.75139777  1
  V  V11  1  0.74977577  0.87619028  0.12295072  1
  V  V12  1  0.50010666  0.49936554  0.49920715  1
  V  V13  1  0.75247628  0.87426983  0.61578144  1
  V  V14  1  0.61923137  0.37083622  0.74635206  1
  V  V15  1  0.25009899  0.75086690  0.50120619  1
  V  V16  1  -0.00420522  0.25818582  0.25610183  1
  V  V17  1  0.49775761  0.74791403  0.25091752  1
  V  V18  1  0.62691483  0.12333624  0.50503581  1
  V  V19  1  0.00206243  0.49249576  -0.00295643  1
  V  V20  1  0.50227517  0.37459396  0.37402616  1
  V  V21  1  0.75048931  0.00364393  0.25482259  1
  V  V22  1  0.87170375  0.61905154  0.74763675  1
  V  V23  1  0.50007400  0.00170785  0.50523048  1
  V  V24  1  0.25524483  0.49510309  0.75577118  1
  V  V25  1  -0.00591192  0.13183476  0.12627120  1
  V  V26  1  -0.00150089  0.48369734  0.49578008  1
  V  V27  1  0.63801904  0.37281487  0.24838340  1
  V  V28  1  0.50277900  0.24802523  0.25059442  1
  V  V29  1  0.87444775  0.75173449  0.61552281  1
  V  V30  1  0.50063737  0.62596125  0.62529839  1
  V  V31  1  0.62971386  0.49830185  0.62960770  1
  V  V32  1  0.37198322  0.50030483  0.36738893  1
  V  V33  1  0.00040343  0.62630038  0.62554502  1
  V  V34  1  -0.00082914  0.25672957  0.75691694  1
  V  V35  1  0.11679354  0.75536369  0.87302816  1
  V  V36  1  0.37224042  0.88117946  0.49755437  1
  V  V37  1  0.62279258  -0.00079394  0.11978640  1
  V  V38  1  0.62447808  0.87755870  0.74403804  1
  V  V39  1  0.37336385  0.75151286  0.62544256  1
  V  V40  1  0.62131821  0.12334946  -0.00117454  1
  V  V41  1  0.50001761  0.49692845  -0.00764713  1
  V  V42  1  -0.00122404  0.13060141  0.62538915  1
  V  V43  1  0.12395480  0.87633227  0.24771982  1
  V  V44  1  0.87958099  0.87396250  -0.00683943  1
  V  V45  1  0.49752820  0.87905351  0.37521773  1
  V  V46  1  0.75411048  0.51785175  0.25147363  1
  V  V47  1  0.37486977  0.62362008  0.75820971  1
  V  V48  1  0.38933365  -0.00080825  0.87908659  1
  V  V49  1  0.74728105  0.00041793  0.74247872  1
  V  V50  1  0.62582040  0.62288191  -0.00170164  1
  V  V51  1  0.12906577  0.12912088  0.50090147  1
  V  V52  1  0.76195133  0.37311916  0.62448608  1
  V  V53  1  0.61857773  0.25094922  0.86965768  1
  V  V54  1  0.49874152  0.75757223  0.75274734  1
  V  V55  1  0.50032983  0.12092530  0.12419876  1
  V  V56  1  0.36098586  0.36977036  0.50414677  1
  V  V57  1  0.13360192  0.37938393  0.25420398  1
  V  V58  1  0.37298330  0.75155464  0.12300907  1
  V  V59  1  -0.00647200  -0.00190415  0.49992057  1
  V  V60  1  0.24941660  0.25225090  0.00707392  1
  V  V61  1  0.87480420  0.13155005  0.74648489  1
  V  V62  1  0.88003882  -0.00352635  0.87201834  1
  V  V63  1  0.37808525  0.37733933  -0.00446847  1
  V  V64  1  0.37600188  0.11822486  0.25770069  1
  V  V65  1  0.75109246  0.74912395  -0.00296265  1
  V  V66  1  0.87434760  0.74480127  0.12641837  1
  V  V67  1  0.37953877  0.13364964  0.75091557  1
  V  V68  1  0.87343037  0.12547485  0.25441211  1
  V  V69  1  0.37536385  0.24806599  0.12722562  1
  V  V70  1  0.87733361  0.49010162  0.87332846  1
  V  V71  1  0.38768262  0.88094566  -0.00423697  1
  V  V72  1  0.63298395  0.62776494  0.49208678  1
  V  V73  1  0.76294000  0.25069503  0.50083766  1
  V  V74  1  0.63074194  0.49348068  0.12332850  1
  V  V75  1  0.13152035  0.49511594  0.62751126  1
  V  V76  1  0.25101782  0.62173979  0.36778190  1
  V  V77  1  0.12062233  0.25755865  0.87923435  1
  V  V78  1  0.24991463  0.12976757  0.37916186  1
  V  V79  1  0.00137558  0.00037606  0.00097603  1
  V  V80  1  0.74965462  0.12640083  0.87434495  1
  V  V81  1  0.63207044  0.24340846  0.37702192  1
  V  V82  1  -0.00841713  0.87576861  0.37980216  1
  V  V83  1  0.75045148  0.61801373  0.86769029  1
  V  V84  1  0.25119738  -0.00125405  0.25560420  1
  Zn  Zn85  1  0.13615061  0.50345591  0.12903320  1
  Zn  Zn86  1  0.36931260  0.61569781  0.23965728  1
  Zn  Zn87  1  0.13454406  0.36836030  0.74648042  1
  Zn  Zn88  1  0.12971535  0.62386556  -0.00194168  1
  Zn  Zn89  1  0.24862941  0.62574562  0.87710469  1
  Zn  Zn90  1  0.12305171  0.12645522  0.00494305  1
  Zn  Zn91  1  0.12423988  0.00187824  0.12548791  1
  Zn  Zn92  1  0.35154297  0.25252020  0.62052546  1
  Zn  Zn93  1  0.50057020  0.62361926  0.12452195  1
  Zn  Zn94  1  0.75808416  0.75179441  0.48795082  1
  Zn  Zn95  1  0.24872541  0.75211203  -0.00464715  1
  Zn  Zn96  1  0.86580804  -0.00106662  0.38078388  1
  Zn  Zn97  1  -0.00706172  0.76168125  0.75493337  1
  Zn  Zn98  1  0.25858752  0.39248956  0.13352874  1
  Zn  Zn99  1  0.49369608  0.37420356  0.86522378  1
  Zn  Zn100  1  0.24943513  0.87779016  0.12055005  1
  Zn  Zn101  1  0.10759821  0.88254685  0.75364353  1
  Zn  Zn102  1  0.12464350  0.25698092  0.38167829  1
  Zn  Zn103  1  0.12380752  -0.00270077  0.62627915  1
  Zn  Zn104  1  0.63115739  0.74585846  0.36686187  1
  Zn  Zn105  1  0.24567622  0.87524608  0.62781665  1
  Zn  Zn106  1  0.62499030  0.87543945  0.25076239  1
  Zn  Zn107  1  0.18167555  0.18726200  0.19089327  1
  Zn  Zn108  1  0.18604460  0.18343348  0.68910849  1
  Zn  Zn109  1  0.18585975  0.68781937  0.18415467  1
  Zn  Zn110  1  0.18718897  0.68746642  0.69281362  1
  Zn  Zn111  1  0.68929955  0.18470832  0.18812447  1
  Zn  Zn112  1  0.68784038  0.19103467  0.68314595  1
  Zn  Zn113  1  0.68393254  0.68822051  0.18380907  1
  Zn  Zn114  1  0.68873562  0.68889956  0.68234238  1
  Zn  Zn115  1  0.31381920  0.31046610  0.31675902  1
  Zn  Zn116  1  0.30821252  0.31098038  0.81487144  1
  Zn  Zn117  1  0.31245212  0.81089895  0.31312823  1
  Zn  Zn118  1  0.30932612  0.81236256  0.81859557  1
  Zn  Zn119  1  0.82010452  0.31632668  0.31807417  1
  Zn  Zn120  1  0.80268358  0.31191513  0.81085623  1
  Zn  Zn121  1  0.80918588  0.81340916  0.31038168  1
  Zn  Zn122  1  0.81263659  0.81008085  0.80595749  1
  Zn  Zn123  1  0.18397454  0.43983148  0.43493924  1
  Zn  Zn124  1  0.18991552  0.43880108  0.93952982  1
  Zn  Zn125  1  0.18265995  0.94113628  0.43671293  1
  Zn  Zn126  1  0.19148628  0.93160904  0.93783412  1
  Zn  Zn127  1  0.69008175  0.43429158  0.43832647  1
  Zn  Zn128  1  0.69039403  0.43326130  0.93485226  1
  Zn  Zn129  1  0.67998380  0.93710990  0.43520584  1
  Zn  Zn130  1  0.69090226  0.93840524  0.93373641  1
  Zn  Zn131  1  0.31238843  0.05911968  0.06715263  1
  Zn  Zn132  1  0.31358850  0.06319199  0.56587723  1
  Zn  Zn133  1  0.31219118  0.56501968  0.05858911  1
  Zn  Zn134  1  0.31281802  0.56284299  0.56354770  1
  Zn  Zn135  1  0.81168817  0.06592963  0.06406010  1
  Zn  Zn136  1  0.81223176  0.06717170  0.56291637  1
  Zn  Zn137  1  0.81230217  0.55930486  0.05952995  1
  Zn  Zn138  1  0.81319115  0.55911530  0.56168945  1
  Zn  Zn139  1  0.44513776  0.43345292  0.18241748  1
  Zn  Zn140  1  0.43651808  0.43717953  0.68414714  1
  Zn  Zn141  1  0.43797220  0.93564288  0.18625517  1
  Zn  Zn142  1  0.43410296  0.94293953  0.68631399  1
  Zn  Zn143  1  0.93626770  0.43965072  0.19289967  1
  Zn  Zn144  1  0.94228536  0.43922778  0.68680198  1
  Zn  Zn145  1  0.93557846  0.93708655  0.18597635  1
  Zn  Zn146  1  0.93539569  0.93846717  0.68219880  1
  Zn  Zn147  1  0.06136478  0.06397723  0.31516547  1
  Zn  Zn148  1  0.06350327  0.06740789  0.81591058  1
  Zn  Zn149  1  0.05929062  0.56143478  0.31466786  1
  Zn  Zn150  1  0.06379070  0.56517116  0.81366373  1
  Zn  Zn151  1  0.56367225  0.05903902  0.31518355  1
  Zn  Zn152  1  0.56371805  0.06474065  0.80787911  1
  Zn  Zn153  1  0.56086673  0.56142245  0.30924484  1
  Zn  Zn154  1  0.56281202  0.56306272  0.81000842  1
  Zn  Zn155  1  0.43942315  0.18928031  0.43729118  1
  Zn  Zn156  1  0.43715803  0.18821088  0.93864112  1
  Zn  Zn157  1  0.43738153  0.68811359  0.43581229  1
  Zn  Zn158  1  0.44067648  0.68930406  0.94034182  1
  Zn  Zn159  1  0.94117437  0.18401258  0.43375256  1
  Zn  Zn160  1  0.93397222  0.18835028  0.93831999  1
  Zn  Zn161  1  0.93708239  0.67792632  0.43328131  1
  Zn  Zn162  1  0.93986607  0.68155056  0.93734629  1
  Zn  Zn163  1  0.06305702  0.31637781  0.07104620  1
  Zn  Zn164  1  0.06871949  0.30866270  0.56942279  1
  Zn  Zn165  1  0.06181084  0.81116500  0.05980072  1
  Zn  Zn166  1  0.06334434  0.81549061  0.56666651  1
  Zn  Zn167  1  0.56407219  0.31019029  0.06173790  1
  Zn  Zn168  1  0.56218501  0.31201643  0.56117625  1
  Zn  Zn169  1  0.56146644  0.81196250  0.06187082  1
  Zn  Zn170  1  0.56151875  0.81278127  0.56337612  1
  O  O171  1  0.11193357  0.12123574  0.12361881  1
  O  O172  1  0.11527658  0.11907650  0.61925910  1
  O  O173  1  0.11119923  0.62493343  0.12178712  1
  O  O174  1  0.11705116  0.61887099  0.62195476  1
  O  O175  1  0.62133445  0.11806006  0.11707640  1
  O  O176  1  0.61446559  0.13297265  0.61443197  1
  O  O177  1  0.62409368  0.61430235  0.11558133  1
  O  O178  1  0.62085476  0.61641510  0.61815046  1
  O  O179  1  0.38085664  0.38199902  0.38300687  1
  O  O180  1  0.37797792  0.36583819  0.89046107  1
  O  O181  1  0.38485881  0.86713734  0.38730116  1
  O  O182  1  0.37347570  0.88322161  0.88771851  1
  O  O183  1  0.88197899  0.39858551  0.36537942  1
  O  O184  1  0.86686598  0.38936084  0.86832808  1
  O  O185  1  0.88899362  0.87626378  0.37027397  1
  O  O186  1  0.86580509  0.88347963  0.88266797  1
  O  O187  1  0.24540550  0.00929806  0.36240084  1
  O  O188  1  0.25807737  0.00933433  0.87308026  1
  O  O189  1  0.26005009  0.51088194  0.38095868  1
  O  O190  1  0.24583949  0.50433616  0.85976943  1
  O  O191  1  0.74792864  -0.00818614  0.35999277  1
  O  O192  1  0.75940116  0.00563370  0.86438829  1
  O  O193  1  0.75732467  0.49975148  0.36752506  1
  O  O194  1  0.75822325  0.51241812  0.87930350  1
  O  O195  1  0.25040224  0.50506931  0.12896825  1
  O  O196  1  0.23960573  0.50915739  0.63556173  1
  O  O197  1  0.24459264  0.99892583  0.13996161  1
  O  O198  1  0.24950712  1.00178439  0.64001384  1
  O  O199  1  0.74126860  0.50615398  0.13746386  1
  O  O200  1  0.73940728  0.48437577  0.61257194  1
  O  O201  1  0.74163845  0.99660543  0.13009295  1
  O  O202  1  0.75886758  0.99257327  0.63638072  1
  O  O203  1  0.00473844  0.36142805  0.24373423  1
  O  O204  1  -0.00008841  0.35887250  0.74548592  1
  O  O205  1  0.00602011  0.86733314  0.25579347  1
  O  O206  1  -0.00659548  0.87559342  0.75189881  1
  O  O207  1  0.51212726  0.36763112  0.25507090  1
  O  O208  1  0.51224889  0.37899226  0.74865062  1
  O  O209  1  0.49816458  0.86883344  0.25944377  1
  O  O210  1  0.50830909  0.86684966  0.74213954  1
  O  O211  1  0.49389015  0.12695167  0.24711246  1
  O  O212  1  0.49161314  0.11804259  0.73746162  1
  O  O213  1  0.49519152  0.63487211  0.24828596  1
  O  O214  1  0.49510530  0.63378755  0.74474194  1
  O  O215  1  0.99453775  0.13116174  0.24389532  1
  O  O216  1  0.99271652  0.13014759  0.74496753  1
  O  O217  1  1.00520970  0.63755145  0.24196643  1
  O  O218  1  0.99145932  0.62451300  0.73707140  1
  O  O219  1  0.36826245  0.25458264  0.00700547  1
  O  O220  1  0.37696039  0.26662233  0.49515262  1
  O  O221  1  0.37846298  0.76173553  0.00635216  1
  O  O222  1  0.37114863  0.75768020  0.50593447  1
  O  O223  1  0.86564482  0.26152452  -0.00786182  1
  O  O224  1  0.86143964  0.24354292  0.49246002  1
  O  O225  1  0.87199322  0.75624977  0.00399158  1
  O  O226  1  0.87471087  0.73760556  0.51137747  1
  O  O227  1  0.11832183  0.23418370  0.49893252  1
  O  O228  1  0.13319970  0.25147281  0.99729080  1
  O  O229  1  0.12918679  0.74515037  0.49522363  1
  O  O230  1  0.12413575  0.74940440  0.98823329  1
  O  O231  1  0.62866801  0.24284418  0.49212203  1
  O  O232  1  0.63302718  0.24291711  0.99273271  1
  O  O233  1  0.62067674  0.73276656  0.50242465  1
  O  O234  1  0.62954557  0.74575412  0.99061786  1
  O  O235  1  0.49715780  0.24144501  0.13176927  1
  O  O236  1  0.49128618  0.23976060  0.61751850  1
  O  O237  1  0.49198316  0.75109748  0.13311665  1
  O  O238  1  0.49468800  0.74604366  0.63495956  1
  O  O239  1  1.00259488  0.23932890  0.13670958  1
  O  O240  1  1.00572204  0.23691039  0.63776371  1
  O  O241  1  0.99269765  0.74300663  0.12983712  1
  O  O242  1  0.99214842  0.73966256  0.62302677  1
  O  O243  1  0.00421078  0.24539612  0.35985252  1
  O  O244  1  0.01071620  0.24050464  0.86985614  1
  O  O245  1  0.00266740  0.75400426  0.36834409  1
  O  O246  1  0.01016110  0.74463228  0.87419425  1
  O  O247  1  0.51129915  0.25454236  0.36949560  1
  O  O248  1  0.51485043  0.25263385  0.88154616  1
  O  O249  1  0.50112542  0.75633197  0.36597479  1
  O  O250  1  0.51319426  0.74523876  0.86383961  1
  O  O251  1  0.24133729  0.11275216  0.49083518  1
  O  O252  1  0.25227812  0.13233632  0.99442375  1
  O  O253  1  0.24505966  0.63066058  0.49217708  1
  O  O254  1  0.24884376  0.63248416  0.99407999  1
  O  O255  1  0.74017369  0.13974768  0.50967666  1
  O  O256  1  0.74321789  0.13245266  0.99404942  1
  O  O257  1  0.73482458  0.62297591  0.50417774  1
  O  O258  1  0.74596427  0.62989977  0.98952464  1
  O  O259  1  0.25954155  0.36582023  0.00268756  1
  O  O260  1  0.26267916  0.38114633  0.49523738  1
  O  O261  1  0.26323969  0.87129391  0.00407965  1
  O  O262  1  0.25692128  0.87118325  0.49699740  1
  O  O263  1  0.75901222  0.36663977  -0.00355147  1
  O  O264  1  0.74515798  0.36188750  0.51059528  1
  O  O265  1  0.75904473  0.86963483  0.00298216  1
  O  O266  1  0.73949361  0.87770957  0.51364275  1
  O  O267  1  0.11272604  0.48305526  0.25023586  1
  O  O268  1  0.13595961  0.50045426  0.74447872  1
  O  O269  1  0.12965315  0.99016311  0.25141288  1
  O  O270  1  0.13726363  1.00301923  0.75547489  1
  O  O271  1  0.63414580  0.49341432  0.24530911  1
  O  O272  1  0.62285141  0.49343346  0.73640810  1
  O  O273  1  0.63321750  1.00098935  0.23940835  1
  O  O274  1  0.63712207  0.99045635  0.75760932  1
  O  O275  1  0.36699397  0.00950570  0.24462938  1
  O  O276  1  0.36889960  0.00909804  0.75981274  1
  O  O277  1  0.38525711  0.49709750  0.26325247  1
  O  O278  1  0.36463750  0.50890861  0.74204347  1
  O  O279  1  0.86571204  0.00496265  0.24928594  1
  O  O280  1  0.86727347  0.00920707  0.75630682  1
  O  O281  1  0.85729137  0.50122267  0.25190234  1
  O  O282  1  0.88218868  0.51196687  0.75682627  1
  O  O283  1  0.12853595  0.37256980  0.36173052  1
  O  O284  1  0.13338280  0.36043070  0.87201600  1
  O  O285  1  0.11552022  0.86882088  0.36647079  1
  O  O286  1  0.12689104  0.86119987  0.87268012  1
  O  O287  1  0.62157714  0.36684531  0.36811965  1
  O  O288  1  0.62826211  0.36742866  0.86257766  1
  O  O289  1  0.60870125  0.87030198  0.37347859  1
  O  O290  1  0.63611722  0.86271715  0.86245965  1
  O  O291  1  0.38119350  0.12821174  0.13463383  1
  O  O292  1  0.37979771  0.12993473  0.63376313  1
  O  O293  1  0.38046828  0.63788844  0.12359421  1
  O  O294  1  0.38168123  0.63169365  0.63281460  1
  O  O295  1  0.88472921  0.12012195  0.13661664  1
  O  O296  1  0.88380225  0.12268189  0.63773144  1
  O  O297  1  0.88137920  0.63754223  0.11699477  1
  O  O298  1  0.87952320  0.62702279  0.63003396  1
  O  O299  1  0.25527051  0.24380538  0.11587765  1
  O  O300  1  0.24243916  0.26026948  0.63703801  1
  O  O301  1  0.26274815  0.75388895  0.12717428  1
  O  O302  1  0.25557864  0.74978850  0.61890887  1
  O  O303  1  0.74481372  0.24583112  0.11004737  1
  O  O304  1  0.74956454  0.26088145  0.61276281  1
  O  O305  1  0.75653041  0.75341973  0.11817063  1
  O  O306  1  0.75731613  0.75671350  0.61862915  1
  O  O307  1  0.24658612  0.23386428  0.37163590  1
  O  O308  1  0.24400025  0.24147319  0.88665573  1
  O  O309  1  0.24444015  0.74252695  0.38136638  1
  O  O310  1  0.23637605  0.74609199  0.87363206  1
  O  O311  1  0.74186644  0.25862653  0.38849557  1
  O  O312  1  0.73830462  0.24365099  0.88122749  1
  O  O313  1  0.74306931  0.75763896  0.37773523  1
  O  O314  1  0.74386333  0.74033040  0.87676486  1
  O  O315  1  -0.00398916  0.11760475  0.00889661  1
  O  O316  1  0.00590684  0.11998941  0.50723329  1
  O  O317  1  -0.00179019  0.61210154  0.00985658  1
  O  O318  1  0.00639804  0.61767903  0.51048344  1
  O  O319  1  0.51381166  0.13057523  0.00653866  1
  O  O320  1  0.50378623  0.11999717  0.50554041  1
  O  O321  1  0.50827984  0.61491992  -0.00117778  1
  O  O322  1  0.50464485  0.61554011  0.50484510  1
  O  O323  1  0.49986357  0.38645946  0.49325432  1
  O  O324  1  0.49480762  0.37999724  0.99953754  1
  O  O325  1  0.49415328  0.88178003  0.49711741  1
  O  O326  1  0.48769169  0.87488924  1.00040865  1
  O  O327  1  1.00498027  0.38551189  0.50748392  1
  O  O328  1  0.98971763  0.38452533  1.00833888  1
  O  O329  1  1.00683712  0.88509833  0.49117146  1
  O  O330  1  0.98667208  0.88488867  1.00586625  1
  O  O331  1  0.49368853  0.49616780  0.38222234  1
  O  O332  1  0.51093823  0.49490492  0.88780268  1
  O  O333  1  0.50212297  0.99038234  0.38735449  1
  O  O334  1  0.48845652  1.00608694  0.87228074  1
  O  O335  1  1.00122259  0.49911077  0.39331036  1
  O  O336  1  0.98919262  0.50709385  0.88654620  1
  O  O337  1  0.99906379  0.99134088  0.38227018  1
  O  O338  1  0.98706257  1.00979667  0.88481299  1
  O  O339  1  -0.00091544  0.00701561  0.11568665  1
  O  O340  1  -0.00134550  0.01132737  0.61682797  1
  O  O341  1  -0.00504189  0.50999774  0.11968194  1
  O  O342  1  0.00600633  0.50800573  0.61634437  1
  O  O343  1  0.51447443  0.00466941  0.13060354  1
  O  O344  1  0.49601660  0.01011502  0.61161361  1
  O  O345  1  0.51377959  0.50116718  0.11586248  1
  O  O346  1  0.50836295  0.50471781  0.61596897  1
  O  O347  1  0.23863904  0.36737066  0.24986508  1
  O  O348  1  0.25512428  0.39109584  0.75202195  1
  O  O349  1  0.24086902  0.88163652  0.25366289  1
  O  O350  1  0.25533811  0.89030272  0.75242298  1
  O  O351  1  0.73938243  0.37889790  0.25525741  1
  O  O352  1  0.73711503  0.36788547  0.73135770  1
  O  O353  1  0.74785276  0.88449912  0.23857020  1
  O  O354  1  0.74483312  0.88135843  0.74041390  1
  O  O355  1  0.25637866  0.11876481  0.25680831  1
  O  O356  1  0.25828577  0.11773452  0.76336972  1
  O  O357  1  0.25075220  0.63197207  0.26388476  1
  O  O358  1  0.26095880  0.61754520  0.75101821  1
  O  O359  1  0.75982166  0.11527606  0.24346462  1
  O  O360  1  0.75501207  0.11979827  0.75068744  1
  O  O361  1  0.74300690  0.61623346  0.25309695  1
  O  O362  1  0.75782540  0.62879128  0.75656768  1
  O  O363  1  0.36975328  0.12887723  0.36430797  1
  O  O364  1  0.36925392  0.11945378  0.87280242  1
  O  O365  1  0.36747705  0.61689443  0.37455952  1
  O  O366  1  0.37882660  0.63099039  0.86063021  1
  O  O367  1  0.88051725  0.11791155  0.35912594  1
  O  O368  1  0.86854040  0.11583598  0.86739179  1
  O  O369  1  0.88783273  0.60076734  0.36830266  1
  O  O370  1  0.86770625  0.61900464  0.86695730  1
  O  O371  1  0.13171533  0.37751925  0.13949914  1
  O  O372  1  0.12005977  0.39066484  0.63055145  1
  O  O373  1  0.12385135  0.87417912  0.13814892  1
  O  O374  1  0.12909319  0.88005886  0.63358297  1
  O  O375  1  0.62155265  0.38330590  0.13468853  1
  O  O376  1  0.62669588  0.38098395  0.62907072  1
  O  O377  1  0.63117515  0.88430260  0.12079443  1
  O  O378  1  0.63451816  0.86783188  0.63736593  1
  O  O379  1  0.11347346  0.25913067  0.25217482  1
  O  O380  1  0.11600628  0.24767334  0.76240188  1
  O  O381  1  0.11574536  0.75748206  0.25483574  1
  O  O382  1  0.11911820  0.75050997  0.76116725  1
  O  O383  1  0.62477440  0.25328467  0.25713282  1
  O  O384  1  0.62797556  0.25595267  0.75821697  1
  O  O385  1  0.61161062  0.75374823  0.24559674  1
  O  O386  1  0.61899059  0.75585846  0.75376228  1
  O  O387  1  0.38243528  0.24101392  0.24682853  1
  O  O388  1  0.37310138  0.23545952  0.75704203  1
  O  O389  1  0.38297184  0.75190342  0.24075302  1
  O  O390  1  0.38270776  0.74676013  0.74687009  1
  O  O391  1  0.88672119  0.24357247  0.25535378  1
  O  O392  1  0.88157060  0.23749823  0.76329402  1
  O  O393  1  0.88475350  0.75870422  0.23672503  1
  O  O394  1  0.87470279  0.73658740  0.73841946  1
  O  O395  1  0.38359851  0.49310670  0.49296262  1
  O  O396  1  0.38883454  0.48879431  1.00694554  1
  O  O397  1  0.38192274  0.98908381  0.50296371  1
  O  O398  1  0.37319310  0.98985543  0.99562862  1
  O  O399  1  0.88577901  0.49975662  0.49254522  1
  O  O400  1  0.87873199  0.48932422  0.99322630  1
  O  O401  1  0.88753114  1.00967821  0.49722480  1
  O  O402  1  0.87848729  0.99360548  0.99216285  1
  O  O403  1  0.11133303  -0.00129485  -0.00175477  1
  O  O404  1  0.11256286  0.01045334  0.50061870  1
  O  O405  1  0.11268130  0.49799490  0.00273673  1
  O  O406  1  0.11635531  0.50418669  0.50738631  1
  O  O407  1  0.63542935  0.01166328  0.00645164  1
  O  O408  1  0.61649851  0.01449047  0.49549787  1
  O  O409  1  0.62323344  0.50027240  0.00653825  1
  O  O410  1  0.61759576  0.50724982  0.50484603  1
  O  O411  1  0.37618918  0.36531638  0.11741596  1
  O  O412  1  0.38003362  0.37506706  0.60686742  1
  O  O413  1  0.37533183  0.87003319  0.11410369  1
  O  O414  1  0.37214204  0.86990092  0.61515089  1
  O  O415  1  0.87143339  0.37786343  0.11841122  1
  O  O416  1  0.86018371  0.38191233  0.62926539  1
  O  O417  1  0.87004755  0.86555173  0.11392365  1
  O  O418  1  0.86475916  0.86251357  0.62696565  1
  O  O419  1  0.13237281  0.12598031  0.38348317  1
  O  O420  1  0.13626099  0.13365340  0.88181653  1
  O  O421  1  0.13117876  0.62894409  0.37996829  1
  O  O422  1  0.12574327  0.63649492  0.87752200  1
  O  O423  1  0.62071014  0.13618082  0.38445691  1
  O  O424  1  0.62882245  0.13011459  0.88030934  1
  O  O425  1  0.61918621  0.62253517  0.38951662  1
  O  O426  1  0.63343708  0.63270356  0.87560924  1
