# generated using pymatgen
data_V85Zn86O256
_symmetry_space_group_name_H-M   'P 1'
_cell_length_a   16.97293026
_cell_length_b   16.96094631
_cell_length_c   16.96971460
_cell_angle_alpha   90.14012934
_cell_angle_beta   90.09307656
_cell_angle_gamma   89.84228735
_symmetry_Int_Tables_number   1
_chemical_formula_structural   V85Zn86O256
_chemical_formula_sum   'V85 Zn86 O256'
_cell_volume   4885.15032019
_cell_formula_units_Z   1
loop_
 _symmetry_equiv_pos_site_id
 _symmetry_equiv_pos_as_xyz
  1  'x, y, z'
loop_
 _atom_site_type_symbol
 _atom_site_label
 _atom_site_symmetry_multiplicity
 _atom_site_fract_x
 _atom_site_fract_y
 _atom_site_fract_z
 _atom_site_occupancy
  V  V0  1  0.24829630  0.62652578  0.87124675  1
  V  V1  1  0.49654911  0.37769520  0.88106458  1
  V  V2  1  0.75116261  0.87219249  0.61934834  1
  V  V3  1  0.13297487  0.25122501  0.87537612  1
  V  V4  1  0.62673991  0.87690099  0.24981412  1
  V  V5  1  0.49980643  0.75256950  0.75153039  1
  V  V6  1  0.74873623  0.37379941  0.62685143  1
  V  V7  1  0.88356357  0.12722460  0.23782994  1
  V  V8  1  0.37725643  0.13117087  0.24457714  1
  V  V9  1  0.75287685  0.50861653  0.75495071  1
  V  V10  1  0.87565516  0.37612765  0.49937003  1
  V  V11  1  0.37415619  0.87558458  0.49659407  1
  V  V12  1  0.24998086  0.12347000  0.87657381  1
  V  V13  1  0.87034647  0.74992953  0.12216153  1
  V  V14  1  0.49776901  0.87719830  0.87945387  1
  V  V15  1  0.36773086  0.12321966  0.75036188  1
  V  V16  1  0.00023396  0.74946909  0.25078381  1
  V  V17  1  0.87637802  0.73127265  0.62825962  1
  V  V18  1  0.12962001  0.49451747  0.12889988  1
  V  V19  1  0.12255750  0.11926723  0.50570902  1
  V  V20  1  -0.01202258  0.73806269  0.75882994  1
  V  V21  1  0.12634684  0.39000191  0.74912717  1
  V  V22  1  0.62029900  0.50123111  0.62417205  1
  V  V23  1  0.35729434  0.37108337  0.00189597  1
  V  V24  1  0.62189411  0.37707898  0.75164904  1
  V  V25  1  0.12370073  0.62827007  0.00339434  1
  V  V26  1  0.50246848  0.86987102  0.37059507  1
  V  V27  1  0.62072183  0.00089503  0.62200693  1
  V  V28  1  0.49804812  0.25141346  0.75026694  1
  V  V29  1  0.24588612  0.25090452  0.50341840  1
  V  V30  1  0.37602020  0.75192822  0.62216324  1
  V  V31  1  0.75122163  0.87536082  0.11920847  1
  V  V32  1  -0.00177771  0.49997579  0.00146086  1
  V  V33  1  0.11983315  -0.00014863  0.12112334  1
  V  V34  1  0.37996939  0.63666299  0.24725810  1
  V  V35  1  0.62360068  0.62869197  -0.00132116  1
  V  V36  1  0.49784794  0.12757752  0.62089940  1
  V  V37  1  0.62602909  0.38190225  0.24884399  1
  V  V38  1  0.11421158  0.75945468  0.87921842  1
  V  V39  1  0.12521336  0.61963876  0.51817340  1
  V  V40  1  0.87534318  0.37278699  0.00801366  1
  V  V41  1  0.26390118  0.87135746  0.12205537  1
  V  V42  1  0.00236613  0.37472462  0.37425137  1
  V  V43  1  0.00067048  0.11534771  0.62313039  1
  V  V44  1  0.62157297  0.87601601  0.74699160  1
  V  V45  1  0.00421888  0.50325192  0.51119951  1
  V  V46  1  -0.00247346  0.37472014  0.87289752  1
  V  V47  1  0.48590703  0.49213378  0.49203089  1
  V  V48  1  0.49909671  0.00527694  0.49623503  1
  V  V49  1  0.11996072  0.12389135  -0.00293947  1
  V  V50  1  0.86414128  0.50361704  0.37242991  1
  V  V51  1  0.87977406  0.00029254  0.38353254  1
  V  V52  1  0.12782290  0.87382001  0.24804193  1
  V  V53  1  0.74700322  0.00138148  0.74879516  1
  V  V54  1  0.26524312  0.75288442  0.00458412  1
  V  V55  1  0.25214049  0.75188660  0.49830306  1
  V  V56  1  -0.00173024  0.62575738  0.12777467  1
  V  V57  1  0.12736030  0.74006680  0.37147602  1
  V  V58  1  0.25128450  0.00804369  0.24646668  1
  V  V59  1  0.37375457  0.00836004  0.36952049  1
  V  V60  1  0.88295353  -0.00320532  0.87408148  1
  V  V61  1  0.63022867  0.75062547  0.87713328  1
  V  V62  1  0.87534398  0.24926463  0.62562640  1
  V  V63  1  0.62574757  0.00368661  0.12340948  1
  V  V64  1  0.62218032  0.25037445  0.36536086  1
  V  V65  1  0.62586648  0.50831522  0.12625946  1
  V  V66  1  0.00455156  0.87888162  0.38288110  1
  V  V67  1  0.24326554  0.38632768  0.62833137  1
  V  V68  1  0.87501279  0.12615566  0.74970963  1
  V  V69  1  0.88028177  0.87434502  -0.00320845  1
  V  V70  1  0.62408829  0.25158426  0.87566462  1
  V  V71  1  0.37179674  0.62603850  0.75331610  1
  V  V72  1  0.86233160  0.62331624  0.25511446  1
  V  V73  1  0.36940075  0.50228368  0.87302682  1
  V  V74  1  0.75489359  0.25308702  0.00776654  1
  V  V75  1  0.12339626  0.24360124  0.37502567  1
  V  V76  1  0.37396181  -0.00106927  0.88030053  1
  V  V77  1  0.26216049  0.48882248  0.25180764  1
  V  V78  1  0.62730728  0.62629698  0.49002638  1
  V  V79  1  0.50062006  0.13931849  0.12488552  1
  V  V80  1  0.62542583  0.12721345  -0.00019390  1
  V  V81  1  0.74944047  0.12643591  0.87443034  1
  V  V82  1  0.74857194  0.24716230  0.49884626  1
  V  V83  1  0.35017032  0.25148350  0.11804903  1
  V  V84  1  0.37110464  0.25623917  0.62350022  1
  Zn  Zn85  1  0.76152021  0.74024248  0.49043386  1
  Zn  Zn86  1  0.22044709  0.94835282  0.68906754  1
  Zn  Zn87  1  0.49509682  -0.00020046  0.00168568  1
  Zn  Zn88  1  -0.01403095  0.25420385  0.22607048  1
  Zn  Zn89  1  0.63583321  0.73916898  0.36451162  1
  Zn  Zn90  1  0.00143261  0.25099513  0.74699683  1
  Zn  Zn91  1  0.88635742  0.87402415  0.50637270  1
  Zn  Zn92  1  0.10106845  0.87950450  0.75204683  1
  Zn  Zn93  1  0.75379061  0.12180407  0.37351844  1
  Zn  Zn94  1  0.07110262  -0.04826806  0.56855177  1
  Zn  Zn95  1  0.49735247  0.62261439  0.62223178  1
  Zn  Zn96  1  0.75587452  0.63535637  -0.11861248  1
  Zn  Zn97  1  0.87745906  0.50724979  0.87254372  1
  Zn  Zn98  1  0.76072887  0.37800576  0.13805947  1
  Zn  Zn99  1  0.49258867  0.50804784  0.00947163  1
  Zn  Zn100  1  0.00035749  -0.00044510  -0.00126238  1
  Zn  Zn101  1  0.62179451  0.12696555  0.49471301  1
  Zn  Zn102  1  0.50227353  0.74687530  0.23382374  1
  Zn  Zn103  1  0.47910538  0.37474692  0.36786694  1
  Zn  Zn104  1  0.75534842  0.00283922  0.25151467  1
  Zn  Zn105  1  0.12580951  0.37186131  0.24496494  1
  Zn  Zn106  1  0.26048314  0.61222395  0.37725361  1
  Zn  Zn107  1  0.15476997  0.20209430  0.16887326  1
  Zn  Zn108  1  0.18337347  0.19100126  0.68893356  1
  Zn  Zn109  1  0.19570864  0.68145833  0.18848404  1
  Zn  Zn110  1  0.20001451  0.74166830  0.70239371  1
  Zn  Zn111  1  0.69522118  0.18661549  0.19089160  1
  Zn  Zn112  1  0.68505926  0.18734577  0.68659295  1
  Zn  Zn113  1  0.68705027  0.69027396  0.18442818  1
  Zn  Zn114  1  0.68629260  0.68757509  0.68275185  1
  Zn  Zn115  1  0.30569237  0.30994967  0.31064708  1
  Zn  Zn116  1  0.30944028  0.31380949  0.80988496  1
  Zn  Zn117  1  0.31166022  0.81395174  0.31212213  1
  Zn  Zn118  1  0.31102582  0.81628840  0.81876194  1
  Zn  Zn119  1  0.81203718  0.31127289  0.31304541  1
  Zn  Zn120  1  0.81136322  0.31551354  0.81441266  1
  Zn  Zn121  1  0.81363073  0.81442081  0.31292954  1
  Zn  Zn122  1  0.81370197  0.81578587  0.80762556  1
  Zn  Zn123  1  0.18938367  0.43526107  0.43822567  1
  Zn  Zn124  1  0.18311361  0.44271334  0.93397330  1
  Zn  Zn125  1  0.19319941  0.93628267  0.43119589  1
  Zn  Zn126  1  0.19284593  0.93868553  0.93515692  1
  Zn  Zn127  1  0.68253629  0.43474268  0.43861551  1
  Zn  Zn128  1  0.68663822  0.44002005  0.94256905  1
  Zn  Zn129  1  0.69043018  0.93750384  0.43603891  1
  Zn  Zn130  1  0.68925921  0.93756553  0.93577227  1
  Zn  Zn131  1  0.30655064  0.06402064  0.06155844  1
  Zn  Zn132  1  0.30897920  0.06756410  0.55776719  1
  Zn  Zn133  1  0.31065455  0.55814053  0.06562741  1
  Zn  Zn134  1  0.30904626  0.56737173  0.56494098  1
  Zn  Zn135  1  0.81275388  0.06185053  0.06015887  1
  Zn  Zn136  1  0.81307766  0.06052158  0.56211461  1
  Zn  Zn137  1  0.80751730  0.56076558  0.06228842  1
  Zn  Zn138  1  0.80815525  0.55510933  0.55829608  1
  Zn  Zn139  1  0.44272190  0.42789518  0.18371425  1
  Zn  Zn140  1  0.43341735  0.43898653  0.68732120  1
  Zn  Zn141  1  0.44300941  0.93976086  0.18489882  1
  Zn  Zn142  1  0.40946726  0.95336496  0.67268575  1
  Zn  Zn143  1  0.94052547  0.44117235  0.19107470  1
  Zn  Zn144  1  0.93608214  0.43824164  0.68866690  1
  Zn  Zn145  1  0.93836804  0.93824642  0.19304196  1
  Zn  Zn146  1  0.93361032  0.92959287  0.69430531  1
  Zn  Zn147  1  0.06185824  0.06239246  0.31083424  1
  Zn  Zn148  1  0.06764456  0.06078257  0.80248284  1
  Zn  Zn149  1  0.05788577  0.55797633  0.31188593  1
  Zn  Zn150  1  0.06043998  0.56761702  0.81265991  1
  Zn  Zn151  1  0.56118174  0.06599891  0.31061708  1
  Zn  Zn152  1  0.55807653  0.06344741  0.81033056  1
  Zn  Zn153  1  0.55434039  0.55682156  0.31064319  1
  Zn  Zn154  1  0.55901825  0.56559327  0.81688485  1
  Zn  Zn155  1  0.42082579  0.21097566  0.42220982  1
  Zn  Zn156  1  0.43561985  0.18931213  0.94132054  1
  Zn  Zn157  1  0.44204303  0.67943163  0.43124655  1
  Zn  Zn158  1  0.44256433  0.68470458  1.06887410  1
  Zn  Zn159  1  0.93954446  0.18461557  0.43760364  1
  Zn  Zn160  1  0.93855172  0.18863257  0.93642282  1
  Zn  Zn161  1  0.94037995  0.68540615  0.43899914  1
  Zn  Zn162  1  0.93235325  0.68480407  0.94089948  1
  Zn  Zn163  1  0.06370019  0.31220096  0.05582077  1
  Zn  Zn164  1  0.06115391  0.31237287  0.56388203  1
  Zn  Zn165  1  0.06180546  0.81546116  0.06589630  1
  Zn  Zn166  1  0.06296221  0.79087745  0.57094477  1
  Zn  Zn167  1  0.56383449  0.31720234  0.06359919  1
  Zn  Zn168  1  0.56068283  0.31336347  0.55994120  1
  Zn  Zn169  1  0.56684549  0.81464804  0.05837541  1
  Zn  Zn170  1  0.55857622  0.81257804  0.56098555  1
  O  O171  1  0.14054758  0.10726344  0.10710471  1
  O  O172  1  0.11361535  0.12810902  0.61945130  1
  O  O173  1  0.11991332  0.62038052  0.11860993  1
  O  O174  1  0.13031294  0.63147284  0.61364562  1
  O  O175  1  0.62005785  0.12130665  0.12276585  1
  O  O176  1  0.61532973  0.11950332  0.62346616  1
  O  O177  1  0.62828717  0.61377531  0.12246070  1
  O  O178  1  0.62047002  0.61337097  0.61807656  1
  O  O179  1  0.38573600  0.31766977  0.38480057  1
  O  O180  1  0.37710921  0.38219465  0.87889161  1
  O  O181  1  0.38482108  0.88354361  0.37461995  1
  O  O182  1  0.38492542  0.88686136  0.86750065  1
  O  O183  1  0.88384374  0.38074237  0.37941094  1
  O  O184  1  0.88472669  0.37985169  0.88147127  1
  O  O185  1  0.88954606  0.88034235  0.37720128  1
  O  O186  1  0.86242270  0.88490149  0.88588728  1
  O  O187  1  0.26446186  -0.00661634  0.36004277  1
  O  O188  1  0.26071593  0.00916933  0.87376146  1
  O  O189  1  0.24395158  0.49684734  0.35762846  1
  O  O190  1  0.25644071  0.51461520  0.87913022  1
  O  O191  1  0.76368927  -0.00148936  0.37245167  1
  O  O192  1  0.75511451  0.00771429  0.86837896  1
  O  O193  1  0.76575102  0.49328463  0.38352230  1
  O  O194  1  0.74419288  0.49732975  0.85958914  1
  O  O195  1  0.23926052  0.50532926  0.13856772  1
  O  O196  1  0.25274206  0.48447797  0.62076344  1
  O  O197  1  0.24392201  0.98937788  0.12844764  1
  O  O198  1  0.30330645  0.98390889  0.62871234  1
  O  O199  1  0.73244681  0.49173404  0.11944704  1
  O  O200  1  0.73929911  0.49365497  0.63369130  1
  O  O201  1  0.74100416  0.99460422  0.12658636  1
  O  O202  1  0.74280251  0.99345245  0.62914559  1
  O  O203  1  0.00317548  0.37042706  0.26071625  1
  O  O204  1  0.00594423  0.37605104  0.75817576  1
  O  O205  1  0.00859841  0.86780069  0.25855645  1
  O  O206  1  -0.01029095  0.85218031  0.75326757  1
  O  O207  1  0.51857078  0.37672016  0.25621423  1
  O  O208  1  0.50061618  0.37173337  0.76064434  1
  O  O209  1  0.51007580  0.87780388  0.25572642  1
  O  O210  1  0.50429810  0.86767715  0.75456350  1
  O  O211  1  0.48747953  0.11893445  0.23626777  1
  O  O212  1  0.49178981  0.13398407  0.74341226  1
  O  O213  1  0.48647958  0.62740673  0.25175360  1
  O  O214  1  0.48842786  0.63545324  0.75304333  1
  O  O215  1  0.98759850  0.12827109  0.25473345  1
  O  O216  1  0.99309351  0.12796503  0.74050638  1
  O  O217  1  0.99252602  0.63159636  0.24461707  1
  O  O218  1  0.99398795  0.63647405  0.75407321  1
  O  O219  1  0.37310007  0.25852377  0.00629742  1
  O  O220  1  0.36031289  0.23809180  0.51836972  1
  O  O221  1  0.36181870  0.74191936  -0.00147860  1
  O  O222  1  0.37140546  0.74981146  0.50165467  1
  O  O223  1  0.86683894  0.25967439  -0.00736901  1
  O  O224  1  0.86696058  0.25531843  0.50393144  1
  O  O225  1  0.87892265  0.75852563  0.01474339  1
  O  O226  1  0.87884895  0.75096351  0.51487237  1
  O  O227  1  0.12752947  0.24163229  0.49688989  1
  O  O228  1  0.12231569  0.24083952  0.98217338  1
  O  O229  1  0.13250893  0.73611387  0.49218384  1
  O  O230  1  0.11969080  0.73904088  0.99725211  1
  O  O231  1  0.63570119  0.25197374  0.49355883  1
  O  O232  1  0.63303578  0.24796473  0.99419707  1
  O  O233  1  0.61819472  0.73093435  0.50259211  1
  O  O234  1  0.62354356  0.74476753  0.98635997  1
  O  O235  1  0.49894221  0.24040616  0.12269278  1
  O  O236  1  0.49060423  0.25006773  0.62938738  1
  O  O237  1  0.49503550  0.76528101  0.12404005  1
  O  O238  1  0.49447341  0.74453007  0.63417052  1
  O  O239  1  1.04986633  0.24096758  0.13754690  1
  O  O240  1  0.99096348  0.24165280  0.62577081  1
  O  O241  1  0.99101081  0.74629001  0.13178583  1
  O  O242  1  0.98286943  0.74240048  0.63701412  1
  O  O243  1  0.01030886  0.26068549  0.38217229  1
  O  O244  1  0.00673019  0.26313250  0.87275342  1
  O  O245  1  0.00978308  0.75728378  0.37096038  1
  O  O246  1  0.00116304  0.74449619  0.86970138  1
  O  O247  1  0.52425426  0.24746910  0.38453051  1
  O  O248  1  0.50300610  0.25846434  0.87058863  1
  O  O249  1  0.50606193  0.76402011  0.37202819  1
  O  O250  1  0.51155857  0.76168283  0.86158675  1
  O  O251  1  0.23592803  0.13847380  0.50865030  1
  O  O252  1  0.23855041  0.12127431  0.98403196  1
  O  O253  1  0.23945516  0.62887246  0.49376961  1
  O  O254  1  0.24131413  0.63467886  0.99649716  1
  O  O255  1  0.74801918  0.13688925  0.50080250  1
  O  O256  1  0.74618893  0.13406374  0.99471846  1
  O  O257  1  0.73161707  0.62245166  0.50336100  1
  O  O258  1  0.73113371  0.61970174  0.99903013  1
  O  O259  1  0.25850461  0.37956411  -0.00674878  1
  O  O260  1  0.23833539  0.36366225  0.51754618  1
  O  O261  1  0.24858786  0.85984923  0.00538626  1
  O  O262  1  0.25894184  0.86071504  0.49010484  1
  O  O263  1  0.76020640  0.36810262  -0.00237826  1
  O  O264  1  0.75483354  0.36750963  0.50704176  1
  O  O265  1  0.75985969  0.88149547  0.01242191  1
  O  O266  1  0.74648770  0.87236257  0.51458166  1
  O  O267  1  0.12965459  0.49910685  0.24161440  1
  O  O268  1  0.12248177  0.48947835  0.75689384  1
  O  O269  1  0.13395745  0.99669141  0.24328389  1
  O  O270  1  0.13335095  0.98871069  0.75076115  1
  O  O271  1  0.62546225  0.49181265  0.24159429  1
  O  O272  1  0.62689925  0.49632447  0.74242873  1
  O  O273  1  0.62600639  0.99442203  0.23886317  1
  O  O274  1  0.62735188  0.99648074  0.74240390  1
  O  O275  1  0.37044546  0.00788755  0.25087805  1
  O  O276  1  0.38583491  0.01719211  0.76607844  1
  O  O277  1  0.36422770  0.49436371  0.24408220  1
  O  O278  1  0.37752919  0.51311138  0.75968086  1
  O  O279  1  0.87799626  0.00868671  0.26134765  1
  O  O280  1  0.86596376  0.00493489  0.75672019  1
  O  O281  1  0.88063575  0.51074749  0.25964977  1
  O  O282  1  0.85591285  0.49443566  0.74898275  1
  O  O283  1  0.11422641  0.36545687  0.37956909  1
  O  O284  1  0.11935842  0.37009554  0.87007934  1
  O  O285  1  0.12213274  0.86480092  0.36897463  1
  O  O286  1  0.12357304  0.86048350  0.88384372  1
  O  O287  1  0.62765078  0.36489890  0.36495791  1
  O  O288  1  0.61402472  0.37230556  0.87284410  1
  O  O289  1  0.61647441  0.88377001  0.36264208  1
  O  O290  1  0.61986911  0.87187213  0.86679072  1
  O  O291  1  0.38049283  0.13344832  0.12374882  1
  O  O292  1  0.37908739  0.13592907  0.63481002  1
  O  O293  1  0.37498623  0.62000727  0.13729166  1
  O  O294  1  0.37548161  0.63340137  0.63594709  1
  O  O295  1  0.87707673  0.11510871  0.13833369  1
  O  O296  1  0.88057017  0.12922124  0.62953009  1
  O  O297  1  0.87748145  0.63176438  0.13075100  1
  O  O298  1  0.86419925  0.63338501  0.62227519  1
  O  O299  1  0.25178748  0.24610888  0.12149811  1
  O  O300  1  0.25376208  0.25685740  0.62236297  1
  O  O301  1  0.24498636  0.75502812  0.11152591  1
  O  O302  1  0.26333578  0.74199305  0.60712647  1
  O  O303  1  0.74563612  0.25392948  0.11030051  1
  O  O304  1  0.75371316  0.25410447  0.61845802  1
  O  O305  1  0.76096044  0.76211595  0.12942033  1
  O  O306  1  0.75947169  0.75585082  0.62448304  1
  O  O307  1  0.23087881  0.25735106  0.39136996  1
  O  O308  1  0.24189005  0.24016025  0.86912886  1
  O  O309  1  0.24219560  0.74710349  0.38175944  1
  O  O310  1  0.24004547  0.74420010  0.89156684  1
  O  O311  1  0.74276783  0.24949682  0.38630102  1
  O  O312  1  0.74331045  0.24598843  0.88181486  1
  O  O313  1  0.74332257  0.76553273  0.38287428  1
  O  O314  1  0.73344571  0.75271523  0.86122511  1
  O  O315  1  0.01497337  0.12068338  -0.00977501  1
  O  O316  1  0.00889272  0.12686506  0.51179270  1
  O  O317  1  0.00689188  0.62006820  0.00768644  1
  O  O318  1  0.01729526  0.61869977  0.49657643  1
  O  O319  1  0.50841141  0.12517344  0.00789406  1
  O  O320  1  0.49739740  0.12092628  0.50515784  1
  O  O321  1  0.51615552  0.62340976  0.00362432  1
  O  O322  1  0.50883638  0.61104448  0.50133694  1
  O  O323  1  0.50202378  0.38914240  0.49961155  1
  O  O324  1  0.49219831  0.37442719  0.98768968  1
  O  O325  1  0.49530269  0.88280944  0.48890532  1
  O  O326  1  0.50737732  0.87960302  0.98249528  1
  O  O327  1  0.99567947  0.38240559  0.49435117  1
  O  O328  1  0.99407673  0.37866844  0.99206151  1
  O  O329  1  1.00895429  0.87059786  0.49181907  1
  O  O330  1  0.98457151  0.87802877  1.00505075  1
  O  O331  1  0.49858090  0.49225463  0.38742848  1
  O  O332  1  0.48793007  0.49203783  0.87637309  1
  O  O333  1  0.49195421  0.99403153  0.37504967  1
  O  O334  1  0.49506535  0.99406974  0.87682409  1
  O  O335  1  0.99532053  0.48980613  0.38400241  1
  O  O336  1  1.00270633  0.48959384  0.88259158  1
  O  O337  1  0.99775675  0.98642390  0.37175059  1
  O  O338  1  0.98443051  1.00327627  0.86901558  1
  O  O339  1  0.01677914  -0.00790494  0.12564936  1
  O  O340  1  -0.00949389  0.00966754  0.62761179  1
  O  O341  1  0.00782381  0.50743662  0.12064582  1
  O  O342  1  -0.00450064  0.49570657  0.61032881  1
  O  O343  1  0.51169942  0.00821482  0.12033175  1
  O  O344  1  0.50026811  0.00647736  0.61620922  1
  O  O345  1  0.51903967  0.49088977  0.12392689  1
  O  O346  1  0.50707237  0.49845281  0.61896518  1
  O  O347  1  0.24538186  0.38442026  0.24875200  1
  O  O348  1  0.24006971  0.37284536  0.73916523  1
  O  O349  1  0.24617907  0.88155761  0.24136012  1
  O  O350  1  0.23309199  0.84605750  0.74564208  1
  O  O351  1  0.73533141  0.36948187  0.25102506  1
  O  O352  1  0.74045527  0.38163708  0.74557135  1
  O  O353  1  0.74251154  0.87973410  0.23818993  1
  O  O354  1  0.74205580  0.88161402  0.73886402  1
  O  O355  1  0.25907448  0.11019322  0.23914388  1
  O  O356  1  0.26016686  0.12981596  0.75706637  1
  O  O357  1  0.26346969  0.61331379  0.25201435  1
  O  O358  1  0.25926737  0.64663534  0.76391910  1
  O  O359  1  0.76587349  0.12217475  0.25362406  1
  O  O360  1  0.75400671  0.12110065  0.75402960  1
  O  O361  1  0.76346884  0.63178140  0.24818501  1
  O  O362  1  0.74089147  0.60974821  0.74987419  1
  O  O363  1  0.38216169  0.11689413  0.36046205  1
  O  O364  1  0.36807187  0.12399781  0.86948426  1
  O  O365  1  0.37452011  0.62467846  0.35706978  1
  O  O366  1  0.36449833  0.61727636  0.86911304  1
  O  O367  1  0.87711647  0.11333202  0.37252318  1
  O  O368  1  0.86872724  0.11802125  0.87011209  1
  O  O369  1  0.88246850  0.61668224  0.36711958  1
  O  O370  1  0.86633334  0.61865614  0.88294212  1
  O  O371  1  0.12125137  0.39231769  0.12153884  1
  O  O372  1  0.13353538  0.37029295  0.63550707  1
  O  O373  1  0.13514401  0.88099766  0.12910327  1
  O  O374  1  0.12200952  0.86987113  0.62762233  1
  O  O375  1  0.62776533  0.37809678  0.13807041  1
  O  O376  1  0.62782120  0.38261749  0.63061529  1
  O  O377  1  0.63284710  0.88468196  0.12876959  1
  O  O378  1  0.62865969  0.88000790  0.62807105  1
  O  O379  1  0.13411002  0.25014479  0.27247310  1
  O  O380  1  0.12085173  0.25894607  0.76160502  1
  O  O381  1  0.12334405  0.75261120  0.25450606  1
  O  O382  1  0.10418795  0.74688520  0.76464058  1
  O  O383  1  0.62916643  0.25511376  0.26071505  1
  O  O384  1  0.61853349  0.25680133  0.75531639  1
  O  O385  1  0.62337484  0.76426019  0.24751935  1
  O  O386  1  0.61583919  0.75437159  0.75081488  1
  O  O387  1  0.36312747  0.23566791  0.23516247  1
  O  O388  1  0.37863472  0.24338951  0.74420334  1
  O  O389  1  0.37346514  0.73979777  0.24798042  1
  O  O390  1  0.38248358  0.74596824  0.74360984  1
  O  O391  1  0.87537275  0.23496727  0.25339600  1
  O  O392  1  0.87366139  0.24428856  0.74433786  1
  O  O393  1  0.88093558  0.74506601  0.24229692  1
  O  O394  1  0.87687254  0.74590801  0.74094941  1
  O  O395  1  0.38809396  0.50681847  0.50651248  1
  O  O396  1  0.37518518  0.49218971  0.99196000  1
  O  O397  1  0.37914799  0.99826506  0.48400695  1
  O  O398  1  0.37701384  1.00952961  0.98565508  1
  O  O399  1  0.88394107  0.49651106  0.49262163  1
  O  O400  1  0.88085399  0.48965140  1.00030258  1
  O  O401  1  0.87422803  0.99436760  0.48948140  1
  O  O402  1  0.87751015  0.99468616  0.99116252  1
  O  O403  1  0.12261856  0.00305985  0.00277219  1
  O  O404  1  0.13536721  0.01243693  0.49538119  1
  O  O405  1  0.12131369  0.51181558  0.00635248  1
  O  O406  1  0.12139733  0.51295756  0.49682875  1
  O  O407  1  0.62841024  0.00838161  0.00951737  1
  O  O408  1  0.61719248  0.00279328  0.50400985  1
  O  O409  1  0.61939891  0.50459469  0.01029553  1
  O  O410  1  0.61863098  0.50624482  0.50741212  1
  O  O411  1  0.37820087  0.36194271  0.11358966  1
  O  O412  1  0.35920414  0.36489697  0.63645189  1
  O  O413  1  0.36274097  0.88118066  0.12766194  1
  O  O414  1  0.38913790  0.85559511  0.61278815  1
  O  O415  1  0.87915752  0.37695989  0.11373709  1
  O  O416  1  0.86901501  0.36935428  0.61927507  1
  O  O417  1  0.86924827  0.87065022  0.12136310  1
  O  O418  1  0.86348416  0.86761336  0.62427904  1
  O  O419  1  0.11358310  0.13796651  0.38648496  1
  O  O420  1  0.13213013  0.13076110  0.87512659  1
  O  O421  1  0.12560857  0.63595734  0.37047885  1
  O  O422  1  0.13055753  0.63189505  0.88536047  1
  O  O423  1  0.63167352  0.13553958  0.37279847  1
  O  O424  1  0.62881538  0.13134380  0.87867515  1
  O  O425  1  0.61790077  0.62193170  0.38604541  1
  O  O426  1  0.62649036  0.63394942  0.88035352  1
