# generated using pymatgen
data_V85Zn86O256
_symmetry_space_group_name_H-M   'P 1'
_cell_length_a   16.96374062
_cell_length_b   16.99170397
_cell_length_c   16.97202992
_cell_angle_alpha   90.03863991
_cell_angle_beta   90.04431307
_cell_angle_gamma   90.08339981
_symmetry_Int_Tables_number   1
_chemical_formula_structural   V85Zn86O256
_chemical_formula_sum   'V85 Zn86 O256'
_cell_volume   4892.05866380
_cell_formula_units_Z   1
loop_
 _symmetry_equiv_pos_site_id
 _symmetry_equiv_pos_as_xyz
  1  'x, y, z'
loop_
 _atom_site_type_symbol
 _atom_site_label
 _atom_site_symmetry_multiplicity
 _atom_site_fract_x
 _atom_site_fract_y
 _atom_site_fract_z
 _atom_site_occupancy
  V  V0  1  -0.00569670  -0.00091832  0.49744747  1
  V  V1  1  0.37243332  0.00291327  0.37485086  1
  V  V2  1  0.62556076  0.49823545  0.62815425  1
  V  V3  1  0.11173157  0.52213642  0.14237716  1
  V  V4  1  0.37521857  0.62548558  0.24165685  1
  V  V5  1  0.62459584  0.12431967  0.50092424  1
  V  V6  1  0.25036063  0.86702751  0.61990953  1
  V  V7  1  0.62777272  0.62439147  0.49961097  1
  V  V8  1  0.12718307  0.74993744  0.39008740  1
  V  V9  1  0.12184851  0.25068500  0.86838365  1
  V  V10  1  0.25415080  0.49082638  0.24951232  1
  V  V11  1  0.87397239  0.50298404  0.87589640  1
  V  V12  1  0.62939959  0.75065724  0.37480070  1
  V  V13  1  0.50311317  0.51536578  0.00496686  1
  V  V14  1  0.88111959  0.13120846  0.25134499  1
  V  V15  1  0.37492209  0.88684262  -0.00219869  1
  V  V16  1  0.87566463  0.12454018  0.75050245  1
  V  V17  1  -0.00242944  -0.01283160  -0.00135459  1
  V  V18  1  0.87943436  -0.01278875  0.88020071  1
  V  V19  1  -0.00307402  0.75110484  0.74078555  1
  V  V20  1  0.88734809  0.49780441  0.37528429  1
  V  V21  1  0.50067061  0.74731391  0.24616729  1
  V  V22  1  0.76059409  0.61892247  0.36529301  1
  V  V23  1  0.11677044  0.75365476  0.87385192  1
  V  V24  1  0.24350985  0.37826150  0.63432947  1
  V  V25  1  -0.00308187  0.37296550  0.86978803  1
  V  V26  1  0.13888781  0.12729204  0.49505480  1
  V  V27  1  0.62394582  0.87485274  0.74980989  1
  V  V28  1  0.62382068  0.74678839  0.88377100  1
  V  V29  1  0.10169054  0.36618779  0.24289978  1
  V  V30  1  0.62110126  0.12014142  0.00062465  1
  V  V31  1  0.75369145  0.25457368  0.50000783  1
  V  V32  1  0.89321124  0.72266253  0.13001533  1
  V  V33  1  0.49449887  0.74903583  0.74858538  1
  V  V34  1  0.25253132  0.11828487  0.87541198  1
  V  V35  1  0.62690042  0.87951530  0.24573013  1
  V  V36  1  0.37306984  0.24779511  0.62318315  1
  V  V37  1  0.49999918  0.62523740  0.62551223  1
  V  V38  1  0.50886198  0.37286660  0.88578893  1
  V  V39  1  0.62601740  0.25126641  0.37282759  1
  V  V40  1  0.24732943  0.00300140  0.25454067  1
  V  V41  1  0.12262090  -0.00120378  0.12625912  1
  V  V42  1  0.76585192  0.88061664  0.11633715  1
  V  V43  1  0.75287138  0.87176579  0.62472648  1
  V  V44  1  0.75122952  -0.00189947  0.74949320  1
  V  V45  1  0.37084635  0.48582317  0.87793479  1
  V  V46  1  0.75115834  0.12393899  0.87570039  1
  V  V47  1  0.12588572  0.59944903  0.50046445  1
  V  V48  1  0.00513157  0.60793191  0.61983814  1
  V  V49  1  0.25524013  0.63026399  0.86895922  1
  V  V50  1  0.12155442  0.62585008  -0.00589328  1
  V  V51  1  0.25149920  0.62826142  0.38073643  1
  V  V52  1  0.75551077  0.74795425  0.50416242  1
  V  V53  1  0.75182899  0.37700289  0.62474171  1
  V  V54  1  0.11846699  0.87673266  0.75443758  1
  V  V55  1  0.00001821  0.50483891  -0.00017478  1
  V  V56  1  -0.00075682  0.12489442  0.62508094  1
  V  V57  1  0.75593128  0.00199375  0.25301796  1
  V  V58  1  0.75711118  0.12249219  0.37513257  1
  V  V59  1  0.12017250  0.86774878  0.25347853  1
  V  V60  1  0.74748604  0.62793514  0.88301663  1
  V  V61  1  0.37285727  0.26044990  0.11988903  1
  V  V62  1  0.37648926  0.11971470  0.75431382  1
  V  V63  1  0.24972398  0.26292270  -0.00146426  1
  V  V64  1  -0.00168882  0.36551274  0.39658401  1
  V  V65  1  0.87261083  0.62861942  0.74185396  1
  V  V66  1  0.37782628  0.49938432  0.37451385  1
  V  V67  1  0.37205091  0.36894517  0.50179383  1
  V  V68  1  0.12637113  0.00027439  0.62798484  1
  V  V69  1  0.50167555  0.37539556  0.37486652  1
  V  V70  1  0.49419267  0.88602881  0.87846391  1
  V  V71  1  -0.00326278  0.86933373  0.37499536  1
  V  V72  1  0.49899601  0.11886044  0.12033419  1
  V  V73  1  0.87420305  0.87404027  0.49819880  1
  V  V74  1  0.75349447  0.24984063  0.00199511  1
  V  V75  1  0.50054179  0.87564734  0.37266180  1
  V  V76  1  0.50057440  -0.00179130  0.49993073  1
  V  V77  1  0.24879451  0.86613632  0.12672590  1
  V  V78  1  0.88293568  0.25239951  0.12669709  1
  V  V79  1  0.12172547  0.12567151  0.00184750  1
  V  V80  1  0.87466979  0.25320548  0.62474888  1
  V  V81  1  0.37150718  0.12598124  0.25086590  1
  V  V82  1  0.50118670  0.49912171  0.50091238  1
  V  V83  1  0.62912853  0.38675145  0.24309313  1
  V  V84  1  0.50038150  0.25037799  0.24829384  1
  Zn  Zn85  1  0.00327552  0.12945613  0.13186919  1
  Zn  Zn86  1  0.36358598  0.86757042  0.49151456  1
  Zn  Zn87  1  0.74724656  0.49999777  0.75482999  1
  Zn  Zn88  1  0.24946248  0.75164397  -0.00387056  1
  Zn  Zn89  1  0.54554790  0.62318486  0.11605659  1
  Zn  Zn90  1  0.37209171  0.62008693  0.74560056  1
  Zn  Zn91  1  0.75127599  0.38341831  0.13663708  1
  Zn  Zn92  1  0.25657926  -0.00538149  0.75638894  1
  Zn  Zn93  1  0.24445180  0.38328930  0.11569120  1
  Zn  Zn94  1  0.62235816  -0.00055040  0.12081228  1
  Zn  Zn95  1  0.86570143  0.38870886  0.00843293  1
  Zn  Zn96  1  0.50038055  0.12525802  0.62966535  1
  Zn  Zn97  1  0.76293481  0.75950499  -0.00232842  1
  Zn  Zn98  1  0.62225353  0.37184288  0.75095720  1
  Zn  Zn99  1  0.38337861  0.74764805  0.11817982  1
  Zn  Zn100  1  0.22819605  0.50231945  0.74164241  1
  Zn  Zn101  1  0.62493304  -0.00001960  0.62543604  1
  Zn  Zn102  1  0.62643263  0.24928509  0.87448062  1
  Zn  Zn103  1  0.13428549  0.24063668  0.36991185  1
  Zn  Zn104  1  0.00427189  0.25301030  0.74668543  1
  Zn  Zn105  1  0.50120610  0.25183677  0.75073706  1
  Zn  Zn106  1  0.36660315  0.74058658  0.61431365  1
  Zn  Zn107  1  0.18949385  0.19081705  0.18366973  1
  Zn  Zn108  1  0.19309605  0.18780117  0.68565454  1
  Zn  Zn109  1  0.17046453  0.67974273  0.19775993  1
  Zn  Zn110  1  0.18130503  0.68578659  0.68618223  1
  Zn  Zn111  1  0.68887449  0.19198503  0.18498595  1
  Zn  Zn112  1  0.68604399  0.18923485  0.69040574  1
  Zn  Zn113  1  0.69795007  0.70308239  0.19015037  1
  Zn  Zn114  1  0.68398478  0.68830578  0.69132642  1
  Zn  Zn115  1  0.31143786  0.30689617  0.31413087  1
  Zn  Zn116  1  0.31243788  0.30544292  0.81056275  1
  Zn  Zn117  1  0.31124334  0.81133870  0.31130564  1
  Zn  Zn118  1  0.31154113  0.81482723  0.81026837  1
  Zn  Zn119  1  0.81673030  0.31591714  0.31294543  1
  Zn  Zn120  1  0.81207255  0.31510711  0.81157226  1
  Zn  Zn121  1  0.81822655  0.80685325  0.30773362  1
  Zn  Zn122  1  0.81223102  0.80913856  0.81049810  1
  Zn  Zn123  1  0.19883692  0.40616511  0.42308832  1
  Zn  Zn124  1  0.16874286  0.45235257  0.90717334  1
  Zn  Zn125  1  0.18334879  0.94160871  0.43896841  1
  Zn  Zn126  1  0.18571178  0.93639336  0.94141296  1
  Zn  Zn127  1  0.68987618  0.43883143  0.43544441  1
  Zn  Zn128  1  0.69916178  0.45581044  0.96737306  1
  Zn  Zn129  1  0.68839673  0.93798292  0.43544311  1
  Zn  Zn130  1  0.68329811  0.93812332  0.93398699  1
  Zn  Zn131  1  0.30746692  0.06500810  0.06569589  1
  Zn  Zn132  1  0.31496119  0.05743841  0.56735374  1
  Zn  Zn133  1  0.30605583  0.56037027  0.05510959  1
  Zn  Zn134  1  0.31272284  0.55610568  0.56232952  1
  Zn  Zn135  1  0.81513332  0.06303907  0.06484138  1
  Zn  Zn136  1  0.81263323  0.06154873  0.56324723  1
  Zn  Zn137  1  0.75652819  0.57821105  0.09526438  1
  Zn  Zn138  1  0.81823952  0.55742991  0.55588422  1
  Zn  Zn139  1  0.44401137  0.43989349  0.18463442  1
  Zn  Zn140  1  0.43504663  0.43515347  0.69500568  1
  Zn  Zn141  1  0.43384549  0.93617725  0.18508519  1
  Zn  Zn142  1  0.43788469  0.93660539  0.68746670  1
  Zn  Zn143  1  0.92634750  0.44992842  0.18750952  1
  Zn  Zn144  1  0.93548140  0.43745653  0.68919627  1
  Zn  Zn145  1  0.94082190  0.94524142  0.19108479  1
  Zn  Zn146  1  0.93489369  0.93780053  0.68669917  1
  Zn  Zn147  1  0.06118845  0.05836543  0.31742031  1
  Zn  Zn148  1  0.05928420  0.06369301  0.81557626  1
  Zn  Zn149  1  0.07017043  0.55305998  0.31897768  1
  Zn  Zn150  1  0.05886554  0.56450314  0.80816874  1
  Zn  Zn151  1  0.56283493  0.06509735  0.31152454  1
  Zn  Zn152  1  0.56388289  0.06363365  0.81146535  1
  Zn  Zn153  1  0.56560710  0.56622873  0.31245396  1
  Zn  Zn154  1  0.55921388  0.56215146  0.81590869  1
  Zn  Zn155  1  0.43727813  0.18770627  0.43630231  1
  Zn  Zn156  1  0.43402352  0.18735547  0.93984539  1
  Zn  Zn157  1  0.43844115  0.68812524  0.43658570  1
  Zn  Zn158  1  0.43437998  0.69583947  0.93909620  1
  Zn  Zn159  1  0.94106268  0.18766833  0.43995281  1
  Zn  Zn160  1  0.93629424  0.18407718  0.93935911  1
  Zn  Zn161  1  0.93924701  0.68642340  0.44202286  1
  Zn  Zn162  1  0.93308451  0.69238497  0.94051661  1
  Zn  Zn163  1  0.06032392  0.31928827  0.05603070  1
  Zn  Zn164  1  0.06691330  0.30897576  0.56522657  1
  Zn  Zn165  1  0.05668607  0.80417366  0.06748146  1
  Zn  Zn166  1  0.06132934  0.80877336  0.56546299  1
  Zn  Zn167  1  0.56188902  0.31058290  0.05960583  1
  Zn  Zn168  1  0.56059888  0.31070792  0.56334300  1
  Zn  Zn169  1  0.56127947  0.81594105  0.06077650  1
  Zn  Zn170  1  0.56348812  0.81175515  0.56185261  1
  O  O171  1  0.12616145  0.11917968  0.11820732  1
  O  O172  1  0.12122039  0.11641436  0.61960020  1
  O  O173  1  0.14304942  0.62548297  0.09650157  1
  O  O174  1  0.11557200  0.62076376  0.61668466  1
  O  O175  1  0.61591207  0.12671123  0.11894391  1
  O  O176  1  0.62554606  0.12380230  0.61173531  1
  O  O177  1  0.65532183  0.62093746  0.13012492  1
  O  O178  1  0.62190393  0.61624758  0.61989195  1
  O  O179  1  0.38333132  0.37930366  0.38213516  1
  O  O180  1  0.37811338  0.38333245  0.87569511  1
  O  O181  1  0.38069301  0.88608189  0.37142515  1
  O  O182  1  0.38122525  0.87056384  0.88352968  1
  O  O183  1  0.89207174  0.37874816  0.37358310  1
  O  O184  1  0.87805053  0.38619784  0.87708610  1
  O  O185  1  0.88358204  0.86876479  0.38571192  1
  O  O186  1  0.86748216  0.88832466  0.87234617  1
  O  O187  1  0.25852073  -0.00672678  0.36501341  1
  O  O188  1  0.24045249  0.01419408  0.87445068  1
  O  O189  1  0.25830211  0.50205919  0.36557652  1
  O  O190  1  0.26680035  0.50978098  0.88202453  1
  O  O191  1  0.74649733  0.01223176  0.36749446  1
  O  O192  1  0.75706031  0.00798235  0.87097295  1
  O  O193  1  0.74770125  0.51685058  0.37436965  1
  O  O194  1  0.75735343  0.50959881  0.87579978  1
  O  O195  1  0.23388238  0.50372989  0.13351933  1
  O  O196  1  0.25512456  0.48584181  0.63103748  1
  O  O197  1  0.24318384  0.99000846  0.13642170  1
  O  O198  1  0.23716271  0.99200160  0.63010157  1
  O  O199  1  0.75619563  0.47084138  0.06807445  1
  O  O200  1  0.74300196  0.49155880  0.62194459  1
  O  O201  1  0.74537826  0.99517499  0.13495541  1
  O  O202  1  0.74878637  0.99006999  0.63003905  1
  O  O203  1  0.00286288  0.37379609  0.24447049  1
  O  O204  1  -0.00775928  0.37133791  0.76472221  1
  O  O205  1  0.00989894  0.88743258  0.26375239  1
  O  O206  1  0.00917610  0.86624995  0.73976511  1
  O  O207  1  0.50825575  0.36968526  0.25494016  1
  O  O208  1  0.50104612  0.37465382  0.76825083  1
  O  O209  1  0.50700829  0.86913652  0.25187659  1
  O  O210  1  0.50275448  0.86778103  0.75536864  1
  O  O211  1  0.49158388  0.13083378  0.24265472  1
  O  O212  1  0.49150902  0.12763616  0.75079274  1
  O  O213  1  0.49293350  0.63216880  0.24821172  1
  O  O214  1  0.49938209  0.63419982  0.74474631  1
  O  O215  1  0.98586777  0.11703384  0.25378020  1
  O  O216  1  0.99328480  0.12680146  0.74241159  1
  O  O217  1  1.07839124  0.59619447  0.21371021  1
  O  O218  1  0.99465691  0.62980443  0.73868342  1
  O  O219  1  0.36111393  0.24317033  0.00990929  1
  O  O220  1  0.38200966  0.25909644  0.50683424  1
  O  O221  1  0.36693685  0.76214266  0.00479937  1
  O  O222  1  0.38817284  0.75940993  0.50480182  1
  O  O223  1  0.86757150  0.24376294  0.01086125  1
  O  O224  1  0.86371630  0.24171501  0.51264417  1
  O  O225  1  0.87675847  0.74875321  0.02107476  1
  O  O226  1  0.86535658  0.75918369  0.49952578  1
  O  O227  1  0.12373807  0.22734113  0.50668597  1
  O  O228  1  0.13054240  0.24104919  0.99613248  1
  O  O229  1  0.12546052  0.74382143  0.49231903  1
  O  O230  1  0.12333713  0.74561454  0.98823058  1
  O  O231  1  0.63242831  0.24176326  0.49516277  1
  O  O232  1  0.63399681  0.23819499  0.99702012  1
  O  O233  1  0.63431188  0.74559973  0.49375173  1
  O  O234  1  0.62688952  0.75576786  0.98584110  1
  O  O235  1  0.49020992  0.24157073  0.12804375  1
  O  O236  1  0.48921477  0.24657275  0.62678312  1
  O  O237  1  0.50621876  0.74293564  0.13585652  1
  O  O238  1  0.50607953  0.74358889  0.63522314  1
  O  O239  1  0.98809775  0.24821735  0.11654101  1
  O  O240  1  0.98972407  0.24598757  0.62569734  1
  O  O241  1  0.99587906  0.72882606  0.12438251  1
  O  O242  1  1.00473293  0.73748225  0.63596477  1
  O  O243  1  0.00745885  0.26193703  0.38403523  1
  O  O244  1  0.00276504  0.25425769  0.87406886  1
  O  O245  1  0.00938780  0.76102420  0.38300747  1
  O  O246  1  0.01044410  0.74243023  0.86127920  1
  O  O247  1  0.50520731  0.25504115  0.36867280  1
  O  O248  1  0.49827752  0.26564769  0.88162333  1
  O  O249  1  0.50822483  0.75440549  0.36359443  1
  O  O250  1  0.50630759  0.75550896  0.86545420  1
  O  O251  1  0.23736920  0.11287662  0.50251362  1
  O  O252  1  0.23928742  0.13033004  0.99452853  1
  O  O253  1  0.24435733  0.61522335  0.48712975  1
  O  O254  1  0.24314572  0.62971821  0.98299039  1
  O  O255  1  0.74428625  0.13068400  0.49396480  1
  O  O256  1  0.74422776  0.13026885  0.99399432  1
  O  O257  1  0.74770928  0.63399076  0.49614246  1
  O  O258  1  0.75362836  0.63231296  0.98300603  1
  O  O259  1  0.23914270  0.36389869  -0.00384206  1
  O  O260  1  0.26846474  0.38498539  0.51694117  1
  O  O261  1  0.25258741  0.87348938  0.01097226  1
  O  O262  1  0.24497710  0.88121204  0.51562120  1
  O  O263  1  0.75131693  0.34992148  -0.02129982  1
  O  O264  1  0.74260521  0.36206185  0.50790539  1
  O  O265  1  0.74578134  0.88338261  0.01430353  1
  O  O266  1  0.75514741  0.86934234  0.50348262  1
  O  O267  1  0.13726686  0.47458357  0.25096007  1
  O  O268  1  0.13467223  0.48635243  0.79836631  1
  O  O269  1  0.13166502  0.99295050  0.24905257  1
  O  O270  1  0.11928403  0.99295132  0.74199799  1
  O  O271  1  0.61809474  0.48547016  0.25077858  1
  O  O272  1  0.62549051  0.50004185  0.73706101  1
  O  O273  1  0.63394921  0.99356675  0.25081237  1
  O  O274  1  0.63326735  0.99312119  0.74850689  1
  O  O275  1  0.36754306  0.00637422  0.25525086  1
  O  O276  1  0.37329363  0.01451496  0.74285533  1
  O  O277  1  0.37330569  0.50801795  0.25283219  1
  O  O278  1  0.37640145  0.50351388  0.76960714  1
  O  O279  1  0.86222783  0.01255659  0.24799559  1
  O  O280  1  0.87119518  0.00455843  0.75772677  1
  O  O281  1  0.86895995  0.49530999  0.27238145  1
  O  O282  1  0.87351831  0.51070138  0.75972639  1
  O  O283  1  0.10116104  0.38229681  0.35915335  1
  O  O284  1  0.10927178  0.35635999  0.88805008  1
  O  O285  1  0.11960626  0.86802969  0.37374831  1
  O  O286  1  0.13020090  0.86799475  0.86359417  1
  O  O287  1  0.62069157  0.37044046  0.36723382  1
  O  O288  1  0.61277656  0.37754627  0.87778706  1
  O  O289  1  0.62252963  0.87173234  0.36414380  1
  O  O290  1  0.61695777  0.86737557  0.86922794  1
  O  O291  1  0.37948312  0.13183007  0.13318198  1
  O  O292  1  0.37503241  0.13190806  0.63163947  1
  O  O293  1  0.36048951  0.62862505  0.13902940  1
  O  O294  1  0.38310726  0.62315946  0.62627923  1
  O  O295  1  0.87594461  0.13390337  0.13542349  1
  O  O296  1  0.87805430  0.13168349  0.63020572  1
  O  O297  1  0.85875556  0.62773106  0.13015597  1
  O  O298  1  0.88740843  0.61574040  0.63235196  1
  O  O299  1  0.25622792  0.25591824  0.11591826  1
  O  O300  1  0.26509899  0.25973816  0.62840582  1
  O  O301  1  0.24183836  0.76309657  0.13272820  1
  O  O302  1  0.24628973  0.76384320  0.62907297  1
  O  O303  1  0.75810009  0.25436833  0.11566438  1
  O  O304  1  0.75458794  0.25659300  0.61872338  1
  O  O305  1  0.75687237  0.77428750  0.12225126  1
  O  O306  1  0.74221513  0.75892295  0.61462415  1
  O  O307  1  0.23084107  0.29669967  0.38761550  1
  O  O308  1  0.24154614  0.24195511  0.88162530  1
  O  O309  1  0.24256489  0.73758984  0.36987220  1
  O  O310  1  0.23750766  0.74505562  0.86988143  1
  O  O311  1  0.74736209  0.24411668  0.38389735  1
  O  O312  1  0.75496713  0.23354876  0.87818796  1
  O  O313  1  0.74972662  0.74398976  0.38516340  1
  O  O314  1  0.74191291  0.74654586  0.87591086  1
  O  O315  1  0.01385633  0.11978602  0.00114474  1
  O  O316  1  0.00217929  0.11367768  0.50618222  1
  O  O317  1  0.01070758  0.61525714  -0.01554882  1
  O  O318  1  0.00752509  0.62408918  0.51377739  1
  O  O319  1  0.50789207  0.13235626  0.00916524  1
  O  O320  1  0.50944783  0.11541225  0.49592653  1
  O  O321  1  0.49520003  0.62087883  0.00329094  1
  O  O322  1  0.50852753  0.61868382  0.50373984  1
  O  O323  1  0.49479583  0.37991718  0.49447812  1
  O  O324  1  0.50050374  0.38535549  0.99092998  1
  O  O325  1  0.50728263  0.88753538  0.49108796  1
  O  O326  1  0.48859550  0.87050480  0.99124814  1
  O  O327  1  1.00806537  0.37643118  0.49445328  1
  O  O328  1  0.99180704  0.38699864  0.98933427  1
  O  O329  1  0.99268666  0.87846681  0.49827035  1
  O  O330  1  1.00777911  0.88857528  1.00607658  1
  O  O331  1  0.49712799  0.49645157  0.38056862  1
  O  O332  1  0.48880152  0.49353498  0.88276990  1
  O  O333  1  0.49231748  0.99684260  0.37894712  1
  O  O334  1  0.50449566  0.98456715  0.87033773  1
  O  O335  1  0.99205243  0.49431306  0.37622825  1
  O  O336  1  0.99171741  0.49305423  0.87887694  1
  O  O337  1  1.00738084  0.98471595  0.39064216  1
  O  O338  1  0.99114876  1.00382038  0.88497858  1
  O  O339  1  0.00627689  0.00670501  0.11760700  1
  O  O340  1  0.00712607  0.00261620  0.61739295  1
  O  O341  1  0.00591120  0.49687857  0.11245568  1
  O  O342  1  0.00316283  0.50917749  0.63136765  1
  O  O343  1  0.50033016  0.01503697  0.13249455  1
  O  O344  1  0.50210600  0.00140268  0.61168857  1
  O  O345  1  0.49472545  0.50806259  0.10989131  1
  O  O346  1  0.50790673  0.50325608  0.62143856  1
  O  O347  1  0.26184497  0.38769323  0.24167407  1
  O  O348  1  0.25837493  0.37509639  0.73750791  1
  O  O349  1  0.24144874  0.88327209  0.24642413  1
  O  O350  1  0.23727276  0.87785094  0.74078576  1
  O  O351  1  0.73357803  0.37154159  0.25392856  1
  O  O352  1  0.74528882  0.37843796  0.73802379  1
  O  O353  1  0.74502983  0.88434332  0.24433421  1
  O  O354  1  0.74617192  0.87703599  0.74131711  1
  O  O355  1  0.25848926  0.11473092  0.24289472  1
  O  O356  1  0.25718210  0.12309668  0.75910288  1
  O  O357  1  0.25400589  0.61423773  0.26153577  1
  O  O358  1  0.24821242  0.62237662  0.75657886  1
  O  O359  1  0.75439684  0.12095651  0.25758051  1
  O  O360  1  0.75430150  0.11827152  0.75692343  1
  O  O361  1  0.75429728  0.63829272  0.26931395  1
  O  O362  1  0.75949137  0.62523688  0.75376300  1
  O  O363  1  0.38046093  0.11595529  0.36214038  1
  O  O364  1  0.36341678  0.13256113  0.86737587  1
  O  O365  1  0.36932186  0.62041103  0.36600745  1
  O  O366  1  0.36404625  0.63014864  0.87028315  1
  O  O367  1  0.86359584  0.13525432  0.36867877  1
  O  O368  1  0.86684525  0.11670660  0.86979006  1
  O  O369  1  0.86889713  0.61646384  0.38053527  1
  O  O370  1  0.86851636  0.62173668  0.86401889  1
  O  O371  1  0.12150885  0.38398108  0.13557758  1
  O  O372  1  0.14529253  0.36533335  0.62291489  1
  O  O373  1  0.12741915  0.87828779  0.13593962  1
  O  O374  1  0.13070278  0.88103569  0.63171013  1
  O  O375  1  0.62289784  0.36754454  0.14087240  1
  O  O376  1  0.63209564  0.38302465  0.62375549  1
  O  O377  1  0.62903534  0.87859447  0.13546226  1
  O  O378  1  0.63558820  0.87731620  0.62932730  1
  O  O379  1  0.12973069  0.26495325  0.24899283  1
  O  O380  1  0.12410872  0.24131387  0.76376668  1
  O  O381  1  0.12605828  0.76392705  0.26448554  1
  O  O382  1  0.11613384  0.75784291  0.75437631  1
  O  O383  1  0.61862586  0.25359540  0.25626296  1
  O  O384  1  0.62066581  0.25269511  0.75708603  1
  O  O385  1  0.62012057  0.76190131  0.25529628  1
  O  O386  1  0.61583771  0.75714272  0.75763516  1
  O  O387  1  0.37692988  0.24226907  0.24364869  1
  O  O388  1  0.37834382  0.23805292  0.74219939  1
  O  O389  1  0.38522549  0.74338265  0.24954856  1
  O  O390  1  0.38616690  0.75068753  0.74267894  1
  O  O391  1  0.86735465  0.24124562  0.23985513  1
  O  O392  1  0.87213536  0.24312542  0.73815899  1
  O  O393  1  0.87587484  0.76000156  0.22512585  1
  O  O394  1  0.88467906  0.73941930  0.75425588  1
  O  O395  1  0.38385574  0.49149561  0.49380323  1
  O  O396  1  0.38388764  0.50683742  0.98577451  1
  O  O397  1  0.38314149  0.99757981  0.49077364  1
  O  O398  1  0.36685388  0.98668215  1.00756253  1
  O  O399  1  0.86321731  0.49296136  0.47655059  1
  O  O400  1  0.88763549  0.50816130  0.98375300  1
  O  O401  1  0.88391245  0.98932697  0.50449821  1
  O  O402  1  0.88605878  1.00939129  0.99191757  1
  O  O403  1  0.11881582  0.00756697  0.00540140  1
  O  O404  1  0.11525345  0.00676800  0.50983662  1
  O  O405  1  0.11526950  0.50860677  -0.00011870  1
  O  O406  1  0.13010422  0.50293731  0.48620907  1
  O  O407  1  0.62953741  0.01572970  0.00168301  1
  O  O408  1  0.61875568  0.00909331  0.49674455  1
  O  O409  1  0.60146043  0.50795594  -0.01143994  1
  O  O410  1  0.62149951  0.50344147  0.50904837  1
  O  O411  1  0.37617426  0.36255261  0.12786515  1
  O  O412  1  0.37597591  0.36670054  0.61932591  1
  O  O413  1  0.36545735  0.87071061  0.12086055  1
  O  O414  1  0.35556321  0.87897498  0.62653796  1
  O  O415  1  0.87259887  0.36567643  0.12523173  1
  O  O416  1  0.86429404  0.36567924  0.62990081  1
  O  O417  1  0.86486683  0.88947711  0.12453763  1
  O  O418  1  0.86242009  0.87721137  0.61528179  1
  O  O419  1  0.12227048  0.12378755  0.38925498  1
  O  O420  1  0.13013521  0.13224248  0.88346413  1
  O  O421  1  0.13070819  0.63040990  0.38402663  1
  O  O422  1  0.13280565  0.63618856  0.87801815  1
  O  O423  1  0.63429867  0.13076812  0.38208684  1
  O  O424  1  0.63503049  0.12400386  0.88212804  1
  O  O425  1  0.63627949  0.63131721  0.38024373  1
  O  O426  1  0.63534860  0.63593137  0.86363709  1
