# generated using pymatgen
data_V85Zn86O256
_symmetry_space_group_name_H-M   'P 1'
_cell_length_a   16.98313526
_cell_length_b   16.99233529
_cell_length_c   16.99713978
_cell_angle_alpha   89.89837421
_cell_angle_beta   89.98451153
_cell_angle_gamma   90.15666246
_symmetry_Int_Tables_number   1
_chemical_formula_structural   V85Zn86O256
_chemical_formula_sum   'V85 Zn86 O256'
_cell_volume   4905.06153989
_cell_formula_units_Z   1
loop_
 _symmetry_equiv_pos_site_id
 _symmetry_equiv_pos_as_xyz
  1  'x, y, z'
loop_
 _atom_site_type_symbol
 _atom_site_label
 _atom_site_symmetry_multiplicity
 _atom_site_fract_x
 _atom_site_fract_y
 _atom_site_fract_z
 _atom_site_occupancy
  V  V0  1  0.12644854  0.13370136  -0.00216263  1
  V  V1  1  0.87478705  0.25168253  0.12497758  1
  V  V2  1  0.63662523  -0.00289750  0.62922633  1
  V  V3  1  0.75007401  0.00061556  0.24601866  1
  V  V4  1  0.75114452  0.12625598  0.37551594  1
  V  V5  1  -0.00107919  0.62854334  0.62273749  1
  V  V6  1  0.50265429  0.87455661  0.87698990  1
  V  V7  1  0.37624281  0.37382393  0.49647728  1
  V  V8  1  -0.00237158  0.13105375  0.63174031  1
  V  V9  1  0.00077121  0.74927654  0.24544979  1
  V  V10  1  0.00523979  0.37666091  0.37338778  1
  V  V11  1  0.00251097  0.36893790  0.86118985  1
  V  V12  1  0.00411147  0.25358167  0.24895542  1
  V  V13  1  0.87539282  -0.00992486  0.86851884  1
  V  V14  1  0.87174158  0.87209415  0.50151058  1
  V  V15  1  0.75197143  0.62671002  0.37625449  1
  V  V16  1  0.49529950  0.74319533  0.25004248  1
  V  V17  1  0.00050030  -0.00025622  0.49880183  1
  V  V18  1  0.75144896  0.24948873  0.50444427  1
  V  V19  1  0.62105089  0.37235929  0.24962340  1
  V  V20  1  0.12896225  0.12408658  0.49470131  1
  V  V21  1  0.75239808  0.75301253  0.50523500  1
  V  V22  1  0.37556057  0.12874585  0.25457335  1
  V  V23  1  0.37124130  0.37424095  -0.00933271  1
  V  V24  1  0.24995591  -0.00042807  0.75124259  1
  V  V25  1  0.87614381  0.00172671  0.37334840  1
  V  V26  1  0.62295202  0.25004788  0.37209744  1
  V  V27  1  0.37608100  0.87627822  0.50109103  1
  V  V28  1  0.63274584  0.87771618  0.75261267  1
  V  V29  1  -0.00715941  -0.00948196  -0.00350492  1
  V  V30  1  0.50113125  0.50090100  0.49611906  1
  V  V31  1  0.75044796  0.37646580  0.12388510  1
  V  V32  1  0.37492073  0.50439144  0.36545788  1
  V  V33  1  0.00077567  0.87537422  0.37560125  1
  V  V34  1  0.86859166  0.50002540  0.87031229  1
  V  V35  1  0.75279340  0.50117809  0.24936938  1
  V  V36  1  0.12570418  0.74959508  0.37580780  1
  V  V37  1  0.49655154  0.62781590  0.62336361  1
  V  V38  1  0.49353922  0.49540372  -0.00417068  1
  V  V39  1  0.12783789  0.00454071  0.12279817  1
  V  V40  1  0.74500190  0.37713603  0.63308209  1
  V  V41  1  0.24606730  0.37972415  0.63410427  1
  V  V42  1  0.24479483  0.74162226  -0.00146420  1
  V  V43  1  0.37946987  0.87436548  0.00213107  1
  V  V44  1  0.24859329  0.74883439  0.50193616  1
  V  V45  1  0.37613233  0.12374224  0.75173541  1
  V  V46  1  0.25167471  0.00684367  0.25642676  1
  V  V47  1  0.62730166  0.00465753  0.12220673  1
  V  V48  1  0.37559461  0.74277206  0.12963918  1
  V  V49  1  0.24793538  0.87504700  0.62792346  1
  V  V50  1  0.87564809  0.12796124  0.25004371  1
  V  V51  1  0.49847521  0.62502599  0.12187570  1
  V  V52  1  0.86538413  0.63029874  0.74615299  1
  V  V53  1  0.24204434  0.37430084  0.12893005  1
  V  V54  1  0.00917076  0.50094423  -0.00050501  1
  V  V55  1  0.62625663  0.62646673  0.49865875  1
  V  V56  1  0.62426800  0.49650223  0.62793132  1
  V  V57  1  0.62587456  0.75077902  0.37489098  1
  V  V58  1  0.87366924  0.37172807  -0.00173625  1
  V  V59  1  0.37275757  0.25199413  0.12436744  1
  V  V60  1  0.88230264  0.62714143  0.24515261  1
  V  V61  1  0.50501584  0.11959991  0.62635546  1
  V  V62  1  0.50904475  0.25956029  0.75154477  1
  V  V63  1  0.73946710  0.11562163  0.87538105  1
  V  V64  1  0.62594739  0.87515189  0.24007282  1
  V  V65  1  0.62427277  0.50509793  0.12233022  1
  V  V66  1  0.62195605  0.71583520  0.87559622  1
  V  V67  1  0.12570474  -0.00132019  0.62594455  1
  V  V68  1  0.25310867  0.87722364  0.12598807  1
  V  V69  1  0.87515771  0.37566129  0.50058476  1
  V  V70  1  0.49885103  0.87850098  0.37408476  1
  V  V71  1  0.50098466  0.13109539  0.12746192  1
  V  V72  1  0.50073349  0.37392333  0.37229628  1
  V  V73  1  0.25034425  0.13128105  0.87902865  1
  V  V74  1  0.12050319  0.24955754  0.85777994  1
  V  V75  1  0.24838108  0.61342332  0.87008691  1
  V  V76  1  -0.00254000  0.75517759  0.75366405  1
  V  V77  1  0.37822516  0.24839634  0.62428584  1
  V  V78  1  0.25303672  0.24620517  0.49482707  1
  V  V79  1  0.87656932  0.49939523  0.37599600  1
  V  V80  1  0.12930581  0.25202666  0.37137447  1
  V  V81  1  0.25510923  0.62596837  0.36660099  1
  V  V82  1  0.50214052  0.00706346  0.00045841  1
  V  V83  1  0.62326628  0.27173978  0.87708735  1
  V  V84  1  0.49194420  0.75181017  0.74663900  1
  Zn  Zn85  1  0.11613677  0.75290404  0.88320372  1
  Zn  Zn86  1  0.00617468  0.49879339  0.50344654  1
  Zn  Zn87  1  0.11827409  0.87687023  0.76189062  1
  Zn  Zn88  1  0.12472890  0.49705268  0.63745747  1
  Zn  Zn89  1  0.62728911  0.12011910  0.50008913  1
  Zn  Zn90  1  0.36334628  0.59927415  0.75351455  1
  Zn  Zn91  1  0.12282233  0.50660636  0.13731969  1
  Zn  Zn92  1  0.73520343  0.24454758  0.00402550  1
  Zn  Zn93  1  0.23877949  0.49150551  0.25570200  1
  Zn  Zn94  1  0.12711250  0.87915771  0.25205920  1
  Zn  Zn95  1  0.37193490  0.00793121  0.37770951  1
  Zn  Zn96  1  0.73687915  0.50453885  0.75993689  1
  Zn  Zn97  1  0.76104025  0.87111852  0.64225385  1
  Zn  Zn98  1  0.88676800  0.26200416  0.63981484  1
  Zn  Zn99  1  0.81083058  0.82357972  0.08366809  1
  Zn  Zn100  1  0.12817318  0.61687093  0.50332491  1
  Zn  Zn101  1  -0.00046602  0.12835514  0.12092808  1
  Zn  Zn102  1  0.37328851  0.00183113  0.87780239  1
  Zn  Zn103  1  0.50347677  -0.00000357  0.49932302  1
  Zn  Zn104  1  0.00869310  0.63657171  0.10963239  1
  Zn  Zn105  1  0.36944015  0.74556204  0.62742105  1
  Zn  Zn106  1  0.87274921  0.12951952  0.75617053  1
  Zn  Zn107  1  0.19220312  0.18992128  0.18581760  1
  Zn  Zn108  1  0.19008421  0.18620134  0.68317243  1
  Zn  Zn109  1  0.18335853  0.68479069  0.18499556  1
  Zn  Zn110  1  0.18137258  0.68517997  0.69251038  1
  Zn  Zn111  1  0.68814998  0.18687266  0.18679467  1
  Zn  Zn112  1  0.69098312  0.18550569  0.69345594  1
  Zn  Zn113  1  0.68737114  0.68290505  0.19251510  1
  Zn  Zn114  1  0.68101040  0.69161124  0.69088378  1
  Zn  Zn115  1  0.31502246  0.31165702  0.30858514  1
  Zn  Zn116  1  0.31545058  0.30724492  0.81162966  1
  Zn  Zn117  1  0.31151159  0.81665443  0.31213142  1
  Zn  Zn118  1  0.31179685  0.81283876  0.81490101  1
  Zn  Zn119  1  0.81236040  0.31327513  0.31249142  1
  Zn  Zn120  1  0.81026797  0.30677641  0.81248967  1
  Zn  Zn121  1  0.82933279  0.83129568  0.27153265  1
  Zn  Zn122  1  0.79604928  0.80302471  0.90938203  1
  Zn  Zn123  1  0.18911423  0.43892578  0.44464716  1
  Zn  Zn124  1  0.18848054  0.42980710  0.93450126  1
  Zn  Zn125  1  0.18826503  0.93643334  0.43883884  1
  Zn  Zn126  1  0.18629981  0.93652758  0.93615633  1
  Zn  Zn127  1  0.68869935  0.43805029  0.43918820  1
  Zn  Zn128  1  0.68576899  0.44104051  0.94213593  1
  Zn  Zn129  1  0.68685622  0.93842271  0.43558417  1
  Zn  Zn130  1  0.68765497  0.94101701  0.94074335  1
  Zn  Zn131  1  0.31367130  0.06528885  0.06302924  1
  Zn  Zn132  1  0.31459840  0.06149884  0.56373119  1
  Zn  Zn133  1  0.30994005  0.55782490  0.06322417  1
  Zn  Zn134  1  0.31429222  0.55983522  0.55642473  1
  Zn  Zn135  1  0.81140182  0.06819734  0.05849001  1
  Zn  Zn136  1  0.81485965  0.06079832  0.56224118  1
  Zn  Zn137  1  0.82185961  0.56891690  0.05966855  1
  Zn  Zn138  1  0.81268707  0.56192187  0.56459330  1
  Zn  Zn139  1  0.43476324  0.43530678  0.18465126  1
  Zn  Zn140  1  0.43177723  0.43577566  0.68305727  1
  Zn  Zn141  1  0.43885751  0.93959906  0.18695728  1
  Zn  Zn142  1  0.43750775  0.93782173  0.68827018  1
  Zn  Zn143  1  0.94027459  0.43857893  0.18688201  1
  Zn  Zn144  1  0.93520726  0.44601593  0.68648648  1
  Zn  Zn145  1  0.94502971  0.94092594  0.18474794  1
  Zn  Zn146  1  0.93651474  0.94089040  0.68492645  1
  Zn  Zn147  1  0.06320329  0.06652044  0.31111868  1
  Zn  Zn148  1  0.06295033  0.05859639  0.81490378  1
  Zn  Zn149  1  0.06784282  0.56283293  0.31298465  1
  Zn  Zn150  1  0.07033240  0.56933628  0.81078338  1
  Zn  Zn151  1  0.56150273  0.06422857  0.30950009  1
  Zn  Zn152  1  0.56187942  0.06004009  0.81089547  1
  Zn  Zn153  1  0.56372992  0.56206618  0.31004640  1
  Zn  Zn154  1  0.53103813  0.54283301  0.79814444  1
  Zn  Zn155  1  0.44207227  0.18681023  0.43793009  1
  Zn  Zn156  1  0.43950367  0.19299313  0.93791566  1
  Zn  Zn157  1  0.43611218  0.68913827  0.43707991  1
  Zn  Zn158  1  0.43485015  0.68405757  0.93689391  1
  Zn  Zn159  1  0.93987660  0.18878669  0.44053037  1
  Zn  Zn160  1  0.93683311  0.18188630  0.93444324  1
  Zn  Zn161  1  0.93596183  0.68879347  0.43570909  1
  Zn  Zn162  1  0.93447279  0.68050113  0.92959253  1
  Zn  Zn163  1  0.05971622  0.31396860  0.05509708  1
  Zn  Zn164  1  0.06720031  0.31249694  0.56057236  1
  Zn  Zn165  1  0.06638285  0.81858602  0.06498395  1
  Zn  Zn166  1  0.05994399  0.81098457  0.56662570  1
  Zn  Zn167  1  0.55831440  0.31476493  0.06311019  1
  Zn  Zn168  1  0.56379572  0.31080056  0.56004799  1
  Zn  Zn169  1  0.65374930  0.79610748  0.05005102  1
  Zn  Zn170  1  0.56583081  0.81488696  0.56375681  1
  O  O171  1  0.12804870  0.11951741  0.11574687  1
  O  O172  1  0.11796119  0.12057699  0.61358046  1
  O  O173  1  0.11948604  0.61991130  0.12323648  1
  O  O174  1  0.11119649  0.62389212  0.62349071  1
  O  O175  1  0.61364498  0.11727061  0.13253138  1
  O  O176  1  0.62036481  0.11591394  0.62756694  1
  O  O177  1  0.61414698  0.61290011  0.13178498  1
  O  O178  1  0.61600393  0.61916989  0.61712614  1
  O  O179  1  0.38121417  0.38029208  0.37770509  1
  O  O180  1  0.37010983  0.36669784  0.89183391  1
  O  O181  1  0.38348325  0.87556066  0.38332416  1
  O  O182  1  0.38497392  0.87524800  0.88475275  1
  O  O183  1  0.88260588  0.37823828  0.38215964  1
  O  O184  1  0.88224091  0.37695397  0.88057822  1
  O  O185  1  0.88260112  0.88358020  0.37775662  1
  O  O186  1  0.86540688  0.89120831  0.87914336  1
  O  O187  1  0.25043098  -0.00471013  0.36106083  1
  O  O188  1  0.25122260  0.01204276  0.86928608  1
  O  O189  1  0.25831819  0.50832302  0.37792637  1
  O  O190  1  0.24466513  0.51475321  0.88268213  1
  O  O191  1  0.75478764  0.00855552  0.36864812  1
  O  O192  1  0.76221445  0.00915046  0.88399831  1
  O  O193  1  0.75542738  0.50559715  0.36979424  1
  O  O194  1  0.76171114  0.49211679  0.87473640  1
  O  O195  1  0.24907124  0.48637953  0.12944549  1
  O  O196  1  0.25704495  0.48241109  0.61936801  1
  O  O197  1  0.24416647  0.99810920  0.13151047  1
  O  O198  1  0.24499245  0.99611441  0.63071486  1
  O  O199  1  0.74366994  0.49904191  0.12672730  1
  O  O200  1  0.73909531  0.49224037  0.62104676  1
  O  O201  1  0.73709755  1.01191845  0.13010825  1
  O  O202  1  0.74078208  0.99616740  0.62332734  1
  O  O203  1  -0.00655463  0.36412055  0.26217509  1
  O  O204  1  -0.00764950  0.37831363  0.76369699  1
  O  O205  1  0.00601487  0.86735444  0.25921287  1
  O  O206  1  -0.00671129  0.85743995  0.73868803  1
  O  O207  1  0.51453420  0.38073545  0.25420135  1
  O  O208  1  0.50011294  0.35635081  0.74010591  1
  O  O209  1  0.50584516  0.86865759  0.25647831  1
  O  O210  1  0.50230715  0.86975204  0.75831789  1
  O  O211  1  0.48852338  0.11758616  0.23683581  1
  O  O212  1  0.49636201  0.12901895  0.74082401  1
  O  O213  1  0.50300199  0.63606951  0.24384687  1
  O  O214  1  0.50233965  0.64071357  0.73295360  1
  O  O215  1  0.99432650  0.13815166  0.24903807  1
  O  O216  1  1.00569033  0.11907102  0.73234766  1
  O  O217  1  0.99530389  0.63516055  0.25818809  1
  O  O218  1  0.99324599  0.63158023  0.73907687  1
  O  O219  1  0.38306642  0.26405048  0.01074810  1
  O  O220  1  0.37002696  0.25181307  0.50236528  1
  O  O221  1  0.37059031  0.75776484  0.01111031  1
  O  O222  1  0.36490440  0.75977130  0.49996972  1
  O  O223  1  0.87989049  0.26170569  0.00556099  1
  O  O224  1  0.86596983  0.25914436  0.50114560  1
  O  O225  1  0.84978968  0.72736669  -0.00486464  1
  O  O226  1  0.86517859  0.76138503  0.49153445  1
  O  O227  1  0.13389727  0.24221996  0.49163711  1
  O  O228  1  0.11850777  0.23697945  0.99015537  1
  O  O229  1  0.13503749  0.75236138  0.49215288  1
  O  O230  1  0.14280760  0.75548023  1.00717763  1
  O  O231  1  0.63632095  0.24939883  0.48983948  1
  O  O232  1  0.61729175  0.25867172  0.98242298  1
  O  O233  1  0.63052336  0.74623379  0.49375997  1
  O  O234  1  0.60234880  0.73318943  0.97434524  1
  O  O235  1  0.49266605  0.23893905  0.12152833  1
  O  O236  1  0.50138334  0.24020069  0.63291713  1
  O  O237  1  0.49230750  0.73875046  0.13365471  1
  O  O238  1  0.49829837  0.74440810  0.62778513  1
  O  O239  1  0.99629953  0.25348034  0.13506178  1
  O  O240  1  1.00194786  0.23473229  0.61592346  1
  O  O241  1  1.00811883  0.75360233  0.14134449  1
  O  O242  1  0.99872926  0.73651766  0.63212045  1
  O  O243  1  0.00752047  0.25696129  0.36915767  1
  O  O244  1  0.00396389  0.26194682  0.87690815  1
  O  O245  1  0.01049147  0.75461942  0.37179823  1
  O  O246  1  -0.00294310  0.74369315  0.85877070  1
  O  O247  1  0.51553452  0.25718068  0.38143490  1
  O  O248  1  0.51180680  0.24489681  0.86200789  1
  O  O249  1  0.50263118  0.75716031  0.36811406  1
  O  O250  1  0.50086126  0.75622054  0.86460660  1
  O  O251  1  0.24215477  0.13473715  0.50648954  1
  O  O252  1  0.24050821  0.11808932  0.98876953  1
  O  O253  1  0.25153219  0.63707070  0.49307627  1
  O  O254  1  0.25595046  0.63818482  0.99653909  1
  O  O255  1  0.75151342  0.13464455  0.49551727  1
  O  O256  1  0.75676680  0.13409767  0.98289118  1
  O  O257  1  0.74736423  0.63259061  0.49670881  1
  O  O258  1  0.79132910  0.66269302  0.99817614  1
  O  O259  1  0.26537667  0.38210852  0.01097096  1
  O  O260  1  0.25797494  0.36224468  0.50573906  1
  O  O261  1  0.26300583  0.87070874  0.00683114  1
  O  O262  1  0.25739107  0.86800811  0.50490111  1
  O  O263  1  0.75859469  0.37142071  0.00547733  1
  O  O264  1  0.75825568  0.36781318  0.50406917  1
  O  O265  1  0.74127553  0.85895261  -0.00362112  1
  O  O266  1  0.75828909  0.86748294  0.49304535  1
  O  O267  1  0.12498072  0.49179923  0.25132296  1
  O  O268  1  0.12031978  0.49423628  0.74898185  1
  O  O269  1  0.13254178  1.00589179  0.24008818  1
  O  O270  1  0.13102961  0.99746379  0.74368545  1
  O  O271  1  0.63235175  0.49219570  0.24274993  1
  O  O272  1  0.62117137  0.50299857  0.73129197  1
  O  O273  1  0.62777905  0.99478655  0.24160608  1
  O  O274  1  0.61809701  0.98955580  0.73969744  1
  O  O275  1  0.36723376  0.00843081  0.24873631  1
  O  O276  1  0.36906853  0.00681803  0.75274924  1
  O  O277  1  0.37191608  0.49380809  0.26368971  1
  O  O278  1  0.42461828  0.50834378  0.76308383  1
  O  O279  1  0.87196460  0.01012624  0.25612361  1
  O  O280  1  0.88357299  0.00234940  0.76554273  1
  O  O281  1  0.87291985  0.50542149  0.25659884  1
  O  O282  1  0.86778225  0.50627073  0.75651771  1
  O  O283  1  0.11509248  0.36339951  0.38579213  1
  O  O284  1  0.11129626  0.36399882  0.87839199  1
  O  O285  1  0.12071400  0.86554661  0.37652831  1
  O  O286  1  0.12648695  0.86701236  0.87429933  1
  O  O287  1  0.62279828  0.37050976  0.36810051  1
  O  O288  1  0.62792011  0.36983579  0.86961539  1
  O  O289  1  0.61280421  0.87110029  0.36928696  1
  O  O290  1  0.61029425  0.88209218  0.86915728  1
  O  O291  1  0.38020373  0.13343265  0.12978741  1
  O  O292  1  0.38474520  0.12882446  0.63005466  1
  O  O293  1  0.37992192  0.63534318  0.12404077  1
  O  O294  1  0.38648545  0.62439870  0.62253826  1
  O  O295  1  0.87680096  0.13439001  0.13175793  1
  O  O296  1  0.89149298  0.12187988  0.62397048  1
  O  O297  1  0.88922611  0.61765158  0.14245285  1
  O  O298  1  0.88676113  0.61560241  0.63582110  1
  O  O299  1  0.26034722  0.26043938  0.12323543  1
  O  O300  1  0.25796513  0.25504867  0.61458976  1
  O  O301  1  0.25837281  0.75476018  0.11944345  1
  O  O302  1  0.24804288  0.75399620  0.61592024  1
  O  O303  1  0.75519638  0.25719722  0.12297615  1
  O  O304  1  0.74531175  0.25779553  0.61503872  1
  O  O305  1  0.72618892  0.76110670  0.12830360  1
  O  O306  1  0.74077725  0.75496885  0.60924968  1
  O  O307  1  0.24271541  0.25714294  0.38427987  1
  O  O308  1  0.23966314  0.23756598  0.86870821  1
  O  O309  1  0.24562201  0.74666572  0.38154235  1
  O  O310  1  0.25366303  0.75175541  0.89469613  1
  O  O311  1  0.74397876  0.24734882  0.38353274  1
  O  O312  1  0.73041972  0.24521797  0.87451373  1
  O  O313  1  0.74134022  0.74183304  0.38562788  1
  O  O314  1  0.72081637  0.73351875  0.86299857  1
  O  O315  1  0.01053385  0.11553259  0.00129921  1
  O  O316  1  0.00943606  0.11928412  0.50573325  1
  O  O317  1  -0.01063714  0.60508067  -0.00342669  1
  O  O318  1  -0.00297225  0.62679627  0.51276510  1
  O  O319  1  0.48996078  0.11397190  0.00922710  1
  O  O320  1  0.50398376  0.12425779  0.51375105  1
  O  O321  1  0.48913899  0.60977947  0.01349592  1
  O  O322  1  0.50544966  0.62310706  0.50468368  1
  O  O323  1  0.49587544  0.37957500  0.49235422  1
  O  O324  1  0.48508680  0.38698424  1.01317271  1
  O  O325  1  0.49186263  0.87253132  0.49139888  1
  O  O326  1  0.49071398  0.88563957  0.99166422  1
  O  O327  1  0.98967648  0.37047247  0.49206341  1
  O  O328  1  0.98959305  0.38241513  0.99121261  1
  O  O329  1  0.99222172  0.87877411  0.49551732  1
  O  O330  1  1.00137844  0.89121539  1.00718323  1
  O  O331  1  0.49472562  0.49577558  0.37729017  1
  O  O332  1  0.50828950  0.49503310  0.90024583  1
  O  O333  1  0.49870848  0.98880306  0.37578917  1
  O  O334  1  0.49564155  0.99478368  0.88361238  1
  O  O335  1  0.99588977  0.48982179  0.37949206  1
  O  O336  1  0.99030734  0.48735830  0.88302505  1
  O  O337  1  0.99783542  0.99637634  0.37943448  1
  O  O338  1  0.99021964  1.00195635  0.88756249  1
  O  O339  1  0.01124048  0.00566941  0.11746907  1
  O  O340  1  0.00680216  0.00867132  0.61688796  1
  O  O341  1  0.00206454  0.49145045  0.10716798  1
  O  O342  1  0.00196108  0.51200045  0.62239950  1
  O  O343  1  0.50552956  0.00880219  0.11851386  1
  O  O344  1  0.50756486  0.00770725  0.62391100  1
  O  O345  1  0.50499542  0.50844876  0.12632065  1
  O  O346  1  0.50675202  0.50759642  0.61316660  1
  O  O347  1  0.25211137  0.37202515  0.23399144  1
  O  O348  1  0.26188569  0.36707939  0.73207629  1
  O  O349  1  0.24923681  0.88613633  0.24299591  1
  O  O350  1  0.25163421  0.88116817  0.74316570  1
  O  O351  1  0.74368348  0.38222076  0.24478208  1
  O  O352  1  0.75288252  0.37810252  0.73465662  1
  O  O353  1  0.73027820  0.88636496  0.26457150  1
  O  O354  1  0.73228546  0.86770388  0.75589837  1
  O  O355  1  0.26190366  0.11706237  0.24359119  1
  O  O356  1  0.25613061  0.12004323  0.75579472  1
  O  O357  1  0.24881662  0.62817110  0.26557245  1
  O  O358  1  0.25301127  0.63024841  0.76196278  1
  O  O359  1  0.75635518  0.12145254  0.25642813  1
  O  O360  1  0.75209594  0.12635130  0.76932557  1
  O  O361  1  0.76079127  0.61984979  0.25618638  1
  O  O362  1  0.76163029  0.62229180  0.73548885  1
  O  O363  1  0.38505145  0.12521503  0.36115476  1
  O  O364  1  0.36618089  0.12851043  0.87156090  1
  O  O365  1  0.36802586  0.61584358  0.38116788  1
  O  O366  1  0.35637932  0.63133655  0.87391457  1
  O  O367  1  0.87146934  0.12239666  0.37134057  1
  O  O368  1  0.86891768  0.11253001  0.87472956  1
  O  O369  1  0.87125024  0.61687975  0.36972015  1
  O  O370  1  0.87956068  0.61056653  0.85493471  1
  O  O371  1  0.14136462  0.37104502  0.11310310  1
  O  O372  1  0.14334574  0.37001113  0.62143751  1
  O  O373  1  0.13393914  0.89051293  0.12758741  1
  O  O374  1  0.13114774  0.88269240  0.62517575  1
  O  O375  1  0.62940451  0.38070753  0.13353891  1
  O  O376  1  0.63326939  0.38541356  0.61301118  1
  O  O377  1  0.61717308  0.88871346  0.13509301  1
  O  O378  1  0.62609710  0.88185771  0.63484362  1
  O  O379  1  0.11766231  0.24191233  0.26093173  1
  O  O380  1  0.12361673  0.24234520  0.75864048  1
  O  O381  1  0.12056337  0.75228121  0.26269701  1
  O  O382  1  0.10653381  0.75312037  0.74880251  1
  O  O383  1  0.63517002  0.26158056  0.26099120  1
  O  O384  1  0.61502145  0.24688764  0.75899645  1
  O  O385  1  0.61304598  0.75768980  0.25606130  1
  O  O386  1  0.60960235  0.75812691  0.75688377  1
  O  O387  1  0.37243420  0.24003974  0.23861606  1
  O  O388  1  0.38941147  0.24225004  0.74500942  1
  O  O389  1  0.38460708  0.75881096  0.24139166  1
  O  O390  1  0.38518163  0.75386598  0.74613259  1
  O  O391  1  0.88272144  0.24760245  0.24606102  1
  O  O392  1  0.87335454  0.24312268  0.74778217  1
  O  O393  1  0.88950636  0.73657937  0.26313126  1
  O  O394  1  0.88351288  0.73145873  0.75027333  1
  O  O395  1  0.38253203  0.49299022  0.48767224  1
  O  O396  1  0.38427611  0.48847401  1.00578518  1
  O  O397  1  0.37624872  0.98924774  0.49674031  1
  O  O398  1  0.38226525  0.99046489  1.00323664  1
  O  O399  1  0.87437852  0.48833729  0.49414845  1
  O  O400  1  0.87771110  0.48803930  0.99179864  1
  O  O401  1  0.87994897  0.99338107  0.49091412  1
  O  O402  1  0.88923973  1.00352118  0.99913357  1
  O  O403  1  0.11775682  0.00804708  0.00669613  1
  O  O404  1  0.12264994  0.00731026  0.50340514  1
  O  O405  1  0.10883155  0.49243378  -0.00596764  1
  O  O406  1  0.12339273  0.50095050  0.51239271  1
  O  O407  1  0.61267767  -0.00444336  0.01125356  1
  O  O408  1  0.62314053  0.00004579  0.51102836  1
  O  O409  1  0.61167269  0.48920965  0.01648838  1
  O  O410  1  0.62029935  0.50754763  0.50317252  1
  O  O411  1  0.36753207  0.36653335  0.12188549  1
  O  O412  1  0.37116999  0.36700805  0.61487476  1
  O  O413  1  0.37449750  0.86641212  0.11915415  1
  O  O414  1  0.36936264  0.87391618  0.61460192  1
  O  O415  1  0.86954240  0.37181272  0.11811886  1
  O  O416  1  0.86676978  0.37723085  0.61480233  1
  O  O417  1  0.86270470  0.87175014  0.16596597  1
  O  O418  1  0.87153597  0.88461040  0.60696268  1
  O  O419  1  0.11993797  0.13583837  0.38683789  1
  O  O420  1  0.12969705  0.13050976  0.87948763  1
  O  O421  1  0.13457779  0.63575090  0.38206357  1
  O  O422  1  0.14150763  0.63801705  0.87395582  1
  O  O423  1  0.63035258  0.13392182  0.37404217  1
  O  O424  1  0.63732615  0.11581641  0.87669804  1
  O  O425  1  0.63054417  0.62947806  0.37891908  1
  O  O426  1  0.60692860  0.61931748  0.85682943  1
