# generated using pymatgen
data_V85Zn86O256
_symmetry_space_group_name_H-M   'P 1'
_cell_length_a   16.99192603
_cell_length_b   16.98039984
_cell_length_c   16.99362637
_cell_angle_alpha   89.97317451
_cell_angle_beta   90.16288130
_cell_angle_gamma   89.95257996
_symmetry_Int_Tables_number   1
_chemical_formula_structural   V85Zn86O256
_chemical_formula_sum   'V85 Zn86 O256'
_cell_volume   4903.14385095
_cell_formula_units_Z   1
loop_
 _symmetry_equiv_pos_site_id
 _symmetry_equiv_pos_as_xyz
  1  'x, y, z'
loop_
 _atom_site_type_symbol
 _atom_site_label
 _atom_site_symmetry_multiplicity
 _atom_site_fract_x
 _atom_site_fract_y
 _atom_site_fract_z
 _atom_site_occupancy
  V  V0  1  0.11864480  0.26287180  0.87843456  1
  V  V1  1  0.37641924  0.62551041  0.75192725  1
  V  V2  1  0.24390886  0.50044522  0.25276307  1
  V  V3  1  0.74781584  0.49171932  0.74611479  1
  V  V4  1  0.50543461  0.74821063  0.74121891  1
  V  V5  1  0.75542763  0.00045871  0.74926070  1
  V  V6  1  0.87705870  0.12536263  0.75306282  1
  V  V7  1  0.12416404  0.12379523  0.00820936  1
  V  V8  1  0.00549239  0.12211512  0.62954921  1
  V  V9  1  0.24919948  0.37316744  0.62381358  1
  V  V10  1  0.25064606  0.63121111  0.38255852  1
  V  V11  1  0.62856131  0.74603869  0.87500064  1
  V  V12  1  0.74855393  0.24808043  0.48506209  1
  V  V13  1  0.24572340  0.12851674  0.37622534  1
  V  V14  1  0.25209205  0.37333230  0.12766221  1
  V  V15  1  0.37859367  0.24796291  0.63150337  1
  V  V16  1  0.89389733  0.74170896  0.62027356  1
  V  V17  1  0.74979556  0.25016605  0.00179415  1
  V  V18  1  0.74761186  0.49795267  0.25105482  1
  V  V19  1  0.48277720  0.13223110  0.12415255  1
  V  V20  1  0.12462935  0.87787528  0.23957148  1
  V  V21  1  0.50437791  0.88044301  0.87300295  1
  V  V22  1  0.87786180  0.49843054  0.37933023  1
  V  V23  1  0.62041291  0.36903812  0.74800433  1
  V  V24  1  0.62436546  0.75058414  0.37380128  1
  V  V25  1  0.87610196  0.75078610  0.13076636  1
  V  V26  1  0.13502158  0.75499984  0.37880247  1
  V  V27  1  0.62559113  0.49771047  0.12590997  1
  V  V28  1  0.75044263  0.37358851  0.12519141  1
  V  V29  1  0.62721643  0.00597847  0.12894936  1
  V  V30  1  0.11709608  0.38053538  0.75271406  1
  V  V31  1  0.87761457  0.88159193  0.49867515  1
  V  V32  1  0.37323304  0.00617138  0.37405019  1
  V  V33  1  0.75646697  0.87356761  0.62201629  1
  V  V34  1  0.87491606  0.00137553  0.88162119  1
  V  V35  1  0.74829362  0.12584881  0.87725519  1
  V  V36  1  0.63623091  0.87209542  0.74675108  1
  V  V37  1  0.62421381  0.12532362  0.00201267  1
  V  V38  1  0.63094047  0.12857557  0.48702915  1
  V  V39  1  0.25081388  0.25336328  0.00439018  1
  V  V40  1  -0.00196216  0.62036321  0.13024400  1
  V  V41  1  0.50755224  0.36896359  0.37433086  1
  V  V42  1  0.50193571  0.12879107  0.63038411  1
  V  V43  1  0.62166857  0.24920937  0.87251962  1
  V  V44  1  0.37507452  0.49880437  0.37614646  1
  V  V45  1  0.25390345  0.50339792  0.75006284  1
  V  V46  1  0.00197383  0.36765063  0.37806363  1
  V  V47  1  0.12521703  0.13200655  0.50086000  1
  V  V48  1  0.00418136  0.87418553  0.37332540  1
  V  V49  1  0.62340221  0.62151764  -0.00153722  1
  V  V50  1  0.24779938  0.11879524  0.86834764  1
  V  V51  1  0.49525954  0.74776273  0.24823746  1
  V  V52  1  0.37371467  0.37234441  0.00541469  1
  V  V53  1  0.87094227  0.63490856  0.25251386  1
  V  V54  1  0.88421194  0.49592125  0.87384686  1
  V  V55  1  0.63084466  0.00183371  0.62219550  1
  V  V56  1  0.86810257  0.25220769  0.62782432  1
  V  V57  1  0.49567346  0.36946256  0.87210047  1
  V  V58  1  0.22237716  0.88500188  0.66569829  1
  V  V59  1  0.00004897  -0.00054127  0.00774107  1
  V  V60  1  0.49852770  0.62232270  0.12546532  1
  V  V61  1  0.62161866  0.87915911  0.25016746  1
  V  V62  1  0.87478920  0.87373445  -0.00096189  1
  V  V63  1  0.12537380  0.36300843  0.25762591  1
  V  V64  1  0.74755349  0.62566366  0.37435390  1
  V  V65  1  0.50167391  0.00022589  0.49775170  1
  V  V66  1  0.74328848  0.87558558  0.12479797  1
  V  V67  1  0.50153058  0.49807682  0.49869560  1
  V  V68  1  0.74971392  0.75028173  0.49978935  1
  V  V69  1  0.62706325  0.49554497  0.62386181  1
  V  V70  1  0.37573614  0.37304568  0.50095395  1
  V  V71  1  0.11427665  0.50508564  0.61500901  1
  V  V72  1  0.49196330  0.24572534  0.25222014  1
  V  V73  1  0.62386243  0.62399459  0.49968947  1
  V  V74  1  0.87621735  0.62575268  0.74160038  1
  V  V75  1  0.85539022  0.11397169  0.26362139  1
  V  V76  1  0.24842060  0.00192618  0.23979217  1
  V  V77  1  0.88189193  0.37558018  -0.00279167  1
  V  V78  1  0.74813411  0.62227640  0.87360063  1
  V  V79  1  -0.00139620  0.12587029  0.13277609  1
  V  V80  1  0.37113797  0.62682767  0.24525714  1
  V  V81  1  0.49964952  0.49677610  0.00041723  1
  V  V82  1  0.87504246  0.37533890  0.50417187  1
  V  V83  1  0.00620918  0.00104497  0.49983642  1
  V  V84  1  0.36345782  0.87167487  0.50333798  1
  Zn  Zn85  1  0.49571277  0.62494990  0.62034224  1
  Zn  Zn86  1  0.87481447  0.24944901  0.13041073  1
  Zn  Zn87  1  0.13554862  0.62399304  -0.00266516  1
  Zn  Zn88  1  0.00331216  0.49894110  -0.00050627  1
  Zn  Zn89  1  0.37301345  0.50658784  0.87979245  1
  Zn  Zn90  1  0.35616367  0.87771569  0.01510807  1
  Zn  Zn91  1  0.18164170  -0.06120676  0.06608133  1
  Zn  Zn92  1  0.36840882  -0.00454698  0.86773939  1
  Zn  Zn93  1  0.62923946  0.36600538  0.25616220  1
  Zn  Zn94  1  0.12014779  0.49821987  0.13163379  1
  Zn  Zn95  1  0.49663262  0.87429276  0.37413166  1
  Zn  Zn96  1  0.26126609  0.74542648  0.00701112  1
  Zn  Zn97  1  0.10161868  0.63549651  0.50865205  1
  Zn  Zn98  1  0.37075161  0.12152637  0.74830613  1
  Zn  Zn99  1  0.74920514  0.74709016  -0.00095205  1
  Zn  Zn100  1  0.35963519  0.75139964  0.61852948  1
  Zn  Zn101  1  -0.00163002  0.24289075  0.25663932  1
  Zn  Zn102  1  0.04518627  0.78789855  0.80118103  1
  Zn  Zn103  1  0.20262888  0.67102219  0.84970631  1
  Zn  Zn104  1  0.49434117  -0.00371351  0.00448410  1
  Zn  Zn105  1  -0.00321126  0.25568870  0.75541034  1
  Zn  Zn106  1  0.24648047  0.25095432  0.49519312  1
  Zn  Zn107  1  0.19243151  0.18541267  0.18952032  1
  Zn  Zn108  1  0.18306996  0.19466570  0.68859834  1
  Zn  Zn109  1  0.16399643  0.72453998  0.15283124  1
  Zn  Zn110  1  0.18376127  0.69596785  0.67794955  1
  Zn  Zn111  1  0.68194007  0.19122987  0.19567259  1
  Zn  Zn112  1  0.68812520  0.18630526  0.68438015  1
  Zn  Zn113  1  0.68570394  0.69009504  0.18609521  1
  Zn  Zn114  1  0.69292274  0.68349163  0.68394207  1
  Zn  Zn115  1  0.31779147  0.30997195  0.31194658  1
  Zn  Zn116  1  0.30739094  0.31239838  0.81432974  1
  Zn  Zn117  1  0.31155210  0.81804323  0.30850765  1
  Zn  Zn118  1  0.32435659  0.80174773  0.81619622  1
  Zn  Zn119  1  0.81852667  0.30670210  0.30988352  1
  Zn  Zn120  1  0.81095221  0.31204712  0.81477279  1
  Zn  Zn121  1  0.79681055  0.84621888  0.32849531  1
  Zn  Zn122  1  0.86416926  0.83880019  0.78274444  1
  Zn  Zn123  1  0.18727147  0.43827654  0.43654087  1
  Zn  Zn124  1  0.16803314  0.47316658  0.92141230  1
  Zn  Zn125  1  0.18592500  0.94547186  0.43737030  1
  Zn  Zn126  1  0.20339632  0.88857396  0.88394606  1
  Zn  Zn127  1  0.69293261  0.43424456  0.44081710  1
  Zn  Zn128  1  0.68857202  0.43534446  0.93584692  1
  Zn  Zn129  1  0.68982690  0.94610292  0.43271178  1
  Zn  Zn130  1  0.68419215  0.93817592  0.94072532  1
  Zn  Zn131  1  0.31597331  0.05953383  0.04893023  1
  Zn  Zn132  1  0.30859352  0.05534279  0.56773244  1
  Zn  Zn133  1  0.30926098  0.56254856  0.06293601  1
  Zn  Zn134  1  0.31263557  0.56224825  0.56484616  1
  Zn  Zn135  1  0.81209178  0.06364229  0.07192633  1
  Zn  Zn136  1  0.81719024  0.06560178  0.56042683  1
  Zn  Zn137  1  0.81297725  0.55971521  0.06188940  1
  Zn  Zn138  1  0.81021068  0.56086423  0.56049584  1
  Zn  Zn139  1  0.43639292  0.43593323  0.19074337  1
  Zn  Zn140  1  0.43938808  0.43729859  0.68530591  1
  Zn  Zn141  1  0.43490180  0.94691586  0.19059942  1
  Zn  Zn142  1  0.43707472  0.94097942  0.68786985  1
  Zn  Zn143  1  0.93584582  0.43652871  0.19640130  1
  Zn  Zn144  1  0.93665524  0.44203536  0.68486938  1
  Zn  Zn145  1  0.93635569  0.93932147  0.18891167  1
  Zn  Zn146  1  1.02454502  0.93326503  0.69615673  1
  Zn  Zn147  1  0.06517664  0.05800125  0.31642735  1
  Zn  Zn148  1  0.06076922  0.06734582  0.82550397  1
  Zn  Zn149  1  0.04280473  0.58387407  0.34260958  1
  Zn  Zn150  1  0.07290295  0.59344974  0.79345887  1
  Zn  Zn151  1  0.55972938  0.06626452  0.30897177  1
  Zn  Zn152  1  0.56796464  0.06178889  0.80683076  1
  Zn  Zn153  1  0.56201073  0.55896690  0.31226272  1
  Zn  Zn154  1  0.55779068  0.55801218  0.81078268  1
  Zn  Zn155  1  0.43554748  0.18815941  0.44225018  1
  Zn  Zn156  1  0.43439169  0.18843288  0.93821932  1
  Zn  Zn157  1  0.43651304  0.68776512  0.43450564  1
  Zn  Zn158  1  0.43671887  0.69173389  0.93856774  1
  Zn  Zn159  1  0.93454252  0.18504490  0.43792385  1
  Zn  Zn160  1  0.93747466  0.18932307  0.94308797  1
  Zn  Zn161  1  0.93912508  0.69699098  0.43390692  1
  Zn  Zn162  1  0.93219095  0.68114008  0.93711414  1
  Zn  Zn163  1  0.06457675  0.31140308  0.07071009  1
  Zn  Zn164  1  0.05737724  0.31183876  0.56487467  1
  Zn  Zn165  1  0.05112451  0.79252518  0.00004294  1
  Zn  Zn166  1  0.07135707  0.81507060  0.56008388  1
  Zn  Zn167  1  0.56267482  0.30939962  0.06378378  1
  Zn  Zn168  1  0.56472183  0.31024021  0.56159068  1
  Zn  Zn169  1  0.52225561  0.82887953  0.07889007  1
  Zn  Zn170  1  0.56529790  0.81637627  0.56012647  1
  O  O171  1  0.11887874  0.13296910  0.11367923  1
  O  O172  1  0.11340926  0.13262571  0.62065678  1
  O  O173  1  0.09889636  0.62618254  0.14738355  1
  O  O174  1  0.13670060  0.61020136  0.61570972  1
  O  O175  1  0.62525982  0.11886676  0.12014924  1
  O  O176  1  0.62078104  0.12075763  0.61465070  1
  O  O177  1  0.62057738  0.61657469  0.11883705  1
  O  O178  1  0.62407656  0.61219922  0.61803435  1
  O  O179  1  0.38320380  0.37959550  0.38185881  1
  O  O180  1  0.38281208  0.37309118  0.88263967  1
  O  O181  1  0.37757891  0.88654942  0.38505326  1
  O  O182  1  0.40170251  0.87488319  0.86445658  1
  O  O183  1  0.87883321  0.38007533  0.38198850  1
  O  O184  1  0.86736187  0.38329577  0.88566622  1
  O  O185  1  0.89347973  0.85827827  0.39203738  1
  O  O186  1  0.86470674  0.88862405  0.89004683  1
  O  O187  1  0.25669680  0.00966135  0.36971379  1
  O  O188  1  0.24441956  0.01935550  0.87828818  1
  O  O189  1  0.25555897  0.50562251  0.36900142  1
  O  O190  1  0.26089508  0.48508374  0.85277706  1
  O  O191  1  0.76742631  -0.04716426  0.35823950  1
  O  O192  1  0.75496710  0.00734661  0.87393674  1
  O  O193  1  0.75569953  0.50412638  0.37056496  1
  O  O194  1  0.75219006  0.50682256  0.86606694  1
  O  O195  1  0.25034202  0.48900129  0.13745458  1
  O  O196  1  0.24889601  0.48820046  0.63128610  1
  O  O197  1  0.25371167  1.00631109  0.13571868  1
  O  O198  1  0.25223821  0.97370413  0.62720104  1
  O  O199  1  0.74545123  0.49203622  0.13053131  1
  O  O200  1  0.73872846  0.50102040  0.63429378  1
  O  O201  1  0.73628875  0.98927262  0.12048990  1
  O  O202  1  0.75033764  0.99562045  0.62807654  1
  O  O203  1  0.00878381  0.36930973  0.25691639  1
  O  O204  1  0.01343342  0.37764220  0.74535943  1
  O  O205  1  0.01515531  0.89183948  0.26120705  1
  O  O206  1  -0.02961167  0.85200583  0.74696886  1
  O  O207  1  0.50090451  0.36701090  0.25813037  1
  O  O208  1  0.50863354  0.38021627  0.76024347  1
  O  O209  1  0.50698116  0.86568755  0.25056226  1
  O  O210  1  0.51586334  0.86713580  0.75248262  1
  O  O211  1  0.49927401  0.13610500  0.23867259  1
  O  O212  1  0.50784431  0.12491468  0.73242628  1
  O  O213  1  0.49162535  0.62796111  0.24793229  1
  O  O214  1  0.49657562  0.63104020  0.74399089  1
  O  O215  1  1.00771277  0.12228535  0.24048450  1
  O  O216  1  0.99649604  0.12591165  0.74566722  1
  O  O217  1  0.97777232  0.62063514  0.24746745  1
  O  O218  1  0.97415395  0.61254596  0.74737019  1
  O  O219  1  0.36226431  0.26123450  -0.00399357  1
  O  O220  1  0.37033883  0.25616706  0.51179595  1
  O  O221  1  0.37532704  0.76617719  -0.01032147  1
  O  O222  1  0.38386561  0.76754841  0.49835522  1
  O  O223  1  0.86699520  0.25925886  0.00225134  1
  O  O224  1  0.86457186  0.25290454  0.50663878  1
  O  O225  1  0.86987777  0.75988743  0.00872721  1
  O  O226  1  0.86771181  0.75118982  0.50467683  1
  O  O227  1  0.12562006  0.23771920  0.50439046  1
  O  O228  1  0.13180876  0.24844699  0.99620893  1
  O  O229  1  0.12954369  0.75011472  0.48572437  1
  O  O230  1  0.13857382  0.73546058  1.03425199  1
  O  O231  1  0.64174579  0.24447411  0.50621432  1
  O  O232  1  0.63056626  0.24507245  0.99335884  1
  O  O233  1  0.62867408  0.74501070  0.49332554  1
  O  O234  1  0.62567971  0.73909177  0.98267468  1
  O  O235  1  0.50051540  0.23889060  0.13170942  1
  O  O236  1  0.49062552  0.24065617  0.61608051  1
  O  O237  1  0.51034695  0.73479338  0.14080845  1
  O  O238  1  0.50887757  0.74916385  0.63543182  1
  O  O239  1  0.99761222  0.23817181  0.12920502  1
  O  O240  1  0.98812989  0.24008409  0.62827825  1
  O  O241  1  0.97890429  0.73725201  0.12659728  1
  O  O242  1  0.99252058  0.74078937  0.60766438  1
  O  O243  1  -0.00596097  0.26320068  0.37503637  1
  O  O244  1  0.01457397  0.24603939  0.87738610  1
  O  O245  1  0.01731492  0.76666565  0.37375883  1
  O  O246  1  0.01315866  0.74839205  0.90304080  1
  O  O247  1  0.49210629  0.25558392  0.36465157  1
  O  O248  1  0.50570368  0.26093289  0.88086553  1
  O  O249  1  0.50691688  0.74936949  0.36413704  1
  O  O250  1  0.51354443  0.75554005  0.86002958  1
  O  O251  1  0.24029494  0.12174035  0.49709658  1
  O  O252  1  0.24180313  0.13471003  0.99596606  1
  O  O253  1  0.25241975  0.61885455  0.48340856  1
  O  O254  1  0.25456660  0.62606345  0.99181239  1
  O  O255  1  0.74590329  0.13730138  0.50269320  1
  O  O256  1  0.74429563  0.12981747  0.99731317  1
  O  O257  1  0.74225572  0.62963088  0.49273392  1
  O  O258  1  0.74311773  0.62076047  0.98917833  1
  O  O259  1  0.25608971  0.37022922  0.01058229  1
  O  O260  1  0.25580393  0.37435629  0.50847077  1
  O  O261  1  0.24327290  0.88539076  -0.00871179  1
  O  O262  1  0.26443816  0.88040834  0.49576384  1
  O  O263  1  0.75708987  0.37116734  0.00727565  1
  O  O264  1  0.76071020  0.35963886  0.49833184  1
  O  O265  1  0.75451334  0.87300425  0.00998926  1
  O  O266  1  0.75907553  0.87029975  0.50433327  1
  O  O267  1  0.13860321  0.48998932  0.25295029  1
  O  O268  1  0.13602136  0.49699297  0.73566175  1
  O  O269  1  0.14010865  0.99232651  0.25445832  1
  O  O270  1  0.10214441  0.96728120  0.78304822  1
  O  O271  1  0.63087483  0.49465714  0.24398994  1
  O  O272  1  0.62901468  0.49151415  0.74318131  1
  O  O273  1  0.61488357  0.99028136  0.24121567  1
  O  O274  1  0.63785494  0.99399907  0.74162981  1
  O  O275  1  0.36072641  -0.00553559  0.26145644  1
  O  O276  1  0.38537437  0.00993355  0.75775257  1
  O  O277  1  0.36743039  0.50427940  0.25768658  1
  O  O278  1  0.37065009  0.50961495  0.74355857  1
  O  O279  1  0.87453557  0.01623605  0.24266683  1
  O  O280  1  0.87060272  0.00805130  0.76841478  1
  O  O281  1  0.86346962  0.50603269  0.26031544  1
  O  O282  1  0.86317687  0.49984764  0.75398085  1
  O  O283  1  0.11382685  0.38179967  0.36916006  1
  O  O284  1  0.13100504  0.37390710  0.86552600  1
  O  O285  1  0.12359141  0.87217711  0.37216256  1
  O  O286  1  0.09777731  0.90416467  0.84214686  1
  O  O287  1  0.61107423  0.37863704  0.37817024  1
  O  O288  1  0.61592807  0.36993544  0.86870406  1
  O  O289  1  0.61986880  0.86912646  0.36405364  1
  O  O290  1  0.62981905  0.86393943  0.86435434  1
  O  O291  1  0.38490557  0.12432555  0.11841295  1
  O  O292  1  0.38283544  0.13057293  0.62275504  1
  O  O293  1  0.38377358  0.61252039  0.13923491  1
  O  O294  1  0.37546432  0.63340694  0.63166187  1
  O  O295  1  0.88373475  0.12795497  0.13354722  1
  O  O296  1  0.88349510  0.13203660  0.63306466  1
  O  O297  1  0.87213118  0.63041693  0.13473021  1
  O  O298  1  0.86469813  0.63061484  0.62919411  1
  O  O299  1  0.24490931  0.26020561  0.11605747  1
  O  O300  1  0.25543575  0.26080870  0.62300010  1
  O  O301  1  0.26737519  0.75146491  0.12475244  1
  O  O302  1  0.24794283  0.78298390  0.63803568  1
  O  O303  1  0.74755857  0.26038749  0.11985683  1
  O  O304  1  0.76494787  0.24614369  0.62191968  1
  O  O305  1  0.75386285  0.75639752  0.11859434  1
  O  O306  1  0.75019160  0.75594428  0.61480945  1
  O  O307  1  0.26091330  0.23358068  0.37632161  1
  O  O308  1  0.23762528  0.24892349  0.88695088  1
  O  O309  1  0.24719813  0.74362982  0.36855819  1
  O  O310  1  0.24190287  0.76882461  0.88535218  1
  O  O311  1  0.75130742  0.25030007  0.38681666  1
  O  O312  1  0.74210110  0.24439256  0.88166573  1
  O  O313  1  0.74272884  0.74713841  0.38064158  1
  O  O314  1  0.74198641  0.73148991  0.87216655  1
  O  O315  1  0.00527775  0.12138595  0.01129321  1
  O  O316  1  0.00454582  0.11975462  0.50725287  1
  O  O317  1  -0.00977320  0.62055399  0.02346176  1
  O  O318  1  0.00974211  0.61365729  0.45114234  1
  O  O319  1  0.50451052  0.12996055  0.01239402  1
  O  O320  1  0.50888324  0.11745259  0.50615283  1
  O  O321  1  0.50355795  0.61711476  0.00433411  1
  O  O322  1  0.50638058  0.61700812  0.49822515  1
  O  O323  1  0.49579839  0.37740881  0.49287133  1
  O  O324  1  0.49207937  0.37615025  0.99553165  1
  O  O325  1  0.50176992  0.89070955  0.49648234  1
  O  O326  1  0.52069252  0.87220311  0.97358908  1
  O  O327  1  0.98557504  0.36884729  0.49240497  1
  O  O328  1  0.98484168  0.37636893  1.01251669  1
  O  O329  1  0.99871809  0.88393375  0.49721566  1
  O  O330  1  0.98488898  0.88622218  1.01067896  1
  O  O331  1  0.49467419  0.49015260  0.37929539  1
  O  O332  1  0.49813424  0.48689440  0.88215852  1
  O  O333  1  0.49103094  1.00410993  0.38198060  1
  O  O334  1  0.51526357  0.98461668  0.87135449  1
  O  O335  1  0.98200031  0.48392673  0.36434723  1
  O  O336  1  0.98328564  0.50486519  0.87629327  1
  O  O337  1  1.00643743  0.98882141  0.38922781  1
  O  O338  1  0.98183005  1.01465570  0.89598762  1
  O  O339  1  -0.00566956  0.01107594  0.11496991  1
  O  O340  1  -0.00056713  0.01397917  0.61822955  1
  O  O341  1  -0.00676628  0.51187244  0.13141350  1
  O  O342  1  0.01570072  0.50089093  0.62642773  1
  O  O343  1  0.50879596  0.02172628  0.12767993  1
  O  O344  1  0.50950414  0.00815120  0.61446743  1
  O  O345  1  0.50607175  0.50169551  0.12039590  1
  O  O346  1  0.50983566  0.50069443  0.61682516  1
  O  O347  1  0.24697314  0.37897564  0.24785400  1
  O  O348  1  0.24275620  0.38015257  0.73875996  1
  O  O349  1  0.24021991  0.89128534  0.25280182  1
  O  O350  1  0.24886251  0.88393591  0.76433286  1
  O  O351  1  0.75016064  0.37764543  0.24179664  1
  O  O352  1  0.73694502  0.38513910  0.75851112  1
  O  O353  1  0.73149867  0.86274736  0.23177738  1
  O  O354  1  0.75686521  0.88184381  0.74102828  1
  O  O355  1  0.24261202  0.11098230  0.26014550  1
  O  O356  1  0.24141381  0.13253197  0.76617982  1
  O  O357  1  0.26179341  0.61368105  0.25843822  1
  O  O358  1  0.26104270  0.61867426  0.74788017  1
  O  O359  1  0.75598309  0.12563505  0.25020728  1
  O  O360  1  0.75551113  0.11978317  0.75661570  1
  O  O361  1  0.75169029  0.61853929  0.25522599  1
  O  O362  1  0.75278557  0.61055560  0.75589862  1
  O  O363  1  0.36544079  0.11228830  0.38691520  1
  O  O364  1  0.35573926  0.13365047  0.87450208  1
  O  O365  1  0.37013175  0.61901804  0.36665042  1
  O  O366  1  0.38526666  0.62380830  0.85721583  1
  O  O367  1  0.87870994  0.12298540  0.36230188  1
  O  O368  1  0.86704613  0.12188432  0.87507095  1
  O  O369  1  0.86511789  0.61895242  0.36900186  1
  O  O370  1  0.86371085  0.61644018  0.86679059  1
  O  O371  1  0.13487335  0.37632944  0.13888861  1
  O  O372  1  0.13141332  0.38178490  0.63026053  1
  O  O373  1  0.11798022  0.87867857  0.13964517  1
  O  O374  1  0.11913042  0.87634126  0.64481996  1
  O  O375  1  0.63679139  0.38039684  0.12175406  1
  O  O376  1  0.61734217  0.38448931  0.63464367  1
  O  O377  1  0.62318801  0.88480203  0.12967391  1
  O  O378  1  0.63634824  0.88191366  0.62739853  1
  O  O379  1  0.12815792  0.26082410  0.25176033  1
  O  O380  1  0.12293983  0.26420743  0.76059320  1
  O  O381  1  0.13183330  0.77375057  0.25734748  1
  O  O382  1  0.11706557  0.70494596  0.76801502  1
  O  O383  1  0.60484765  0.25458929  0.24719184  1
  O  O384  1  0.63273975  0.26152802  0.75456415  1
  O  O385  1  0.61591491  0.75563386  0.25504197  1
  O  O386  1  0.62516937  0.75025862  0.75517864  1
  O  O387  1  0.39141391  0.25647431  0.24366402  1
  O  O388  1  0.36762927  0.24641300  0.73543038  1
  O  O389  1  0.38591248  0.74071227  0.25781928  1
  O  O390  1  0.38948998  0.74302607  0.74334877  1
  O  O391  1  0.87865038  0.23327555  0.24755436  1
  O  O392  1  0.87614377  0.24579449  0.74644927  1
  O  O393  1  0.85946393  0.74087012  0.24370099  1
  O  O394  1  0.86329886  0.73443894  0.73171777  1
  O  O395  1  0.38203420  0.49323680  0.49638244  1
  O  O396  1  0.38053664  0.48741479  0.99857964  1
  O  O397  1  0.38390166  0.99156075  0.49525451  1
  O  O398  1  0.38156574  0.99467295  0.98302852  1
  O  O399  1  0.86297112  0.48784702  0.48992643  1
  O  O400  1  0.87355224  0.49183091  0.99055256  1
  O  O401  1  0.88732527  0.98892305  0.50707500  1
  O  O402  1  0.87590517  0.99366003  0.99985630  1
  O  O403  1  0.11265380  0.01250379  0.00173654  1
  O  O404  1  0.11462487  0.01162499  0.50299613  1
  O  O405  1  0.11747674  0.50468418  0.01754184  1
  O  O406  1  0.12759073  0.49467151  0.51438187  1
  O  O407  1  0.61747795  0.00675226  0.01083595  1
  O  O408  1  0.62238422  0.00752302  0.50205636  1
  O  O409  1  0.61943925  0.50246829  0.00438600  1
  O  O410  1  0.62317176  0.50189269  0.50677121  1
  O  O411  1  0.36556427  0.37897041  0.11646807  1
  O  O412  1  0.36938353  0.36803113  0.62176289  1
  O  O413  1  0.42439632  0.88142578  0.10421313  1
  O  O414  1  0.38318154  0.87517152  0.60838334  1
  O  O415  1  0.86271637  0.37641411  0.11968708  1
  O  O416  1  0.88296947  0.36570055  0.61572064  1
  O  O417  1  0.86397324  0.86985822  0.12228663  1
  O  O418  1  0.87176473  0.85801345  0.60870402  1
  O  O419  1  0.13465818  0.12026405  0.38729425  1
  O  O420  1  0.13234862  0.13699728  0.88789788  1
  O  O421  1  0.14043262  0.64160071  0.36175419  1
  O  O422  1  0.13553136  0.58495745  0.88509753  1
  O  O423  1  0.62049573  0.12203650  0.38830209  1
  O  O424  1  0.62834992  0.12949855  0.88051730  1
  O  O425  1  0.62914764  0.62862659  0.37940127  1
  O  O426  1  0.62921700  0.62564571  0.87622957  1
