# generated using pymatgen
data_V85Zn86O256
_symmetry_space_group_name_H-M   'P 1'
_cell_length_a   16.95414112
_cell_length_b   17.01527884
_cell_length_c   16.99982873
_cell_angle_alpha   89.90516616
_cell_angle_beta   89.82026795
_cell_angle_gamma   90.03671122
_symmetry_Int_Tables_number   1
_chemical_formula_structural   V85Zn86O256
_chemical_formula_sum   'V85 Zn86 O256'
_cell_volume   4904.06917971
_cell_formula_units_Z   1
loop_
 _symmetry_equiv_pos_site_id
 _symmetry_equiv_pos_as_xyz
  1  'x, y, z'
loop_
 _atom_site_type_symbol
 _atom_site_label
 _atom_site_symmetry_multiplicity
 _atom_site_fract_x
 _atom_site_fract_y
 _atom_site_fract_z
 _atom_site_occupancy
  V  V0  1  0.13021412  0.24595911  0.37589692  1
  V  V1  1  0.62742274  0.37573888  0.75005494  1
  V  V2  1  0.25498432  0.50037343  0.24984467  1
  V  V3  1  0.37580184  0.12603807  0.74742902  1
  V  V4  1  -0.00672641  0.74409913  0.25126067  1
  V  V5  1  0.13199894  0.12441278  0.49875370  1
  V  V6  1  0.63051467  0.24543255  0.87589228  1
  V  V7  1  0.49558750  0.24771046  0.25804450  1
  V  V8  1  0.87091760  0.12683610  0.75608510  1
  V  V9  1  0.25908754  0.00545745  0.25726142  1
  V  V10  1  0.00134589  0.12984275  0.63223354  1
  V  V11  1  0.49861447  0.39948347  0.37282562  1
  V  V12  1  0.87625897  0.50092356  0.87384959  1
  V  V13  1  0.62977871  -0.00190016  0.13623323  1
  V  V14  1  0.50826151  -0.00081159  0.50962167  1
  V  V15  1  0.00004357  0.62555835  0.62506202  1
  V  V16  1  0.50205205  0.62675101  0.12026364  1
  V  V17  1  0.12564829  0.74622269  0.37531385  1
  V  V18  1  0.75050780  0.37590418  0.62588980  1
  V  V19  1  0.25013522  0.75198454  0.50078699  1
  V  V20  1  0.75023606  0.74299022  0.49687372  1
  V  V21  1  0.25672820  0.62168454  0.37208978  1
  V  V22  1  0.49943876  0.74894432  0.24871672  1
  V  V23  1  0.37164205  0.88083632  0.49673409  1
  V  V24  1  0.49455489  0.12590411  0.13161350  1
  V  V25  1  0.36979700  0.87158036  0.00743290  1
  V  V26  1  0.37320281  0.74799241  0.62378011  1
  V  V27  1  0.87509201  0.76155818  0.11500874  1
  V  V28  1  0.37010083  -0.00036254  0.87394945  1
  V  V29  1  0.13369952  0.87289618  0.24544697  1
  V  V30  1  0.12125454  0.11957502  0.00105209  1
  V  V31  1  0.37597320  0.39363177  0.49873247  1
  V  V32  1  0.50021874  0.87344671  0.87597008  1
  V  V33  1  0.49951921  0.74919748  0.75214547  1
  V  V34  1  0.63982618  0.25719327  0.38582586  1
  V  V35  1  -0.00033348  0.87917841  0.37408269  1
  V  V36  1  0.13243749  -0.00335482  0.63697663  1
  V  V37  1  0.37443365  0.24676300  0.12926888  1
  V  V38  1  0.12755201  0.75547881  0.86840561  1
  V  V39  1  0.00491953  0.75918508  0.74953120  1
  V  V40  1  0.12222829  0.24681988  0.87326248  1
  V  V41  1  0.00116307  0.37514227  0.37686638  1
  V  V42  1  0.00013497  0.24759776  0.24883119  1
  V  V43  1  0.12522986  0.62428624  0.50011968  1
  V  V44  1  0.63555430  0.50003976  0.11955227  1
  V  V45  1  0.12823321  0.49300549  0.62457700  1
  V  V46  1  0.24997322  0.24794525  0.00126759  1
  V  V47  1  -0.00052899  0.36840059  0.87133890  1
  V  V48  1  0.87586398  0.24579643  0.12716654  1
  V  V49  1  0.75804447  0.11329629  0.38272152  1
  V  V50  1  0.62016436  0.88025639  0.74273866  1
  V  V51  1  0.74522141  0.00375489  0.74541615  1
  V  V52  1  -0.00441445  0.62196645  0.12770604  1
  V  V53  1  0.63315290  0.37310184  0.23632014  1
  V  V54  1  -0.00134979  0.00170476  0.49881300  1
  V  V55  1  0.49828072  0.00101755  0.00207969  1
  V  V56  1  0.24366461  0.62277829  0.87848820  1
  V  V57  1  0.74657227  0.63071754  0.88642839  1
  V  V58  1  0.87166850  0.62814600  0.74896850  1
  V  V59  1  0.49954720  0.24976641  0.74578543  1
  V  V60  1  0.87357502  0.75345742  0.62663365  1
  V  V61  1  0.62694911  0.74616086  0.37550454  1
  V  V62  1  0.87105375  0.37368307  0.00235507  1
  V  V63  1  0.37466314  0.37318496  -0.00036277  1
  V  V64  1  0.49914692  0.37476955  0.87625874  1
  V  V65  1  0.12348713  0.36793917  0.74912361  1
  V  V66  1  0.87490736  0.87723508  0.49735427  1
  V  V67  1  0.12651516  0.50244982  0.12417508  1
  V  V68  1  0.62249014  0.62028031  0.50357798  1
  V  V69  1  0.50183763  0.61902103  0.62376274  1
  V  V70  1  0.87626295  0.25103562  0.63210422  1
  V  V71  1  0.37478326  0.62227771  0.75024548  1
  V  V72  1  0.74793484  0.25169622  0.00773675  1
  V  V73  1  0.62713359  0.12511666  -0.00100924  1
  V  V74  1  0.24289515  0.74648355  0.00877336  1
  V  V75  1  0.87241002  0.37008027  0.50431040  1
  V  V76  1  0.50111097  0.50311678  0.00005524  1
  V  V77  1  0.87054332  -0.00720047  0.87821846  1
  V  V78  1  0.24956822  0.37402099  0.12505134  1
  V  V79  1  0.13272528  -0.00559898  0.12310843  1
  V  V80  1  0.49607646  0.87923018  0.37399615  1
  V  V81  1  0.24960556  0.12042137  0.87094873  1
  V  V82  1  -0.00431445  0.49824910  0.49727815  1
  V  V83  1  0.00579388  0.50399050  -0.00108908  1
  V  V84  1  0.24926339  0.49420448  0.74866674  1
  Zn  Zn85  1  0.37352302  0.49870191  0.87593072  1
  Zn  Zn86  1  0.23735305  0.86788460  0.65034454  1
  Zn  Zn87  1  0.50821568  0.11264354  0.63049312  1
  Zn  Zn88  1  0.36916130  0.26010319  0.62229046  1
  Zn  Zn89  1  0.38379638  0.61687167  0.25468315  1
  Zn  Zn90  1  0.73797000  0.77580894  0.01501048  1
  Zn  Zn91  1  0.25616373  0.26036437  0.50549368  1
  Zn  Zn92  1  0.36773844  0.74841901  0.12934074  1
  Zn  Zn93  1  0.76856704  -0.00849466  0.24789720  1
  Zn  Zn94  1  0.62094695  0.74296417  0.88474953  1
  Zn  Zn95  1  0.87714262  0.12112964  0.26040916  1
  Zn  Zn96  1  0.12731905  0.37306888  0.24957814  1
  Zn  Zn97  1  0.00119036  0.87491137  0.87733635  1
  Zn  Zn98  1  0.74917278  0.50271655  0.75141110  1
  Zn  Zn99  1  0.62606698  0.49772115  0.62237069  1
  Zn  Zn100  1  0.63135411  0.87065343  0.24190341  1
  Zn  Zn101  1  0.27029799  0.12663543  0.37508852  1
  Zn  Zn102  1  0.73750938  0.88112719  0.61779358  1
  Zn  Zn103  1  0.00000631  0.11931254  0.12866076  1
  Zn  Zn104  1  0.77977479  0.54173685  0.27314052  1
  Zn  Zn105  1  -0.01171530  -0.01219423  0.00514269  1
  Zn  Zn106  1  0.63503386  0.11925429  0.50707682  1
  Zn  Zn107  1  0.18775387  0.18385874  0.18843645  1
  Zn  Zn108  1  0.19118369  0.18768482  0.68380839  1
  Zn  Zn109  1  0.17908755  0.67883599  0.19094283  1
  Zn  Zn110  1  0.18801928  0.68173437  0.68788426  1
  Zn  Zn111  1  0.68734889  0.18178387  0.19605602  1
  Zn  Zn112  1  0.68952504  0.18825555  0.68110988  1
  Zn  Zn113  1  0.69133104  0.68610375  0.18355215  1
  Zn  Zn114  1  0.68561724  0.69459527  0.68990294  1
  Zn  Zn115  1  0.31674772  0.31722101  0.31654593  1
  Zn  Zn116  1  0.31030616  0.31009049  0.81431109  1
  Zn  Zn117  1  0.31400868  0.81115215  0.31266593  1
  Zn  Zn118  1  0.31099177  0.80954022  0.81484575  1
  Zn  Zn119  1  0.80578960  0.38346336  0.32514579  1
  Zn  Zn120  1  0.81227232  0.30821064  0.81466510  1
  Zn  Zn121  1  0.81105833  0.81241536  0.30998680  1
  Zn  Zn122  1  0.80460277  0.81826534  0.81641030  1
  Zn  Zn123  1  0.18800735  0.43818677  0.43486551  1
  Zn  Zn124  1  0.18676364  0.43495545  0.93691486  1
  Zn  Zn125  1  0.18731388  0.93815557  0.43844799  1
  Zn  Zn126  1  0.18650191  0.93109627  0.93747321  1
  Zn  Zn127  1  0.67947782  0.43246915  0.43902841  1
  Zn  Zn128  1  0.68918386  0.43853453  0.93535000  1
  Zn  Zn129  1  0.68780447  0.93044316  0.42517721  1
  Zn  Zn130  1  0.68765918  0.94239465  0.93630869  1
  Zn  Zn131  1  0.30957985  0.06015353  0.06406536  1
  Zn  Zn132  1  0.31589206  0.06177340  0.56293308  1
  Zn  Zn133  1  0.31741246  0.56397138  0.06362482  1
  Zn  Zn134  1  0.31218900  0.56300055  0.56182547  1
  Zn  Zn135  1  0.80927684  0.06305181  0.06241514  1
  Zn  Zn136  1  0.81299933  0.06431840  0.56579292  1
  Zn  Zn137  1  0.81965229  0.56574043  0.06203928  1
  Zn  Zn138  1  0.80960999  0.55729982  0.44579349  1
  Zn  Zn139  1  0.44049902  0.43454642  0.18597145  1
  Zn  Zn140  1  0.43779807  0.43761786  0.68690238  1
  Zn  Zn141  1  0.44102583  0.93355868  0.18559355  1
  Zn  Zn142  1  0.40738687  0.92432387  0.69828003  1
  Zn  Zn143  1  0.93771973  0.43067190  0.18377341  1
  Zn  Zn144  1  0.93919575  0.44091073  0.68767639  1
  Zn  Zn145  1  0.94411258  0.93797550  0.18676505  1
  Zn  Zn146  1  0.93762619  0.94269688  0.68779869  1
  Zn  Zn147  1  0.06668284  0.06116671  0.31070118  1
  Zn  Zn148  1  0.05724123  0.06015421  0.81443422  1
  Zn  Zn149  1  -0.05324427  0.55796601  0.31211125  1
  Zn  Zn150  1  0.06193712  0.56441339  0.81134357  1
  Zn  Zn151  1  0.43903744  0.06107545  0.31542569  1
  Zn  Zn152  1  0.56025918  0.06114515  0.81407175  1
  Zn  Zn153  1  0.59287843  0.57406611  0.29756237  1
  Zn  Zn154  1  0.56286656  0.56162527  0.81309600  1
  Zn  Zn155  1  0.44272151  0.19432364  0.44466838  1
  Zn  Zn156  1  0.43946449  0.18799649  0.93835878  1
  Zn  Zn157  1  0.43958229  0.68691740  0.43841098  1
  Zn  Zn158  1  0.43057111  0.68620707  0.93783821  1
  Zn  Zn159  1  0.93864662  0.19183652  0.44211832  1
  Zn  Zn160  1  0.93555339  0.18368249  0.93860979  1
  Zn  Zn161  1  0.93812199  0.68961503  0.43812014  1
  Zn  Zn162  1  0.94022183  0.68792734  0.93539155  1
  Zn  Zn163  1  0.06276603  0.31266187  0.06028045  1
  Zn  Zn164  1  0.06381663  0.30909942  0.56320432  1
  Zn  Zn165  1  0.06167848  0.81098639  0.06123698  1
  Zn  Zn166  1  0.06377596  0.81522244  0.56401358  1
  Zn  Zn167  1  0.55810776  0.31130659  0.06254929  1
  Zn  Zn168  1  0.55328933  0.31950352  0.56062117  1
  Zn  Zn169  1  0.56377174  0.81363582  0.05918500  1
  Zn  Zn170  1  0.55628895  0.80959437  0.56088081  1
  O  O171  1  0.12674109  0.11590309  0.11503464  1
  O  O172  1  0.11878249  0.11794787  0.61813642  1
  O  O173  1  0.11087030  0.61338831  0.12495367  1
  O  O174  1  0.11971226  0.61416852  0.62011388  1
  O  O175  1  0.61424311  0.11953554  0.11821919  1
  O  O176  1  0.61770346  0.13595865  0.61644430  1
  O  O177  1  0.61298547  0.60779369  0.12422665  1
  O  O178  1  0.61889956  0.62731021  0.62132108  1
  O  O179  1  0.39234462  0.37942071  0.37859460  1
  O  O180  1  0.38065967  0.37499076  0.88137278  1
  O  O181  1  0.38480865  0.86292441  0.38642420  1
  O  O182  1  0.38245530  0.88213616  0.88552978  1
  O  O183  1  0.89370393  0.36092487  0.39181379  1
  O  O184  1  0.88201413  0.37816662  0.88067547  1
  O  O185  1  0.88956824  0.86542452  0.38707946  1
  O  O186  1  0.87721385  0.89045495  0.86708535  1
  O  O187  1  0.24415876  0.00213254  0.36075104  1
  O  O188  1  0.26025002  0.00822367  0.88259832  1
  O  O189  1  0.23793679  0.51236719  0.36180962  1
  O  O190  1  0.24763623  0.50645315  0.86781023  1
  O  O191  1  0.75322996  0.01267087  0.37905618  1
  O  O192  1  0.76186136  0.00213693  0.85923680  1
  O  O193  1  0.75897282  0.48161518  0.37516370  1
  O  O194  1  0.75772481  0.51010825  0.87244873  1
  O  O195  1  0.24469834  0.49627398  0.12559964  1
  O  O196  1  0.23799108  0.50569249  0.63540420  1
  O  O197  1  0.24134473  1.00145327  0.13835881  1
  O  O198  1  0.23379623  1.00284701  0.62077498  1
  O  O199  1  0.73521774  0.50574573  0.11578378  1
  O  O200  1  0.74630332  0.48031172  0.63524703  1
  O  O201  1  0.73302211  1.01022609  0.12789165  1
  O  O202  1  0.75852993  0.99400171  0.63898718  1
  O  O203  1  0.00373386  0.36427907  0.25972406  1
  O  O204  1  0.00963253  0.38257096  0.76240555  1
  O  O205  1  0.01172605  0.86696694  0.25922626  1
  O  O206  1  -0.00531568  0.86139409  0.75085481  1
  O  O207  1  0.50440899  0.36725089  0.25762807  1
  O  O208  1  0.50700901  0.36819413  0.75570332  1
  O  O209  1  0.50261881  0.86605150  0.25692622  1
  O  O210  1  0.49911318  0.87058616  0.75858394  1
  O  O211  1  0.49971417  0.13224121  0.23916303  1
  O  O212  1  0.49389949  0.13537418  0.75347111  1
  O  O213  1  0.50297427  0.63321150  0.24117466  1
  O  O214  1  0.49580206  0.62947559  0.74621785  1
  O  O215  1  1.00145335  0.13679287  0.25109987  1
  O  O216  1  0.98975614  0.11823893  0.73767279  1
  O  O217  1  1.00299635  0.63489699  0.24316219  1
  O  O218  1  0.99037211  0.63313681  0.74598917  1
  O  O219  1  0.36999019  0.25390631  0.00639913  1
  O  O220  1  0.37897615  0.26661218  0.50222828  1
  O  O221  1  0.36354482  0.75586836  0.00213521  1
  O  O222  1  0.36807132  0.75226917  0.50506484  1
  O  O223  1  0.86707535  0.25445062  0.00281603  1
  O  O224  1  0.88511510  0.26197510  0.51824603  1
  O  O225  1  0.88196483  0.74554091  0.01465196  1
  O  O226  1  0.87007264  0.75699638  0.50746991  1
  O  O227  1  0.12581452  0.24041601  0.49297723  1
  O  O228  1  0.12977068  0.23943065  0.99445266  1
  O  O229  1  0.12812302  0.74644342  0.49365993  1
  O  O230  1  0.13950125  0.75028772  0.98980956  1
  O  O231  1  0.62249137  0.26715925  0.48544781  1
  O  O232  1  0.62870504  0.24643063  0.99591211  1
  O  O233  1  0.63287665  0.74488849  0.49780264  1
  O  O234  1  0.62927787  0.74937867  0.99722957  1
  O  O235  1  0.49548838  0.24345868  0.13406557  1
  O  O236  1  0.49563090  0.25461420  0.64095240  1
  O  O237  1  0.50428889  0.74184637  0.13259250  1
  O  O238  1  0.49372186  0.73982138  0.63318461  1
  O  O239  1  0.99730755  0.24776960  0.13201335  1
  O  O240  1  0.99474928  0.23843016  0.62468163  1
  O  O241  1  0.99665075  0.74085005  0.13180221  1
  O  O242  1  0.99599834  0.74601325  0.63071375  1
  O  O243  1  0.01033528  0.25463754  0.36971729  1
  O  O244  1  0.00477288  0.26144851  0.88271731  1
  O  O245  1  0.00812308  0.75642548  0.36991477  1
  O  O246  1  0.01042202  0.74755540  0.86581886  1
  O  O247  1  0.51564861  0.25164036  0.36445674  1
  O  O248  1  0.50868613  0.25570455  0.86849127  1
  O  O249  1  0.50438403  0.75404103  0.36620443  1
  O  O250  1  0.49519055  0.75869689  0.87120845  1
  O  O251  1  0.23865943  0.12106475  0.49515020  1
  O  O252  1  0.24254516  0.12879857  0.99112670  1
  O  O253  1  0.24366947  0.62957420  0.49203323  1
  O  O254  1  0.25918023  0.63609947  0.98952936  1
  O  O255  1  0.75274566  0.12288997  0.49059686  1
  O  O256  1  0.73430632  0.13593325  1.00302596  1
  O  O257  1  0.74154806  0.63661021  0.50182036  1
  O  O258  1  0.75780297  0.62528752  0.98595447  1
  O  O259  1  0.25432172  0.36722357  0.00395102  1
  O  O260  1  0.27033169  0.37799045  0.48576704  1
  O  O261  1  0.25792830  0.85745163  -0.00600264  1
  O  O262  1  0.25746327  0.86772305  0.49656923  1
  O  O263  1  0.76166148  0.36669503  -0.00560332  1
  O  O264  1  0.76446986  0.38102987  0.51126885  1
  O  O265  1  0.76179655  0.87652976  -0.02007354  1
  O  O266  1  0.76045544  0.86839880  0.49945504  1
  O  O267  1  0.13818881  0.49362760  0.23152802  1
  O  O268  1  0.12964591  0.49217092  0.74375882  1
  O  O269  1  0.13295791  0.99114363  0.24333426  1
  O  O270  1  0.12166963  1.00642216  0.73542463  1
  O  O271  1  0.61786922  0.48212769  0.22948628  1
  O  O272  1  0.62510404  0.48404662  0.75103647  1
  O  O273  1  0.61994588  1.00275812  0.23449813  1
  O  O274  1  0.63131921  0.99295114  0.75666073  1
  O  O275  1  0.36365132  -0.00557546  0.24820908  1
  O  O276  1  0.38857748  0.01657235  0.76662064  1
  O  O277  1  0.36003608  0.49990050  0.24035558  1
  O  O278  1  0.36428075  0.50163500  0.75097780  1
  O  O279  1  0.87928365  0.01042658  0.23809143  1
  O  O280  1  0.86830619  0.00784721  0.75563611  1
  O  O281  1  0.87394338  0.48315960  0.25859289  1
  O  O282  1  0.87717871  0.51246443  0.75477045  1
  O  O283  1  0.11664845  0.36336378  0.37733009  1
  O  O284  1  0.11764708  0.36814930  0.86926206  1
  O  O285  1  0.11855723  0.86387790  0.37085572  1
  O  O286  1  0.13298557  0.85843125  0.86639311  1
  O  O287  1  0.61286914  0.37382971  0.35989426  1
  O  O288  1  0.62056263  0.36611333  0.86887162  1
  O  O289  1  0.60963897  0.85779455  0.38085286  1
  O  O290  1  0.60703211  0.88028833  0.86761830  1
  O  O291  1  0.38562105  0.13106088  0.11673207  1
  O  O292  1  0.38086781  0.12169129  0.64033660  1
  O  O293  1  0.38926588  0.62801299  0.12908256  1
  O  O294  1  0.38176608  0.62789149  0.62999558  1
  O  O295  1  0.88100944  0.13852823  0.11694154  1
  O  O296  1  0.88258863  0.13325305  0.63126943  1
  O  O297  1  0.88969823  0.62853521  0.12781745  1
  O  O298  1  0.88196279  0.64217269  0.63373722  1
  O  O299  1  0.25409713  0.25313277  0.12121185  1
  O  O300  1  0.25567267  0.24924965  0.61943599  1
  O  O301  1  0.24529463  0.73859464  0.11151155  1
  O  O302  1  0.25331813  0.74928652  0.61940454  1
  O  O303  1  0.75704516  0.24443941  0.11451872  1
  O  O304  1  0.76433164  0.26294275  0.63054137  1
  O  O305  1  0.76936912  0.74375994  0.12579780  1
  O  O306  1  0.75818252  0.75646978  0.61649404  1
  O  O307  1  0.23835984  0.24876574  0.37419096  1
  O  O308  1  0.24325326  0.23975920  0.88174144  1
  O  O309  1  0.24234140  0.74346825  0.37838473  1
  O  O310  1  0.24524794  0.73994207  0.87818706  1
  O  O311  1  0.73585344  0.28002763  0.37093487  1
  O  O312  1  0.73744322  0.25282799  0.88723276  1
  O  O313  1  0.73995785  0.75496151  0.38740285  1
  O  O314  1  0.75269533  0.73473905  0.87415729  1
  O  O315  1  0.01461477  0.11938658  -0.00238614  1
  O  O316  1  0.00669705  0.11798741  0.50810645  1
  O  O317  1  -0.00551631  0.60914068  0.00593445  1
  O  O318  1  0.00628399  0.61694426  0.50461919  1
  O  O319  1  0.50757769  0.12330731  0.00922496  1
  O  O320  1  0.50183146  0.10528492  0.49927957  1
  O  O321  1  0.49307820  0.61339313  0.00490366  1
  O  O322  1  0.50904934  0.63442026  0.51447644  1
  O  O323  1  0.49744088  0.38456348  0.48030575  1
  O  O324  1  0.49362932  0.38088353  0.99567468  1
  O  O325  1  0.49239849  0.87971456  0.49273108  1
  O  O326  1  0.49036650  0.87986369  0.99236170  1
  O  O327  1  0.99709863  0.38069104  0.49771091  1
  O  O328  1  0.99283544  0.38205174  0.98999029  1
  O  O329  1  0.99628054  0.88102529  0.49314611  1
  O  O330  1  1.01622089  0.88029855  0.98916482  1
  O  O331  1  0.51017024  0.49571247  0.35822641  1
  O  O332  1  0.49989262  0.49408826  0.88433197  1
  O  O333  1  0.49667527  0.98352159  0.38005113  1
  O  O334  1  0.48961991  0.99403820  0.88322104  1
  O  O335  1  1.00780322  0.48655328  0.38657236  1
  O  O336  1  0.99762374  0.49316486  0.88171931  1
  O  O337  1  1.00967573  0.98859081  0.38468310  1
  O  O338  1  0.98446698  0.99702959  0.87353879  1
  O  O339  1  0.01820329  0.00210159  0.12135259  1
  O  O340  1  0.00926727  0.00758491  0.61713262  1
  O  O341  1  0.00590754  0.50222200  0.11880573  1
  O  O342  1  0.00927150  0.50502218  0.61814874  1
  O  O343  1  0.50414288  0.00950659  0.12048179  1
  O  O344  1  0.49405055  -0.00761346  0.61083753  1
  O  O345  1  0.50334802  0.50582428  0.11551788  1
  O  O346  1  0.50568445  0.51538121  0.63381702  1
  O  O347  1  0.24952288  0.38225509  0.24397540  1
  O  O348  1  0.23860456  0.38555695  0.75953844  1
  O  O349  1  0.24000043  0.88260641  0.25750510  1
  O  O350  1  0.29835435  0.88864671  0.73968090  1
  O  O351  1  0.73221352  0.37073003  0.23893605  1
  O  O352  1  0.74035636  0.37165579  0.74828839  1
  O  O353  1  0.73632966  0.88787752  0.27823649  1
  O  O354  1  0.73587485  0.88244272  0.74846063  1
  O  O355  1  0.24700743  0.10925808  0.25345451  1
  O  O356  1  0.25973258  0.13070364  0.76428549  1
  O  O357  1  0.25176902  0.61831759  0.25605470  1
  O  O358  1  0.25377383  0.61299118  0.75727865  1
  O  O359  1  0.75285099  0.12366025  0.26846841  1
  O  O360  1  0.76074696  0.11839425  0.74230412  1
  O  O361  1  0.70141740  0.61400076  0.26619583  1
  O  O362  1  0.76154249  0.62667813  0.75306595  1
  O  O363  1  0.38108793  0.13388712  0.37425283  1
  O  O364  1  0.36834535  0.11922875  0.87354201  1
  O  O365  1  0.36075398  0.63033628  0.37397916  1
  O  O366  1  0.36352342  0.62080096  0.86738932  1
  O  O367  1  0.86052129  0.14065353  0.37854257  1
  O  O368  1  0.88124669  0.11953180  0.86081760  1
  O  O369  1  0.87730763  0.61958075  0.37779013  1
  O  O370  1  0.86882872  0.62176610  0.86671079  1
  O  O371  1  0.13229040  0.38097061  0.12372265  1
  O  O372  1  0.11644291  0.38383469  0.63518445  1
  O  O373  1  0.12237300  0.87976729  0.13712298  1
  O  O374  1  0.12613856  0.89020541  0.62249320  1
  O  O375  1  0.61904507  0.38177526  0.12940195  1
  O  O376  1  0.63059054  0.37107327  0.63418512  1
  O  O377  1  0.61620860  0.89415972  0.12359547  1
  O  O378  1  0.61898707  0.86862514  0.63889803  1
  O  O379  1  0.11855214  0.24947748  0.25759096  1
  O  O380  1  0.13058623  0.26067794  0.75630260  1
  O  O381  1  0.11876525  0.75514938  0.25677552  1
  O  O382  1  0.11559789  0.74220554  0.75367770  1
  O  O383  1  0.61600110  0.26085730  0.25003015  1
  O  O384  1  0.61928343  0.25603242  0.75864332  1
  O  O385  1  0.61517675  0.75153438  0.25724056  1
  O  O386  1  0.61767802  0.76141223  0.75991797  1
  O  O387  1  0.38653408  0.25718396  0.24372824  1
  O  O388  1  0.38378616  0.24207752  0.75475895  1
  O  O389  1  0.38694887  0.74838435  0.24693383  1
  O  O390  1  0.38058231  0.73914395  0.74458168  1
  O  O391  1  0.88775829  0.24887189  0.23689861  1
  O  O392  1  0.87398369  0.24166986  0.74298996  1
  O  O393  1  0.88914997  0.75655151  0.24331553  1
  O  O394  1  0.88090129  0.74666261  0.74482536  1
  O  O395  1  0.37514127  0.49421058  0.49760501  1
  O  O396  1  0.38414118  0.49156620  0.99904635  1
  O  O397  1  0.38158180  0.98721619  0.50093388  1
  O  O398  1  0.37671699  0.99242834  0.99427118  1
  O  O399  1  0.89005328  0.48787967  0.50622282  1
  O  O400  1  0.88337530  0.48994754  0.99560134  1
  O  O401  1  0.88885570  0.98912685  0.50985467  1
  O  O402  1  0.87217098  1.01303287  0.98127885  1
  O  O403  1  0.13598018  0.00700631  0.00793025  1
  O  O404  1  0.11575236  0.00731213  0.50529709  1
  O  O405  1  0.11526237  0.49135513  0.00910828  1
  O  O406  1  0.11908382  0.50185468  0.50824657  1
  O  O407  1  0.61776812  0.01081546  0.00206570  1
  O  O408  1  0.61073328  -0.00813500  0.49481165  1
  O  O409  1  0.61368335  0.48765828  0.01042968  1
  O  O410  1  0.63174894  0.51597748  0.50320507  1
  O  O411  1  0.36952322  0.36683843  0.11843316  1
  O  O412  1  0.38870347  0.37940811  0.60415541  1
  O  O413  1  0.38024437  0.87021574  0.11101474  1
  O  O414  1  0.37893996  0.86190196  0.60620225  1
  O  O415  1  0.88370745  0.36087409  0.10947784  1
  O  O416  1  0.87298985  0.36953602  0.62504111  1
  O  O417  1  0.88725550  0.85975474  0.12364594  1
  O  O418  1  0.88135184  0.86457694  0.61489190  1
  O  O419  1  0.12173482  0.13268974  0.38522643  1
  O  O420  1  0.13135760  0.12538738  0.87972065  1
  O  O421  1  0.13247662  0.63973551  0.38092979  1
  O  O422  1  0.13651298  0.63289523  0.87004366  1
  O  O423  1  0.64931354  0.14981291  0.38515017  1
  O  O424  1  0.61452048  0.13610273  0.88642210  1
  O  O425  1  0.60984680  0.64068810  0.39303544  1
  O  O426  1  0.64311445  0.62235676  0.86804322  1
