# generated using pymatgen
data_V85Zn86O256
_symmetry_space_group_name_H-M   'P 1'
_cell_length_a   16.96282017
_cell_length_b   16.96767753
_cell_length_c   16.96228606
_cell_angle_alpha   90.00857767
_cell_angle_beta   89.91800779
_cell_angle_gamma   89.94772180
_symmetry_Int_Tables_number   1
_chemical_formula_structural   V85Zn86O256
_chemical_formula_sum   'V85 Zn86 O256'
_cell_volume   4882.07236305
_cell_formula_units_Z   1
loop_
 _symmetry_equiv_pos_site_id
 _symmetry_equiv_pos_as_xyz
  1  'x, y, z'
loop_
 _atom_site_type_symbol
 _atom_site_label
 _atom_site_symmetry_multiplicity
 _atom_site_fract_x
 _atom_site_fract_y
 _atom_site_fract_z
 _atom_site_occupancy
  V  V0  1  0.74799900  0.87489324  0.12854252  1
  V  V1  1  0.25005283  -0.00175062  0.24985816  1
  V  V2  1  0.38357873  0.37539791  -0.00387168  1
  V  V3  1  0.62375740  -0.00500150  0.12943235  1
  V  V4  1  0.74952189  0.49846942  0.24907772  1
  V  V5  1  0.12594794  0.12628446  0.50347644  1
  V  V6  1  0.86984255  0.00695383  0.37396743  1
  V  V7  1  0.24756590  0.62428728  0.36994534  1
  V  V8  1  0.12436200  0.50367983  0.11769651  1
  V  V9  1  0.51020236  0.62035296  0.62712199  1
  V  V10  1  0.38282696  0.23042685  0.62050018  1
  V  V11  1  0.00238734  0.62702746  0.11873372  1
  V  V12  1  0.37720136  0.62564616  0.75340837  1
  V  V13  1  0.62515540  0.12914404  -0.00515230  1
  V  V14  1  0.62952829  0.01856992  0.61962516  1
  V  V15  1  0.12973854  0.37486959  0.74869004  1
  V  V16  1  0.13066734  0.24182607  0.87313732  1
  V  V17  1  0.00740316  0.75260058  0.75482885  1
  V  V18  1  0.12038849  0.49691415  0.61873646  1
  V  V19  1  0.23847626  0.62884030  0.87791466  1
  V  V20  1  0.00092777  0.37537150  0.87242340  1
  V  V21  1  0.75375781  0.11959328  0.87487731  1
  V  V22  1  0.63716247  0.23243805  0.38602520  1
  V  V23  1  -0.00595821  0.01033768  0.00304502  1
  V  V24  1  -0.00153360  0.75129156  0.24857029  1
  V  V25  1  0.25112602  0.12641723  0.37753047  1
  V  V26  1  0.25376470  0.01244043  0.75277872  1
  V  V27  1  0.37262940  0.87263319  -0.00353621  1
  V  V28  1  0.75069234  0.62619102  0.37390412  1
  V  V29  1  -0.00214808  0.37753794  0.38470072  1
  V  V30  1  0.49847196  -0.00034258  0.00000590  1
  V  V31  1  0.37845203  0.74471259  0.12133868  1
  V  V32  1  0.62577558  0.75195394  0.37030071  1
  V  V33  1  0.74424438  0.63036177  0.87579798  1
  V  V34  1  0.23527328  0.74865652  -0.00395834  1
  V  V35  1  -0.00202262  0.61999140  0.61959054  1
  V  V36  1  0.88085713  0.12555041  0.24364492  1
  V  V37  1  0.50024939  0.12479652  0.12593848  1
  V  V38  1  0.12054727  0.62281662  0.49792758  1
  V  V39  1  0.37001561  0.01042128  0.87149941  1
  V  V40  1  0.12096127  0.00947237  0.12630655  1
  V  V41  1  0.50528735  0.75183617  0.75360079  1
  V  V42  1  0.61537687  0.37074260  0.76053856  1
  V  V43  1  0.50179229  0.74727342  0.24827964  1
  V  V44  1  0.88270919  0.24707040  0.12213170  1
  V  V45  1  0.25044943  0.24401521  -0.00519249  1
  V  V46  1  0.12897041  0.25108813  0.37822489  1
  V  V47  1  0.26244510  0.37256705  0.61199846  1
  V  V48  1  0.87198332  0.75962952  0.62173895  1
  V  V49  1  0.87232625  0.75146356  0.12270604  1
  V  V50  1  0.87734773  0.49928710  0.38289273  1
  V  V51  1  0.37448244  0.74912720  0.62628765  1
  V  V52  1  0.37713928  0.62245042  0.24668613  1
  V  V53  1  0.74787966  0.25156176  -0.00466496  1
  V  V54  1  0.74704008  0.00610530  0.25270479  1
  V  V55  1  0.12406462  0.00057148  0.62788327  1
  V  V56  1  0.24707405  0.74964656  0.50056242  1
  V  V57  1  0.37580455  -0.00231531  0.37472130  1
  V  V58  1  0.25000010  0.87439647  0.62663402  1
  V  V59  1  0.00040395  0.24704139  0.73906839  1
  V  V60  1  0.37531512  0.25001157  0.12523840  1
  V  V61  1  0.12512725  0.87702898  0.25065372  1
  V  V62  1  0.49409582  0.23309307  0.76241861  1
  V  V63  1  0.62496410  0.37367448  0.25610884  1
  V  V64  1  0.24887633  0.37501151  0.12351389  1
  V  V65  1  0.63279545  0.87373406  0.73533851  1
  V  V66  1  0.62696492  0.61910061  0.50228477  1
  V  V67  1  -0.00118944  0.00409735  0.50376401  1
  V  V68  1  0.00004747  0.50212387  -0.00234777  1
  V  V69  1  0.75084602  0.34887099  0.62792474  1
  V  V70  1  0.12138864  0.75108673  0.37416191  1
  V  V71  1  0.50263352  0.00871963  0.50544623  1
  V  V72  1  -0.00355653  0.87749875  0.37603185  1
  V  V73  1  0.50483307  0.87117948  0.37079966  1
  V  V74  1  0.88237808  0.12921765  0.74254972  1
  V  V75  1  0.74376050  0.49844977  0.73967897  1
  V  V76  1  0.50889509  0.87460541  0.87321098  1
  V  V77  1  0.87243864  0.49906024  0.87319362  1
  V  V78  1  0.38321687  0.49702035  0.87684358  1
  V  V79  1  0.87351679  0.62340565  0.74864956  1
  V  V80  1  0.37733660  0.86865827  0.49925741  1
  V  V81  1  0.50141693  0.25133409  0.25304418  1
  V  V82  1  0.12161701  0.37637614  0.24884984  1
  V  V83  1  0.61857884  0.63122679  0.00486612  1
  V  V84  1  0.87332954  0.37523696  -0.00101291  1
  Zn  Zn85  1  0.74474127  0.75690424  -0.00982992  1
  Zn  Zn86  1  0.37552618  0.12408808  0.24992546  1
  Zn  Zn87  1  0.87913916  -0.00528416  0.87020773  1
  Zn  Zn88  1  0.25111539  0.50014012  0.24737334  1
  Zn  Zn89  1  0.75914682  -0.00266992  0.73724006  1
  Zn  Zn90  1  0.24824133  0.87483801  0.12291519  1
  Zn  Zn91  1  0.86372060  0.88790800  0.50674132  1
  Zn  Zn92  1  0.00297126  0.24541729  0.24401309  1
  Zn  Zn93  1  0.48998381  0.36769744  0.39498356  1
  Zn  Zn94  1  0.12359557  0.12763372  0.00332762  1
  Zn  Zn95  1  0.37470601  0.48805789  0.38044591  1
  Zn  Zn96  1  0.13233480  0.87048023  0.76213776  1
  Zn  Zn97  1  0.61582476  0.50227066  0.12862395  1
  Zn  Zn98  1  0.49006012  0.48974557  0.50672543  1
  Zn  Zn99  1  0.00607666  0.86973793  0.88458363  1
  Zn  Zn100  1  0.74923167  0.37583083  0.12458243  1
  Zn  Zn101  1  0.74526146  0.75849608  0.50675055  1
  Zn  Zn102  1  0.87501299  0.62254487  0.24896398  1
  Zn  Zn103  1  0.50003131  0.50506235  0.00856583  1
  Zn  Zn104  1  0.25166220  0.49993192  0.75105372  1
  Zn  Zn105  1  0.86460618  0.36813521  0.50500581  1
  Zn  Zn106  1  0.87359462  0.87610735  -0.00476734  1
  Zn  Zn107  1  0.19078272  0.18921725  0.19011359  1
  Zn  Zn108  1  0.19427245  0.19205943  0.68298273  1
  Zn  Zn109  1  0.18826309  0.69068697  0.18284865  1
  Zn  Zn110  1  0.18790605  0.68335571  0.68694543  1
  Zn  Zn111  1  0.68966889  0.18796168  0.18555001  1
  Zn  Zn112  1  0.67985158  0.18719834  0.70081560  1
  Zn  Zn113  1  0.68713108  0.68590272  0.18666003  1
  Zn  Zn114  1  0.68988984  0.68846971  0.69067884  1
  Zn  Zn115  1  0.31325857  0.31396758  0.31304591  1
  Zn  Zn116  1  0.31751613  0.30906819  0.80953052  1
  Zn  Zn117  1  0.31331226  0.81029961  0.31207612  1
  Zn  Zn118  1  0.31156245  0.81522518  0.81404900  1
  Zn  Zn119  1  0.81199218  0.31120273  0.31392754  1
  Zn  Zn120  1  0.81102391  0.31072391  0.81191610  1
  Zn  Zn121  1  0.81158084  0.81878623  0.31038313  1
  Zn  Zn122  1  0.81833252  0.81393010  0.81023825  1
  Zn  Zn123  1  0.18952122  0.43853308  0.43626774  1
  Zn  Zn124  1  0.19418118  0.43667222  0.93515800  1
  Zn  Zn125  1  0.18718464  0.93756617  0.43824471  1
  Zn  Zn126  1  0.18254810  0.93924951  0.93547443  1
  Zn  Zn127  1  0.64841388  0.40304956  0.47310508  1
  Zn  Zn128  1  0.68382671  0.44284467  0.93543011  1
  Zn  Zn129  1  0.68699373  0.93782535  0.43911789  1
  Zn  Zn130  1  0.68870475  0.93994491  0.93868035  1
  Zn  Zn131  1  0.31160451  0.06148010  0.06304142  1
  Zn  Zn132  1  0.31148848  0.05784708  0.56008995  1
  Zn  Zn133  1  0.31086024  0.56288248  0.05929967  1
  Zn  Zn134  1  0.30726413  0.55840871  0.56572982  1
  Zn  Zn135  1  0.81039001  0.06544181  0.06564562  1
  Zn  Zn136  1  0.81304976  0.08087702  0.55803687  1
  Zn  Zn137  1  0.80979658  0.56526197  0.06107798  1
  Zn  Zn138  1  0.80980954  0.56553179  0.55921822  1
  Zn  Zn139  1  0.43879379  0.43815945  0.18671924  1
  Zn  Zn140  1  0.44010908  0.43920007  0.69011802  1
  Zn  Zn141  1  0.43573419  0.93366034  0.18710527  1
  Zn  Zn142  1  0.43738371  0.94111144  0.68745788  1
  Zn  Zn143  1  0.93542244  0.43598324  0.18818503  1
  Zn  Zn144  1  0.93284761  0.43308615  0.68533656  1
  Zn  Zn145  1  0.93667212  0.93812684  0.18506253  1
  Zn  Zn146  1  0.94169904  0.93947187  0.69060915  1
  Zn  Zn147  1  0.06101189  0.06264517  0.31383315  1
  Zn  Zn148  1  0.06350006  0.05903025  0.81462461  1
  Zn  Zn149  1  0.05876329  0.56143083  0.30770382  1
  Zn  Zn150  1  0.05942860  0.56130434  0.80632777  1
  Zn  Zn151  1  0.56124377  0.06287769  0.31480938  1
  Zn  Zn152  1  0.56464158  0.05499311  0.81305348  1
  Zn  Zn153  1  0.55962948  0.55778671  0.31958417  1
  Zn  Zn154  1  0.56733560  0.55843499  0.81606106  1
  Zn  Zn155  1  0.43668305  0.19134607  0.43766286  1
  Zn  Zn156  1  0.43882298  0.18965769  0.93877841  1
  Zn  Zn157  1  0.42028255  0.65100262  0.45441383  1
  Zn  Zn158  1  0.43726697  0.68838234  0.93434792  1
  Zn  Zn159  1  0.94520272  0.18410909  0.42834794  1
  Zn  Zn160  1  0.93866054  0.18793935  0.93102302  1
  Zn  Zn161  1  0.93530622  0.68813519  0.43823145  1
  Zn  Zn162  1  0.93273142  0.68604371  0.93722481  1
  Zn  Zn163  1  0.06302461  0.31518211  0.05790764  1
  Zn  Zn164  1  0.06560708  0.31290446  0.56038847  1
  Zn  Zn165  1  0.05901042  0.82306023  0.06511174  1
  Zn  Zn166  1  0.05849120  0.81513984  0.56387817  1
  Zn  Zn167  1  0.56505629  0.31460966  0.06807832  1
  Zn  Zn168  1  0.56415380  0.29867477  0.57544504  1
  Zn  Zn169  1  0.56263237  0.81061439  0.06151288  1
  Zn  Zn170  1  0.56216134  0.80858566  0.55863094  1
  O  O171  1  0.12835493  0.11401978  0.12849714  1
  O  O172  1  0.13626939  0.11555521  0.61285310  1
  O  O173  1  0.11529552  0.61525313  0.12892849  1
  O  O174  1  0.11841706  0.61567936  0.62007436  1
  O  O175  1  0.62100674  0.11554489  0.11537365  1
  O  O176  1  0.61905775  0.11607869  0.62969590  1
  O  O177  1  0.63196830  0.62293414  0.10899317  1
  O  O178  1  0.61941545  0.63676722  0.61735341  1
  O  O179  1  0.37564625  0.37434379  0.37964327  1
  O  O180  1  0.36383417  0.38729630  0.88403716  1
  O  O181  1  0.38265723  0.87679008  0.38032750  1
  O  O182  1  0.38494607  0.87929252  0.88294920  1
  O  O183  1  0.88124674  0.37899752  0.37896160  1
  O  O184  1  0.88062700  0.37947298  0.87865413  1
  O  O185  1  0.88065959  0.89031033  0.37286269  1
  O  O186  1  0.88399896  0.87788093  0.87719163  1
  O  O187  1  0.25474909  0.00537509  0.37032957  1
  O  O188  1  0.25861918  -0.00719522  0.86491243  1
  O  O189  1  0.24708508  0.51474641  0.37076837  1
  O  O190  1  0.25950671  0.51415958  0.87434065  1
  O  O191  1  0.75682253  -0.00429940  0.36368056  1
  O  O192  1  0.75413437  0.00971859  0.87337646  1
  O  O193  1  0.75898917  0.51422176  0.36479330  1
  O  O194  1  0.75607981  0.50814420  0.86547136  1
  O  O195  1  0.23947165  0.49528643  0.12310353  1
  O  O196  1  0.23889148  0.49217047  0.62989660  1
  O  O197  1  0.24230191  0.99734278  0.13146550  1
  O  O198  1  0.24422707  0.99317808  0.63122948  1
  O  O199  1  0.75174181  0.50098832  0.13983842  1
  O  O200  1  0.75236111  0.50508914  0.63873892  1
  O  O201  1  0.74210531  0.99432964  0.12983518  1
  O  O202  1  0.73540820  1.01358982  0.61643836  1
  O  O203  1  0.01007982  0.37349668  0.25777230  1
  O  O204  1  0.00947438  0.36821117  0.75255967  1
  O  O205  1  0.00496625  0.87158697  0.25550995  1
  O  O206  1  0.00257547  0.85860512  0.74776463  1
  O  O207  1  0.50751708  0.36150374  0.24686805  1
  O  O208  1  0.51386784  0.37841168  0.74960994  1
  O  O209  1  0.49230045  0.86326602  0.26118162  1
  O  O210  1  0.50873281  0.86997325  0.75339147  1
  O  O211  1  0.49836719  0.13337348  0.24409700  1
  O  O212  1  0.50169906  0.13352421  0.76055702  1
  O  O213  1  0.48742985  0.63635821  0.25946828  1
  O  O214  1  0.49879961  0.63311151  0.74823089  1
  O  O215  1  0.98709311  0.12608331  0.25234507  1
  O  O216  1  0.99002524  0.13118627  0.75733043  1
  O  O217  1  0.99735740  0.63202690  0.23736467  1
  O  O218  1  0.99479350  0.63205118  0.73881973  1
  O  O219  1  0.36799649  0.25680201  0.00396491  1
  O  O220  1  0.38750954  0.25023791  0.52107842  1
  O  O221  1  0.37244906  0.75569960  0.00477802  1
  O  O222  1  0.36729271  0.74807305  0.50624548  1
  O  O223  1  0.86959545  0.25443420  0.00352651  1
  O  O224  1  0.86348329  0.22983876  0.49917069  1
  O  O225  1  0.87071152  0.75057878  0.01316454  1
  O  O226  1  0.87837197  0.75283447  0.51512066  1
  O  O227  1  0.12090702  0.23965801  0.48912327  1
  O  O228  1  0.13269363  0.25195177  0.99098874  1
  O  O229  1  0.12686093  0.74538636  0.49440554  1
  O  O230  1  0.13734483  0.75622496  1.00989949  1
  O  O231  1  0.62175611  0.24791526  0.48477267  1
  O  O232  1  0.63400505  0.23876952  1.00858328  1
  O  O233  1  0.62679449  0.74309031  0.48641101  1
  O  O234  1  0.62858877  0.73847710  1.00168649  1
  O  O235  1  0.49550764  0.24375044  0.13233927  1
  O  O236  1  0.48896410  0.24514175  0.64049914  1
  O  O237  1  0.48934825  0.75700494  0.13473115  1
  O  O238  1  0.49493892  0.74399174  0.63648244  1
  O  O239  1  0.98772149  0.25619663  0.12304501  1
  O  O240  1  1.00937979  0.25185039  0.63980941  1
  O  O241  1  0.99318188  0.74514488  0.12747775  1
  O  O242  1  0.99224013  0.74072455  0.63168576  1
  O  O243  1  0.01150654  0.25839022  0.36874906  1
  O  O244  1  0.01194684  0.25755603  0.86763044  1
  O  O245  1  0.00212489  0.75602612  0.36953227  1
  O  O246  1  -0.00633487  0.74208075  0.85666772  1
  O  O247  1  0.50788059  0.24770835  0.36480683  1
  O  O248  1  0.48477782  0.25586908  0.86111373  1
  O  O249  1  0.50825299  0.75587837  0.36675110  1
  O  O250  1  0.49551482  0.76123247  0.86245520  1
  O  O251  1  0.23965458  0.11535148  0.48629880  1
  O  O252  1  0.24859788  0.14069691  1.00505187  1
  O  O253  1  0.23985871  0.63152761  0.49071935  1
  O  O254  1  0.25324201  0.63281482  0.98551508  1
  O  O255  1  0.79774506  0.18384378  0.50154706  1
  O  O256  1  0.74370015  0.13021837  0.99483393  1
  O  O257  1  0.74612741  0.63552996  0.48918865  1
  O  O258  1  0.74269366  0.62744151  0.99055894  1
  O  O259  1  0.25765352  0.36587533  0.00562984  1
  O  O260  1  0.24597328  0.37659960  0.51356183  1
  O  O261  1  0.26080451  0.86613194  -0.00403528  1
  O  O262  1  0.25613005  0.86895210  0.50443748  1
  O  O263  1  0.75417192  0.36675078  -0.00246194  1
  O  O264  1  0.74450222  0.36821177  0.52318006  1
  O  O265  1  0.75179787  0.87498358  0.01156270  1
  O  O266  1  0.75436661  0.86932518  0.49417917  1
  O  O267  1  0.12449427  0.49160247  0.23811899  1
  O  O268  1  0.12517497  0.48972225  0.73945760  1
  O  O269  1  0.12891074  0.99648223  0.24640883  1
  O  O270  1  0.13097298  0.99903708  0.74030677  1
  O  O271  1  0.63318913  0.49228938  0.25386080  1
  O  O272  1  0.63363749  0.48701242  0.75407538  1
  O  O273  1  0.63152918  1.00795782  0.23776789  1
  O  O274  1  0.62280305  0.99118372  0.73210588  1
  O  O275  1  0.36995592  0.00030791  0.25661107  1
  O  O276  1  0.36675467  -0.00656026  0.75934922  1
  O  O277  1  0.37088802  0.51252564  0.25087809  1
  O  O278  1  0.37479227  0.51030676  0.75849447  1
  O  O279  1  0.86887406  0.00683661  0.25328245  1
  O  O280  1  0.87665780  0.01222319  0.75072139  1
  O  O281  1  0.86732062  0.49894289  0.26012482  1
  O  O282  1  0.86772705  0.50449247  0.75472701  1
  O  O283  1  0.11993425  0.37070729  0.37003903  1
  O  O284  1  0.12241559  0.37136151  0.86437740  1
  O  O285  1  0.11735142  0.87086951  0.37149388  1
  O  O286  1  0.11877869  0.87298473  0.87344360  1
  O  O287  1  0.62301335  0.36144165  0.36178501  1
  O  O288  1  0.63421733  0.37190642  0.85985248  1
  O  O289  1  0.61527670  0.86508567  0.37741280  1
  O  O290  1  0.61310379  0.88787640  0.86331510  1
  O  O291  1  0.38256758  0.13080027  0.12453982  1
  O  O292  1  0.36793539  0.13164991  0.62482044  1
  O  O293  1  0.36779033  0.63547865  0.13225255  1
  O  O294  1  0.38166576  0.63022868  0.63906729  1
  O  O295  1  0.87330357  0.13505738  0.13123243  1
  O  O296  1  0.87413919  0.12606725  0.64450016  1
  O  O297  1  0.88244948  0.63385666  0.12680819  1
  O  O298  1  0.88339012  0.62936570  0.62778230  1
  O  O299  1  0.25449954  0.25599070  0.11794066  1
  O  O300  1  0.26715078  0.26508157  0.63075044  1
  O  O301  1  0.26033128  0.75280569  0.11450449  1
  O  O302  1  0.25392070  0.75296387  0.62009347  1
  O  O303  1  0.76054322  0.24972360  0.11140003  1
  O  O304  1  0.75403084  0.25040913  0.63980602  1
  O  O305  1  0.75668665  0.76006868  0.12951894  1
  O  O306  1  0.76932319  0.74427355  0.62828335  1
  O  O307  1  0.23827685  0.23986901  0.36804943  1
  O  O308  1  0.24218844  0.25855415  0.88320272  1
  O  O309  1  0.24067228  0.74343470  0.37907872  1
  O  O310  1  0.25546169  0.73725191  0.88077832  1
  O  O311  1  0.73562901  0.24786394  0.36772080  1
  O  O312  1  0.75618430  0.23747663  0.88784417  1
  O  O313  1  0.74198528  0.74108396  0.36394993  1
  O  O314  1  0.75885516  0.73537973  0.87173747  1
  O  O315  1  0.00233441  0.11535131  -0.00111995  1
  O  O316  1  0.01302730  0.11391923  0.49314450  1
  O  O317  1  -0.00509259  0.61944148  0.01099530  1
  O  O318  1  0.00499781  0.62928914  0.51117129  1
  O  O319  1  0.50758002  0.12060730  0.00495463  1
  O  O320  1  0.49459099  0.10601488  0.49456720  1
  O  O321  1  0.51498964  0.62897211  -0.00731807  1
  O  O322  1  0.51404403  0.63371032  0.51432475  1
  O  O323  1  0.53520201  0.38409729  0.50342969  1
  O  O324  1  0.48518040  0.36968086  1.00363188  1
  O  O325  1  0.49510495  0.87652389  0.48914005  1
  O  O326  1  0.49432882  0.87828272  0.99178478  1
  O  O327  1  0.99284146  0.36578932  0.48829594  1
  O  O328  1  0.99336694  0.38196269  0.99164111  1
  O  O329  1  0.99476471  0.88893896  0.49528138  1
  O  O330  1  0.99409201  0.88984686  1.00216373  1
  O  O331  1  0.49558051  0.49235785  0.38379275  1
  O  O332  1  0.48613901  0.50621138  0.88082334  1
  O  O333  1  0.49782661  0.98970177  0.38239531  1
  O  O334  1  0.49111837  0.99119464  0.87981547  1
  O  O335  1  0.99052322  0.48999833  0.36937379  1
  O  O336  1  0.99390629  0.49617839  0.87724484  1
  O  O337  1  0.99235308  0.99679330  0.38354799  1
  O  O338  1  1.00116752  1.00016897  0.89249352  1
  O  O339  1  0.00838153  -0.00196500  0.11526704  1
  O  O340  1  0.01149903  -0.00311261  0.61569735  1
  O  O341  1  0.00450483  0.50721078  0.11960338  1
  O  O342  1  0.00780452  0.50833540  0.63178687  1
  O  O343  1  0.50512326  0.00226589  0.12089437  1
  O  O344  1  0.50695711  -0.00559444  0.61121432  1
  O  O345  1  0.50195278  0.50202658  0.12244553  1
  O  O346  1  0.49845313  0.51797293  0.62686810  1
  O  O347  1  0.23737951  0.37657756  0.24379294  1
  O  O348  1  0.23961583  0.37642486  0.74272703  1
  O  O349  1  0.24366494  0.88078738  0.25097689  1
  O  O350  1  0.24931662  0.87970711  0.74136578  1
  O  O351  1  0.74327778  0.38398031  0.25146194  1
  O  O352  1  0.74711048  0.37957796  0.74392054  1
  O  O353  1  0.75276332  0.88990895  0.23737150  1
  O  O354  1  0.73537824  0.87907320  0.75364445  1
  O  O355  1  0.25155842  0.11784932  0.26185955  1
  O  O356  1  0.24636415  0.11144488  0.74608757  1
  O  O357  1  0.25479474  0.62730933  0.25524281  1
  O  O358  1  0.26106936  0.62731948  0.75940204  1
  O  O359  1  0.76121067  0.11265285  0.24087130  1
  O  O360  1  0.75965094  0.12427251  0.76069126  1
  O  O361  1  0.75086984  0.61773417  0.25752999  1
  O  O362  1  0.75213540  0.61768665  0.75701946  1
  O  O363  1  0.36541115  0.11888896  0.37623461  1
  O  O364  1  0.37701432  0.10836293  0.88562868  1
  O  O365  1  0.35862451  0.63553173  0.35973985  1
  O  O366  1  0.37083130  0.61961070  0.86648632  1
  O  O367  1  0.87742598  0.11271805  0.36331518  1
  O  O368  1  0.86751779  0.11975462  0.86896543  1
  O  O369  1  0.86920962  0.61952847  0.37285207  1
  O  O370  1  0.86748011  0.61734937  0.86854892  1
  O  O371  1  0.12679658  0.38178239  0.13156425  1
  O  O372  1  0.13255313  0.37932163  0.62961863  1
  O  O373  1  0.12751359  0.88769161  0.13407955  1
  O  O374  1  0.13150754  0.88660642  0.62306889  1
  O  O375  1  0.63090762  0.37580920  0.14016698  1
  O  O376  1  0.64244400  0.36337070  0.64408034  1
  O  O377  1  0.63152699  0.88643090  0.11894245  1
  O  O378  1  0.62363322  0.87764660  0.63318038  1
  O  O379  1  0.12383690  0.25953226  0.25680257  1
  O  O380  1  0.12305066  0.25655581  0.75446347  1
  O  O381  1  0.11860986  0.75653964  0.25360709  1
  O  O382  1  0.11030123  0.74740661  0.74096476  1
  O  O383  1  0.61781354  0.25248187  0.25186154  1
  O  O384  1  0.60582126  0.25752344  0.75287478  1
  O  O385  1  0.61360617  0.74186473  0.25768606  1
  O  O386  1  0.61818936  0.76438694  0.74546828  1
  O  O387  1  0.38373853  0.24802568  0.24319074  1
  O  O388  1  0.38677454  0.25605902  0.73822737  1
  O  O389  1  0.37955973  0.74436533  0.23968751  1
  O  O390  1  0.38451418  0.74387099  0.74751269  1
  O  O391  1  0.87450392  0.24262992  0.24022977  1
  O  O392  1  0.88674228  0.23833546  0.75992322  1
  O  O393  1  0.88058075  0.75114109  0.23909936  1
  O  O394  1  0.88484185  0.74383472  0.73795867  1
  O  O395  1  0.38415106  0.53780396  0.48887379  1
  O  O396  1  0.37483891  0.49202131  0.99404310  1
  O  O397  1  0.38541136  0.98999387  0.49566468  1
  O  O398  1  0.37754784  0.98946438  0.99478993  1
  O  O399  1  0.86643923  0.49653822  0.48560052  1
  O  O400  1  0.87906209  0.49516711  0.99396150  1
  O  O401  1  0.88088711  1.00866858  0.49323991  1
  O  O402  1  0.88703322  1.00348122  1.00481011  1
  O  O403  1  0.11775049  0.00475924  0.00970822  1
  O  O404  1  0.11873584  0.00594254  0.50614152  1
  O  O405  1  0.11807392  0.49028234  0.01085820  1
  O  O406  1  0.12691889  0.50490580  0.51119433  1
  O  O407  1  0.61848665  0.00758528  0.00914369  1
  O  O408  1  0.61367738  -0.00244941  0.50917256  1
  O  O409  1  0.62263356  0.51189358  0.00200165  1
  O  O410  1  0.63378435  0.51979441  0.49512231  1
  O  O411  1  0.36766128  0.36947132  0.11763418  1
  O  O412  1  0.36193391  0.38906743  0.62359130  1
  O  O413  1  0.37412827  0.86652993  0.11197292  1
  O  O414  1  0.37119983  0.86800438  0.61936878  1
  O  O415  1  0.87149515  0.36706438  0.11745720  1
  O  O416  1  0.85889181  0.37456744  0.62419372  1
  O  O417  1  0.86580859  0.86774648  0.12362119  1
  O  O418  1  0.88070117  0.86270289  0.62717517  1
  O  O419  1  0.13107976  0.13138745  0.38038380  1
  O  O420  1  0.12360145  0.13976087  0.87513561  1
  O  O421  1  0.12773903  0.63018878  0.37591335  1
  O  O422  1  0.14045768  0.61932941  0.86570472  1
  O  O423  1  0.62607746  0.13227311  0.37394054  1
  O  O424  1  0.63387089  0.11463802  0.88823737  1
  O  O425  1  0.63226343  0.63340485  0.38066146  1
  O  O426  1  0.63598239  0.62094662  0.88453911  1
