# generated using pymatgen
data_V85Zn86O256
_symmetry_space_group_name_H-M   'P 1'
_cell_length_a   16.94410259
_cell_length_b   16.96902750
_cell_length_c   16.95237853
_cell_angle_alpha   89.98402770
_cell_angle_beta   89.97296039
_cell_angle_gamma   90.01552632
_symmetry_Int_Tables_number   1
_chemical_formula_structural   V85Zn86O256
_chemical_formula_sum   'V85 Zn86 O256'
_cell_volume   4874.23075983
_cell_formula_units_Z   1
loop_
 _symmetry_equiv_pos_site_id
 _symmetry_equiv_pos_as_xyz
  1  'x, y, z'
loop_
 _atom_site_type_symbol
 _atom_site_label
 _atom_site_symmetry_multiplicity
 _atom_site_fract_x
 _atom_site_fract_y
 _atom_site_fract_z
 _atom_site_occupancy
  V  V0  1  0.12308437  0.37359365  0.74983325  1
  V  V1  1  0.87531575  0.13331898  0.74737561  1
  V  V2  1  0.12755559  0.62465585  0.00067643  1
  V  V3  1  0.50262193  0.62158779  0.12443132  1
  V  V4  1  0.62856927  0.23472038  0.37837537  1
  V  V5  1  0.25591934  0.87401723  0.12115067  1
  V  V6  1  0.88009208  0.62872227  0.25045015  1
  V  V7  1  0.88178734  0.74961918  0.12725017  1
  V  V8  1  0.63276213  0.87372993  0.74611204  1
  V  V9  1  0.50090961  0.49693233  0.50307467  1
  V  V10  1  0.12156863  0.87643646  0.24366656  1
  V  V11  1  0.86975947  0.87655229  0.50385337  1
  V  V12  1  0.49535449  0.87410108  0.87898389  1
  V  V13  1  0.37243546  0.12442253  0.24753398  1
  V  V14  1  0.25528339  0.00966270  0.75041738  1
  V  V15  1  0.37379394  0.49226289  0.38124312  1
  V  V16  1  0.86841518  0.62471042  0.76528911  1
  V  V17  1  -0.00333164  0.13382288  0.62543722  1
  V  V18  1  0.49838226  0.12283229  0.12225329  1
  V  V19  1  0.87421760  0.49974175  0.37629049  1
  V  V20  1  0.86327789  0.37660346  0.01021760  1
  V  V21  1  0.49932129  0.37354235  0.86401487  1
  V  V22  1  0.49881416  0.24985882  0.24991936  1
  V  V23  1  0.00174991  0.75214967  0.75271518  1
  V  V24  1  0.00331643  0.49842009  0.00315890  1
  V  V25  1  0.24736963  0.49958039  0.24544553  1
  V  V26  1  0.24826223  0.62495570  0.37420213  1
  V  V27  1  0.74825032  0.23143570  0.50056378  1
  V  V28  1  0.25294591  0.87213552  0.62505277  1
  V  V29  1  0.25757689  0.25482172  0.49835681  1
  V  V30  1  0.37623773  0.00736518  0.87086724  1
  V  V31  1  0.25605578  0.37623954  0.61908914  1
  V  V32  1  0.37467030  -0.00155259  0.37353629  1
  V  V33  1  0.37549411  0.50217030  0.87398977  1
  V  V34  1  0.75394961  0.13068038  0.88328751  1
  V  V35  1  0.11910789  0.09714233  0.02346039  1
  V  V36  1  0.12561209  0.87212645  0.75369090  1
  V  V37  1  0.37176341  0.24889418  0.11745241  1
  V  V38  1  0.86191523  0.12094458  0.25235766  1
  V  V39  1  0.86281434  0.24923757  0.12382459  1
  V  V40  1  0.37513578  0.63149516  0.74226517  1
  V  V41  1  0.24395715  0.63231517  0.87299361  1
  V  V42  1  0.86645450  0.75545700  0.62732873  1
  V  V43  1  0.24927219  0.75043918  0.49999473  1
  V  V44  1  0.00615310  0.62284853  0.12734448  1
  V  V45  1  -0.00026128  0.24013142  0.24372570  1
  V  V46  1  0.37548227  0.62402396  0.24880911  1
  V  V47  1  0.62594108  0.74833970  0.37511515  1
  V  V48  1  -0.00138108  0.37490096  0.37476496  1
  V  V49  1  0.49820591  0.75076814  0.74288099  1
  V  V50  1  0.12330660  0.37794290  0.24392389  1
  V  V51  1  0.49322592  -0.00497019  0.00086694  1
  V  V52  1  0.37421353  0.37426883  -0.00252081  1
  V  V53  1  0.49929944  0.87167471  0.37417136  1
  V  V54  1  0.12391241  0.12558685  0.49907414  1
  V  V55  1  0.24423305  -0.00004432  0.24191389  1
  V  V56  1  -0.00160273  0.37791855  0.88049243  1
  V  V57  1  -0.00233065  0.87664062  0.36914112  1
  V  V58  1  0.62775814  -0.00163629  0.12816533  1
  V  V59  1  0.24943817  0.37453984  0.12109513  1
  V  V60  1  0.11619508  0.50129504  0.62269311  1
  V  V61  1  0.75392075  -0.00236413  0.74946030  1
  V  V62  1  0.50401772  0.00510036  0.50119945  1
  V  V63  1  0.75067985  0.62621062  0.37868083  1
  V  V64  1  0.86520494  0.37016615  0.50112508  1
  V  V65  1  0.12323032  0.00112165  0.62415509  1
  V  V66  1  0.62684058  0.00433346  0.62401152  1
  V  V67  1  0.49975451  0.74839942  0.25067933  1
  V  V68  1  0.74725873  0.49396043  0.24362461  1
  V  V69  1  0.00548507  0.88225703  0.88338238  1
  V  V70  1  0.63029051  0.25638996  0.87454500  1
  V  V71  1  0.86066677  0.00177687  0.37020031  1
  V  V72  1  0.13288395  0.24954128  0.88774019  1
  V  V73  1  0.24832295  0.50287742  0.74836434  1
  V  V74  1  0.75041018  0.87661100  0.13034241  1
  V  V75  1  0.24846437  0.12470720  0.37323030  1
  V  V76  1  0.50220746  0.37365964  0.37778347  1
  V  V77  1  0.25628183  0.75224054  -0.00234455  1
  V  V78  1  0.63061516  0.74671220  0.87429010  1
  V  V79  1  0.12435914  0.24886536  0.37306233  1
  V  V80  1  0.37513780  0.87042300  0.50222680  1
  V  V81  1  0.11950261  0.75145952  0.36981182  1
  V  V82  1  0.63519434  0.48903774  0.63122163  1
  V  V83  1  0.75349961  0.74757010  -0.00138075  1
  V  V84  1  0.62778184  0.62572187  -0.00086061  1
  Zn  Zn85  1  0.48892914  0.11906418  0.63793246  1
  Zn  Zn86  1  0.80485106  0.30934761  0.66176946  1
  Zn  Zn87  1  0.63034533  0.12666061  0.00231046  1
  Zn  Zn88  1  0.62879689  0.87923454  0.25282772  1
  Zn  Zn89  1  0.88002000  0.87673893  0.00259383  1
  Zn  Zn90  1  0.75190197  0.49618989  0.75458166  1
  Zn  Zn91  1  0.50131937  0.62625178  0.62272828  1
  Zn  Zn92  1  0.63145874  0.48747059  0.11918112  1
  Zn  Zn93  1  0.62540852  0.62460871  0.50445814  1
  Zn  Zn94  1  0.11948980  0.62547099  0.49956485  1
  Zn  Zn95  1  -0.00427571  0.50298363  0.50129739  1
  Zn  Zn96  1  0.74645678  0.75414509  0.50755192  1
  Zn  Zn97  1  0.25383289  0.13628979  0.88178319  1
  Zn  Zn98  1  -0.00359199  0.62791677  0.62488674  1
  Zn  Zn99  1  -0.00486257  0.25355972  0.75167194  1
  Zn  Zn100  1  0.88265711  0.00652000  0.87842124  1
  Zn  Zn101  1  0.49380599  0.23646977  0.74993666  1
  Zn  Zn102  1  0.37582569  0.23943287  0.63042568  1
  Zn  Zn103  1  0.37992199  0.75183943  0.11865031  1
  Zn  Zn104  1  0.63019970  0.36750148  0.24311183  1
  Zn  Zn105  1  0.50156407  0.49945168  -0.00105860  1
  Zn  Zn106  1  -0.00413917  0.00308449  0.49783944  1
  Zn  Zn107  1  0.18587275  0.18890958  0.18304280  1
  Zn  Zn108  1  0.18929228  0.19061183  0.68640025  1
  Zn  Zn109  1  0.18880972  0.69098846  0.18603506  1
  Zn  Zn110  1  0.18490923  0.68785022  0.68531938  1
  Zn  Zn111  1  0.68441109  0.18604928  0.18841619  1
  Zn  Zn112  1  0.67780641  0.18326692  0.69410420  1
  Zn  Zn113  1  0.69016054  0.68615152  0.18786603  1
  Zn  Zn114  1  0.68787506  0.67738323  0.68809425  1
  Zn  Zn115  1  0.31321986  0.31250166  0.31042899  1
  Zn  Zn116  1  0.31276433  0.31412938  0.80705638  1
  Zn  Zn117  1  0.31134697  0.81169193  0.31063865  1
  Zn  Zn118  1  0.31390761  0.81525758  0.81298116  1
  Zn  Zn119  1  0.81177086  0.30818020  0.31542112  1
  Zn  Zn120  1  0.79436625  0.35178690  0.83781213  1
  Zn  Zn121  1  0.81353540  0.81257751  0.31282400  1
  Zn  Zn122  1  0.81964541  0.81549293  0.81795161  1
  Zn  Zn123  1  0.18373647  0.43747551  0.43654813  1
  Zn  Zn124  1  0.18697511  0.44213647  0.93773460  1
  Zn  Zn125  1  0.18605552  0.93838074  0.43467424  1
  Zn  Zn126  1  0.18932013  0.94089718  0.93923534  1
  Zn  Zn127  1  0.68378264  0.43313121  0.43832421  1
  Zn  Zn128  1  0.68285555  0.44195629  0.93795816  1
  Zn  Zn129  1  0.68638775  0.93728720  0.43775036  1
  Zn  Zn130  1  0.68781432  0.93866909  0.93922423  1
  Zn  Zn131  1  0.30666610  0.06360441  0.05460266  1
  Zn  Zn132  1  0.31200058  0.06097353  0.55903763  1
  Zn  Zn133  1  0.31486207  0.56224384  0.06154286  1
  Zn  Zn134  1  0.30948471  0.56158678  0.56153832  1
  Zn  Zn135  1  0.81441704  0.06611265  0.07136731  1
  Zn  Zn136  1  0.81276736  0.05855795  0.56384899  1
  Zn  Zn137  1  0.81630339  0.56230244  0.05880223  1
  Zn  Zn138  1  0.81742993  0.56497326  0.56706257  1
  Zn  Zn139  1  0.43949690  0.43600142  0.18885117  1
  Zn  Zn140  1  0.43708936  0.43991371  0.68612362  1
  Zn  Zn141  1  0.43687831  0.93564634  0.18822242  1
  Zn  Zn142  1  0.44001874  0.93806069  0.68924598  1
  Zn  Zn143  1  0.93571266  0.43912884  0.18658649  1
  Zn  Zn144  1  0.92396484  0.43187474  0.69491789  1
  Zn  Zn145  1  0.93773141  0.94373877  0.17996152  1
  Zn  Zn146  1  0.93774225  0.94050705  0.68913630  1
  Zn  Zn147  1  0.05853041  0.06007296  0.31023063  1
  Zn  Zn148  1  0.06437013  0.06540242  0.81316152  1
  Zn  Zn149  1  0.06265822  0.56176425  0.31306735  1
  Zn  Zn150  1  0.05693624  0.56243568  0.81300600  1
  Zn  Zn151  1  0.55989426  0.06024018  0.31076579  1
  Zn  Zn152  1  0.56865094  0.06435838  0.81463764  1
  Zn  Zn153  1  0.56374549  0.56155928  0.31382658  1
  Zn  Zn154  1  0.56267808  0.56087042  0.81033090  1
  Zn  Zn155  1  0.43750561  0.18632094  0.43839347  1
  Zn  Zn156  1  0.44280929  0.18657142  0.93541089  1
  Zn  Zn157  1  0.43568822  0.68261586  0.43742684  1
  Zn  Zn158  1  0.43852357  0.68668989  0.93272161  1
  Zn  Zn159  1  0.93526238  0.18623678  0.43493581  1
  Zn  Zn160  1  0.94514608  0.18915972  0.94096568  1
  Zn  Zn161  1  0.93792074  0.69050523  0.44129871  1
  Zn  Zn162  1  0.94568767  0.69391469  0.93853757  1
  Zn  Zn163  1  0.05973249  0.30650493  0.06514027  1
  Zn  Zn164  1  0.06473324  0.31385059  0.56028963  1
  Zn  Zn165  1  0.07128964  0.80726017  0.06216678  1
  Zn  Zn166  1  0.05711824  0.81472000  0.56097141  1
  Zn  Zn167  1  0.56495073  0.31053642  0.05719687  1
  Zn  Zn168  1  0.56433935  0.30768909  0.56647368  1
  Zn  Zn169  1  0.56443463  0.81177356  0.06357899  1
  Zn  Zn170  1  0.56593638  0.81686091  0.56212041  1
  O  O171  1  0.12367325  0.11823238  0.12328046  1
  O  O172  1  0.11966524  0.11769001  0.62128140  1
  O  O173  1  0.11424133  0.63129343  0.11975522  1
  O  O174  1  0.12163940  0.61391020  0.62446603  1
  O  O175  1  0.61880936  0.11692618  0.12306529  1
  O  O176  1  0.61966410  0.10603809  0.63015629  1
  O  O177  1  0.61821927  0.62611804  0.11611110  1
  O  O178  1  0.62026412  0.61417630  0.62090610  1
  O  O179  1  0.38315349  0.38437424  0.36996659  1
  O  O180  1  0.37809206  0.38123595  0.88132773  1
  O  O181  1  0.37793996  0.87845150  0.38211772  1
  O  O182  1  0.38945941  0.88335059  0.87045290  1
  O  O183  1  0.88202303  0.37833746  0.37914794  1
  O  O184  1  0.89252986  0.35869236  0.90248344  1
  O  O185  1  0.88174353  0.88048352  0.37683891  1
  O  O186  1  0.88922175  0.88368599  0.88242735  1
  O  O187  1  0.25452715  0.00419205  0.36523565  1
  O  O188  1  0.26082668  -0.00508878  0.86557609  1
  O  O189  1  0.25522479  0.50239982  0.36766733  1
  O  O190  1  0.25492889  0.50996027  0.86800943  1
  O  O191  1  0.76109496  -0.00704150  0.37057313  1
  O  O192  1  0.75474060  0.00965481  0.86944722  1
  O  O193  1  0.75420499  0.50931743  0.36754796  1
  O  O194  1  0.75740431  0.46027176  0.86150623  1
  O  O195  1  0.25829461  0.48973839  0.13709944  1
  O  O196  1  0.23785270  0.49530301  0.62749113  1
  O  O197  1  0.25696112  0.99112320  0.13561084  1
  O  O198  1  0.24190710  0.99148864  0.63011627  1
  O  O199  1  0.75230439  0.50766753  0.14062253  1
  O  O200  1  0.73846143  0.50350478  0.62457562  1
  O  O201  1  0.73966899  0.98906277  0.11588413  1
  O  O202  1  0.74331574  1.00441393  0.63977079  1
  O  O203  1  0.00569390  0.37144264  0.25654638  1
  O  O204  1  0.00569179  0.37616322  0.76222162  1
  O  O205  1  0.00955530  0.88562814  0.25440367  1
  O  O206  1  0.00782556  0.87260143  0.75636319  1
  O  O207  1  0.49736811  0.36697905  0.26168640  1
  O  O208  1  0.49676092  0.37951014  0.76323155  1
  O  O209  1  0.50040537  0.86647039  0.25713511  1
  O  O210  1  0.50988653  0.86848223  0.75824987  1
  O  O211  1  0.49097336  0.12877127  0.24268064  1
  O  O212  1  0.49765043  0.11971001  0.75294580  1
  O  O213  1  0.49682615  0.62779454  0.24365263  1
  O  O214  1  0.49104570  0.63437707  0.75143788  1
  O  O215  1  0.99327018  0.13594662  0.25452880  1
  O  O216  1  0.99261437  0.12743075  0.74358993  1
  O  O217  1  0.98972204  0.61720073  0.24201576  1
  O  O218  1  0.99784107  0.64045832  0.75105416  1
  O  O219  1  0.37784262  0.25797643  0.00910423  1
  O  O220  1  0.35954146  0.24900133  0.49569475  1
  O  O221  1  0.36190674  0.74356353  -0.00111772  1
  O  O222  1  0.36306062  0.75973468  0.49169175  1
  O  O223  1  0.88254160  0.25658273  0.01828074  1
  O  O224  1  0.85549581  0.25343438  0.48612031  1
  O  O225  1  0.86861415  0.74919749  0.00930620  1
  O  O226  1  0.87409427  0.75939995  0.50959572  1
  O  O227  1  0.13217237  0.24434318  0.49142532  1
  O  O228  1  0.12900228  0.25748652  0.98815453  1
  O  O229  1  0.13297327  0.75430998  0.48864480  1
  O  O230  1  0.13860235  0.73346186  1.00118329  1
  O  O231  1  0.63479363  0.25284097  0.48618046  1
  O  O232  1  0.61607050  0.24120275  0.98299068  1
  O  O233  1  0.62714216  0.74960047  0.48878860  1
  O  O234  1  0.63294850  0.74455857  0.99381715  1
  O  O235  1  0.48913805  0.24271210  0.12886854  1
  O  O236  1  0.49766443  0.24156382  0.62574761  1
  O  O237  1  0.50037196  0.74030792  0.13058754  1
  O  O238  1  0.50676830  0.75112269  0.63933428  1
  O  O239  1  0.99042982  0.25609350  0.13964914  1
  O  O240  1  1.00937656  0.23727203  0.62817199  1
  O  O241  1  0.99023020  0.73947742  0.11778595  1
  O  O242  1  0.99096625  0.75467887  0.63658015  1
  O  O243  1  0.00350270  0.25764923  0.36520648  1
  O  O244  1  0.01487927  0.26233375  0.87343653  1
  O  O245  1  0.00808031  0.76333238  0.37783118  1
  O  O246  1  -0.00240597  0.76724477  0.86197465  1
  O  O247  1  0.50749009  0.25477531  0.37364612  1
  O  O248  1  0.50494783  0.25879363  0.87283597  1
  O  O249  1  0.50742011  0.75088147  0.37190065  1
  O  O250  1  0.50952432  0.75690735  0.86840568  1
  O  O251  1  0.24259802  0.13237476  0.49188727  1
  O  O252  1  0.22511108  0.11555744  0.99436244  1
  O  O253  1  0.24764327  0.63543616  0.49396804  1
  O  O254  1  0.24595592  0.62834440  0.99302326  1
  O  O255  1  0.75306386  0.13278739  0.49606629  1
  O  O256  1  0.75713972  0.12102078  0.98711951  1
  O  O257  1  0.75393447  0.62826897  0.48642729  1
  O  O258  1  0.74127810  0.63590196  1.00716390  1
  O  O259  1  0.26040712  0.38504679  0.01046320  1
  O  O260  1  0.23950404  0.36562006  0.50635812  1
  O  O261  1  0.24081757  0.86368028  0.00931326  1
  O  O262  1  0.25533835  0.87058570  0.50431650  1
  O  O263  1  0.76550524  0.37842409  0.00436717  1
  O  O264  1  0.75968961  0.36657032  0.49466487  1
  O  O265  1  0.75219572  0.86423852  0.00923500  1
  O  O266  1  0.76532043  0.87239259  0.49332111  1
  O  O267  1  0.13561863  0.48985259  0.25558511  1
  O  O268  1  0.12693974  0.49251790  0.74454758  1
  O  O269  1  0.13545382  0.99080230  0.25496337  1
  O  O270  1  0.13343737  0.99212891  0.74181774  1
  O  O271  1  0.64072038  0.50261926  0.25012203  1
  O  O272  1  0.62722688  0.50375208  0.73572789  1
  O  O273  1  0.61763324  0.99804047  0.23374925  1
  O  O274  1  0.63408228  0.99070888  0.74673137  1
  O  O275  1  0.36638454  0.00462493  0.25436435  1
  O  O276  1  0.36620823  -0.00697858  0.75828127  1
  O  O277  1  0.36632174  0.50319844  0.25908700  1
  O  O278  1  0.36834083  0.51035133  0.75479997  1
  O  O279  1  0.87985503  0.01453062  0.25245825  1
  O  O280  1  0.86735810  0.00870891  0.75199040  1
  O  O281  1  0.86639959  0.50860666  0.25486331  1
  O  O282  1  0.89145727  0.52771406  0.75038364  1
  O  O283  1  0.11795818  0.36977176  0.36359994  1
  O  O284  1  0.12088792  0.37130341  0.86914400  1
  O  O285  1  0.11775356  0.87101099  0.36677838  1
  O  O286  1  0.11778539  0.88198470  0.86288932  1
  O  O287  1  0.61455611  0.36819802  0.36738226  1
  O  O288  1  0.61310515  0.36257974  0.88511609  1
  O  O289  1  0.61984755  0.86500517  0.37268795  1
  O  O290  1  0.61794454  0.86697096  0.86746471  1
  O  O291  1  0.37525719  0.13154597  0.12606470  1
  O  O292  1  0.37545551  0.12452976  0.61978627  1
  O  O293  1  0.38514043  0.62585100  0.13040072  1
  O  O294  1  0.37476680  0.62074950  0.63856330  1
  O  O295  1  0.87419004  0.13909182  0.13936412  1
  O  O296  1  0.88769742  0.11573790  0.63239680  1
  O  O297  1  0.88307951  0.63118820  0.13085309  1
  O  O298  1  0.87813038  0.63910848  0.63500785  1
  O  O299  1  0.26144693  0.26235671  0.13199191  1
  O  O300  1  0.24733736  0.25994550  0.61430381  1
  O  O301  1  0.25484982  0.75549619  0.11680282  1
  O  O302  1  0.24124446  0.76198563  0.61316373  1
  O  O303  1  0.76311403  0.25144596  0.13178443  1
  O  O304  1  0.73644006  0.24085706  0.60776300  1
  O  O305  1  0.75815668  0.75459151  0.11752916  1
  O  O306  1  0.76129344  0.74850695  0.62737057  1
  O  O307  1  0.24447440  0.24590510  0.37774043  1
  O  O308  1  0.23701173  0.25620660  0.87096899  1
  O  O309  1  0.24119616  0.74681668  0.38167613  1
  O  O310  1  0.25403750  0.74075624  0.88037353  1
  O  O311  1  0.73472907  0.24932223  0.37951512  1
  O  O312  1  0.73842061  0.25032321  0.87114794  1
  O  O313  1  0.74242698  0.74185112  0.37303851  1
  O  O314  1  0.74079115  0.75834791  0.88578805  1
  O  O315  1  0.02758100  0.13023218  -0.00837463  1
  O  O316  1  0.00495146  0.12485651  0.50700344  1
  O  O317  1  0.00738906  0.61916546  0.00508040  1
  O  O318  1  0.00173961  0.62170336  0.50486429  1
  O  O319  1  0.50001377  0.11173338  0.00616811  1
  O  O320  1  0.49642992  0.10550042  0.49562532  1
  O  O321  1  0.50917062  0.62748439  0.00749714  1
  O  O322  1  0.49995021  0.61206389  0.50088911  1
  O  O323  1  0.50468885  0.38443035  0.48803234  1
  O  O324  1  0.48557176  0.37746539  0.99225215  1
  O  O325  1  0.49067694  0.87761980  0.49493300  1
  O  O326  1  0.50747646  0.88138609  0.98997191  1
  O  O327  1  0.99616618  0.37053727  0.48300066  1
  O  O328  1  1.00495807  0.38515175  0.99928479  1
  O  O329  1  0.99028348  0.87933603  0.48837544  1
  O  O330  1  1.00824647  0.86437729  0.98444323  1
  O  O331  1  0.49370735  0.49355325  0.38005499  1
  O  O332  1  0.49413921  0.49321430  0.87668806  1
  O  O333  1  0.49573902  0.99101784  0.38066880  1
  O  O334  1  0.49666108  0.99272348  0.88204358  1
  O  O335  1  0.99360514  0.48957546  0.37315718  1
  O  O336  1  1.00518551  0.48949755  0.88885896  1
  O  O337  1  0.99166504  0.98985798  0.37578990  1
  O  O338  1  1.00127342  0.98743048  0.87053261  1
  O  O339  1  -0.03896401  -0.00009236  0.08023975  1
  O  O340  1  0.01217651  0.00765893  0.62497630  1
  O  O341  1  -0.00331948  0.51194345  0.11708952  1
  O  O342  1  0.00910795  0.49597109  0.62664915  1
  O  O343  1  0.50357084  0.00121149  0.11797455  1
  O  O344  1  0.50827087  -0.00586813  0.61608511  1
  O  O345  1  0.50128013  0.51292243  0.12505466  1
  O  O346  1  0.50690628  0.49897507  0.61552531  1
  O  O347  1  0.24366083  0.38096734  0.24332548  1
  O  O348  1  0.23981458  0.38417232  0.74079403  1
  O  O349  1  0.24308060  0.88175387  0.24413657  1
  O  O350  1  0.24410860  0.87895199  0.74171824  1
  O  O351  1  0.75322704  0.39142090  0.25720896  1
  O  O352  1  0.81309685  0.39269736  0.73254754  1
  O  O353  1  0.74890729  0.86851527  0.23504191  1
  O  O354  1  0.74355171  0.88524532  0.76189543  1
  O  O355  1  0.25244929  0.11794581  0.25285803  1
  O  O356  1  0.24270013  0.11128451  0.75288662  1
  O  O357  1  0.25263629  0.61678570  0.25302991  1
  O  O358  1  0.25452444  0.62547903  0.75527590  1
  O  O359  1  0.76293006  0.12672881  0.25117713  1
  O  O360  1  0.75725644  0.11820457  0.76004369  1
  O  O361  1  0.75979849  0.61824837  0.25888657  1
  O  O362  1  0.76400799  0.62099830  0.75416199  1
  O  O363  1  0.36869629  0.11911581  0.36749771  1
  O  O364  1  0.37034338  0.11174859  0.88262156  1
  O  O365  1  0.36790488  0.61426991  0.36862117  1
  O  O366  1  0.36592851  0.62118000  0.86532086  1
  O  O367  1  0.87835946  0.11629375  0.36216412  1
  O  O368  1  0.87308012  0.12721907  0.86793713  1
  O  O369  1  0.87089911  0.62314764  0.36806628  1
  O  O370  1  0.87970067  0.63841853  0.86459965  1
  O  O371  1  0.13452393  0.36766073  0.13587893  1
  O  O372  1  0.12900706  0.38252700  0.63196064  1
  O  O373  1  0.13610734  0.86585750  0.13715148  1
  O  O374  1  0.13124958  0.88398314  0.62956682  1
  O  O375  1  0.61300313  0.37717754  0.13153158  1
  O  O376  1  0.62526294  0.38956162  0.62016900  1
  O  O377  1  0.63278239  0.88014924  0.12685363  1
  O  O378  1  0.62466907  0.88078178  0.64042984  1
  O  O379  1  0.11867556  0.25762773  0.25343129  1
  O  O380  1  0.12481734  0.26590365  0.75298341  1
  O  O381  1  0.13197322  0.76091940  0.26195709  1
  O  O382  1  0.11770618  0.76406827  0.74158508  1
  O  O383  1  0.61828145  0.24771495  0.26193606  1
  O  O384  1  0.61844306  0.24633652  0.76904565  1
  O  O385  1  0.61962147  0.74806573  0.26092341  1
  O  O386  1  0.62197289  0.75388339  0.75782189  1
  O  O387  1  0.37873451  0.24402585  0.24096249  1
  O  O388  1  0.37945260  0.25689136  0.74330373  1
  O  O389  1  0.38157141  0.74053908  0.25184952  1
  O  O390  1  0.38581373  0.74365398  0.75605739  1
  O  O391  1  0.87950674  0.24191590  0.24627334  1
  O  O392  1  0.87203892  0.23593986  0.74153235  1
  O  O393  1  0.87043457  0.73794876  0.24076785  1
  O  O394  1  0.88086973  0.74800476  0.74513200  1
  O  O395  1  0.38141535  0.50411126  0.48866517  1
  O  O396  1  0.37715113  0.49287203  0.99243733  1
  O  O397  1  0.38051165  0.98728876  0.49277747  1
  O  O398  1  0.38562936  0.99863089  0.99194275  1
  O  O399  1  0.87490872  0.48923520  0.49407101  1
  O  O400  1  0.88606486  0.48454349  1.00897184  1
  O  O401  1  0.87507908  0.99383430  0.48975184  1
  O  O402  1  0.89560715  0.99455784  1.02559181  1
  O  O403  1  0.11964598  -0.00318724  0.00911209  1
  O  O404  1  0.12601172  0.00546903  0.50896183  1
  O  O405  1  0.11872288  0.51336148  0.00156124  1
  O  O406  1  0.12039037  0.50102777  0.50846092  1
  O  O407  1  0.61439730  0.00134010  0.00925913  1
  O  O408  1  0.61603882  -0.01405747  0.51158435  1
  O  O409  1  0.62320371  0.51274657  0.00237905  1
  O  O410  1  0.61702774  0.50169637  0.50634025  1
  O  O411  1  0.37033242  0.36859207  0.11826616  1
  O  O412  1  0.35664794  0.38376450  0.62460193  1
  O  O413  1  0.36140063  0.87020184  0.13020658  1
  O  O414  1  0.36345898  0.88066891  0.61513240  1
  O  O415  1  0.87872251  0.36401612  0.11970071  1
  O  O416  1  0.89308741  0.36407945  0.60111332  1
  O  O417  1  0.86961236  0.86276955  0.12585186  1
  O  O418  1  0.88205609  0.87056087  0.61507452  1
  O  O419  1  0.12858584  0.12903833  0.37768375  1
  O  O420  1  0.12734923  0.14579384  0.86684742  1
  O  O421  1  0.12898496  0.63496615  0.37353547  1
  O  O422  1  0.13682300  0.61955935  0.88174659  1
  O  O423  1  0.61804555  0.13576107  0.37387837  1
  O  O424  1  0.63891439  0.13264679  0.87822007  1
  O  O425  1  0.63346175  0.63222524  0.37720254  1
  O  O426  1  0.61812391  0.63673197  0.88514021  1
