# generated using pymatgen
data_V85Zn86O256
_symmetry_space_group_name_H-M   'P 1'
_cell_length_a   16.97549628
_cell_length_b   16.97364626
_cell_length_c   16.97088074
_cell_angle_alpha   89.97443822
_cell_angle_beta   89.95226709
_cell_angle_gamma   89.95610820
_symmetry_Int_Tables_number   1
_chemical_formula_structural   V85Zn86O256
_chemical_formula_sum   'V85 Zn86 O256'
_cell_volume   4889.91924620
_cell_formula_units_Z   1
loop_
 _symmetry_equiv_pos_site_id
 _symmetry_equiv_pos_as_xyz
  1  'x, y, z'
loop_
 _atom_site_type_symbol
 _atom_site_label
 _atom_site_symmetry_multiplicity
 _atom_site_fract_x
 _atom_site_fract_y
 _atom_site_fract_z
 _atom_site_occupancy
  V  V0  1  0.87708560  0.12507840  0.73946234  1
  V  V1  1  0.24798181  0.37300930  0.12592845  1
  V  V2  1  0.13346970  0.25451591  0.38127083  1
  V  V3  1  -0.00656156  0.37422864  0.37944060  1
  V  V4  1  0.12980361  0.13824074  0.50338056  1
  V  V5  1  -0.00028823  0.12765065  0.11621630  1
  V  V6  1  0.12598228  0.50041079  0.62316870  1
  V  V7  1  0.74968997  -0.00031190  0.74893333  1
  V  V8  1  0.74457585  0.74662394  0.50131784  1
  V  V9  1  0.50238851  0.37805455  0.87246914  1
  V  V10  1  0.12333031  0.50062744  0.12438364  1
  V  V11  1  0.37348031  0.37395786  0.00098124  1
  V  V12  1  0.25272058  0.49914601  0.75034272  1
  V  V13  1  0.11631471  0.00200510  0.62482010  1
  V  V14  1  0.62810991  0.25211270  0.37543860  1
  V  V15  1  0.12627323  0.63705836  0.49876115  1
  V  V16  1  0.62486810  -0.00044169  0.62594940  1
  V  V17  1  0.62465390  0.74503457  0.87674484  1
  V  V18  1  0.49833636  0.87379885  0.87685528  1
  V  V19  1  -0.00195756  0.24946225  0.24589852  1
  V  V20  1  0.00230542  0.75222189  0.26820623  1
  V  V21  1  0.63171503  0.49843509  0.61660229  1
  V  V22  1  0.88222822  0.88166503  0.49290602  1
  V  V23  1  0.25167586  0.36741146  0.62094706  1
  V  V24  1  0.87789935  0.62491618  0.75724689  1
  V  V25  1  0.74771366  0.87411484  0.62527073  1
  V  V26  1  0.49929336  0.74837987  0.74850074  1
  V  V27  1  -0.00071067  0.24617629  0.74325238  1
  V  V28  1  0.25144481  0.74794705  0.00276835  1
  V  V29  1  0.38046418  0.64043230  0.24311144  1
  V  V30  1  0.24822215  0.50108378  0.24964397  1
  V  V31  1  0.62592813  0.38618045  0.24237464  1
  V  V32  1  0.24378133  0.12504192  0.87909010  1
  V  V33  1  0.37471821  0.12658828  0.75042916  1
  V  V34  1  0.24573831  -0.00788748  0.74845475  1
  V  V35  1  0.12330795  0.37564871  0.25067152  1
  V  V36  1  0.75167195  -0.00052786  0.25320442  1
  V  V37  1  0.12487605  0.62479593  -0.00042613  1
  V  V38  1  0.87578080  -0.00116109  0.87258438  1
  V  V39  1  0.37425961  0.86991498  0.00490340  1
  V  V40  1  0.87821467  0.12852714  0.24555187  1
  V  V41  1  0.87802222  0.75098523  0.12569592  1
  V  V42  1  0.24523754  0.63687245  0.38180349  1
  V  V43  1  -0.00165508  0.49920944  0.50291455  1
  V  V44  1  0.12299436  0.24625137  0.87984867  1
  V  V45  1  -0.00933891  0.50060798  -0.00411695  1
  V  V46  1  0.87192734  0.26464701  0.62108382  1
  V  V47  1  0.75596845  0.12422248  0.37530268  1
  V  V48  1  0.61589654  0.75833108  0.37184626  1
  V  V49  1  0.12513274  0.37458174  0.74927504  1
  V  V50  1  0.50008439  0.37362974  0.37522945  1
  V  V51  1  0.50325015  0.50484071  0.01463555  1
  V  V52  1  0.37361733  -0.00213235  0.87560226  1
  V  V53  1  0.11871939  0.87446033  0.25835561  1
  V  V54  1  0.75370688  0.87795797  0.12632107  1
  V  V55  1  0.74282804  0.62653683  0.37983949  1
  V  V56  1  0.62734535  0.25108547  0.87513630  1
  V  V57  1  0.75667505  0.26186330  0.50248875  1
  V  V58  1  0.37323102  0.75223395  0.61411064  1
  V  V59  1  0.24972067  0.87298156  0.62029611  1
  V  V60  1  0.87650621  0.62802267  0.25338110  1
  V  V61  1  0.12227177  0.75353984  0.86065282  1
  V  V62  1  0.62225536  0.00487903  0.12401348  1
  V  V63  1  0.87318111  0.50084214  0.37953067  1
  V  V64  1  0.74990790  0.49417128  0.75870694  1
  V  V65  1  0.50531080  0.62485209  0.61568858  1
  V  V66  1  0.62034907  0.12516758  0.00258373  1
  V  V67  1  0.49416846  -0.00453807  0.48845187  1
  V  V68  1  0.62082482  0.62463622  0.01821904  1
  V  V69  1  0.49969046  0.12520974  0.62660566  1
  V  V70  1  0.74903561  0.74940232  0.00193995  1
  V  V71  1  0.88097912  0.87602779  -0.00204925  1
  V  V72  1  0.12609755  0.00537492  0.11621668  1
  V  V73  1  0.62844136  0.12549818  0.50032175  1
  V  V74  1  0.24247901  0.87295492  0.12364793  1
  V  V75  1  0.50215578  0.24876387  0.23496996  1
  V  V76  1  0.00022888  0.62654758  0.12588739  1
  V  V77  1  0.37251404  0.36675715  0.49902790  1
  V  V78  1  0.37139803  0.49559566  0.37474176  1
  V  V79  1  -0.00703577  0.38001803  0.87305810  1
  V  V80  1  0.00267099  0.87017436  0.85789123  1
  V  V81  1  0.76034875  0.37780117  0.12516763  1
  V  V82  1  0.88012217  0.74840135  0.62889804  1
  V  V83  1  0.75045098  0.12518839  0.87430482  1
  V  V84  1  0.25102100  0.62388005  0.87292073  1
  Zn  Zn85  1  0.24396253  0.24417978  0.00500018  1
  Zn  Zn86  1  0.30926571  0.06086697  0.31004050  1
  Zn  Zn87  1  0.37375003  0.87767734  0.48748768  1
  Zn  Zn88  1  0.50407436  0.50158993  0.49787130  1
  Zn  Zn89  1  0.61634655  0.87510017  0.25004321  1
  Zn  Zn90  1  0.37615526  0.62383987  0.74552773  1
  Zn  Zn91  1  0.75820205  0.24352589  0.01360153  1
  Zn  Zn92  1  0.44361669  0.07980381  0.17977014  1
  Zn  Zn93  1  0.00906563  0.00627409  0.48318876  1
  Zn  Zn94  1  0.37925960  0.50168094  0.87428949  1
  Zn  Zn95  1  0.50014997  0.25247269  0.74866709  1
  Zn  Zn96  1  0.00394397  0.00860841  -0.00878416  1
  Zn  Zn97  1  0.75396709  0.62003830  0.88174399  1
  Zn  Zn98  1  0.36878841  0.24010095  0.12562719  1
  Zn  Zn99  1  0.63054587  0.37134298  0.74332376  1
  Zn  Zn100  1  0.49497351  0.00339910  0.00460578  1
  Zn  Zn101  1  0.74434971  0.50768201  0.24639740  1
  Zn  Zn102  1  0.37112126  0.24583565  0.61984673  1
  Zn  Zn103  1  0.87505620  0.37102556  0.00136195  1
  Zn  Zn104  1  0.00396076  0.63058178  0.63004130  1
  Zn  Zn105  1  0.90825846  -0.00688687  0.35847814  1
  Zn  Zn106  1  0.62524024  0.87404769  0.75305374  1
  Zn  Zn107  1  0.19039291  0.18271932  0.19621147  1
  Zn  Zn108  1  0.18483940  0.18307818  0.68991438  1
  Zn  Zn109  1  0.18646383  0.68877824  0.19236370  1
  Zn  Zn110  1  0.19011421  0.68641001  0.68218287  1
  Zn  Zn111  1  0.68769895  0.19180687  0.18855754  1
  Zn  Zn112  1  0.68942373  0.19016612  0.68636812  1
  Zn  Zn113  1  0.68942972  0.69120304  0.19312876  1
  Zn  Zn114  1  0.68922974  0.68087786  0.68959475  1
  Zn  Zn115  1  0.33060836  0.25153345  0.33163687  1
  Zn  Zn116  1  0.31286533  0.31158432  0.81405288  1
  Zn  Zn117  1  0.29924188  0.81455937  0.31256287  1
  Zn  Zn118  1  0.31347641  0.80974176  0.81128325  1
  Zn  Zn119  1  0.81150275  0.31309398  0.31071646  1
  Zn  Zn120  1  0.81355000  0.31081565  0.81250760  1
  Zn  Zn121  1  0.81133702  0.81207569  0.31391702  1
  Zn  Zn122  1  0.81267276  0.80935403  0.81358621  1
  Zn  Zn123  1  0.18574926  0.43831829  0.43847208  1
  Zn  Zn124  1  0.18215100  0.43613341  0.93723670  1
  Zn  Zn125  1  0.18902473  0.93738586  0.44204145  1
  Zn  Zn126  1  0.18432888  0.93507356  0.93489293  1
  Zn  Zn127  1  0.68698266  0.43890364  0.43475225  1
  Zn  Zn128  1  0.68529267  0.43932756  0.94251782  1
  Zn  Zn129  1  0.68574896  0.93645109  0.43812377  1
  Zn  Zn130  1  0.68824730  0.93672240  0.93863463  1
  Zn  Zn131  1  0.30777836  0.05792691  0.06151741  1
  Zn  Zn132  1  0.30905872  0.06247552  0.55904323  1
  Zn  Zn133  1  0.31565491  0.56164223  0.06383646  1
  Zn  Zn134  1  0.31547395  0.56124443  0.56155321  1
  Zn  Zn135  1  0.81268494  0.06351595  0.06181712  1
  Zn  Zn136  1  0.81347389  0.06367868  0.55985301  1
  Zn  Zn137  1  0.80870943  0.56227591  0.06665082  1
  Zn  Zn138  1  0.81259880  0.56248074  0.56667167  1
  Zn  Zn139  1  0.43278186  0.43571082  0.19159302  1
  Zn  Zn140  1  0.43958092  0.43836568  0.68451101  1
  Zn  Zn141  1  0.41843557  0.91375790  0.20618782  1
  Zn  Zn142  1  0.43590113  0.93651330  0.68633419  1
  Zn  Zn143  1  0.93621649  0.44126948  0.19076004  1
  Zn  Zn144  1  0.93523149  0.44048033  0.69007601  1
  Zn  Zn145  1  0.94399005  0.93973679  0.18524512  1
  Zn  Zn146  1  0.93370087  0.93660501  0.68301961  1
  Zn  Zn147  1  0.09889867  0.06581681  0.30828258  1
  Zn  Zn148  1  0.06075699  0.06046281  0.80942600  1
  Zn  Zn149  1  0.06206143  0.56408282  0.31496546  1
  Zn  Zn150  1  0.06414386  0.56377389  0.81240656  1
  Zn  Zn151  1  0.56694440  0.06503452  0.31270892  1
  Zn  Zn152  1  0.56198621  0.06070122  0.81496698  1
  Zn  Zn153  1  0.55864499  0.56762708  0.31117028  1
  Zn  Zn154  1  0.56529886  0.56175130  0.81100841  1
  Zn  Zn155  1  0.43965858  0.17696900  0.43533368  1
  Zn  Zn156  1  0.43598264  0.18865044  0.93930308  1
  Zn  Zn157  1  0.43446943  0.68450165  0.43321764  1
  Zn  Zn158  1  0.43723160  0.68566698  0.93907254  1
  Zn  Zn159  1  0.94404254  0.18051491  0.44077708  1
  Zn  Zn160  1  0.93306980  0.19223131  0.93235448  1
  Zn  Zn161  1  0.93309184  0.68535748  0.44647341  1
  Zn  Zn162  1  0.94056415  0.69026717  0.93634741  1
  Zn  Zn163  1  0.05889871  0.31393733  0.06067434  1
  Zn  Zn164  1  0.05918406  0.31592802  0.56444999  1
  Zn  Zn165  1  0.06341107  0.80900339  0.05760268  1
  Zn  Zn166  1  0.06273651  0.81898125  0.56845888  1
  Zn  Zn167  1  0.57224391  0.31900486  0.05842028  1
  Zn  Zn168  1  0.56439665  0.31341888  0.56085941  1
  Zn  Zn169  1  0.56387021  0.81599616  0.06707930  1
  Zn  Zn170  1  0.56046525  0.81316916  0.55823377  1
  O  O171  1  0.11702184  0.11097091  0.12664574  1
  O  O172  1  0.12745243  0.11314883  0.61896890  1
  O  O173  1  0.12057637  0.62029729  0.12003977  1
  O  O174  1  0.12434227  0.61815360  0.61740805  1
  O  O175  1  0.63574463  0.11732422  0.11464459  1
  O  O176  1  0.61856239  0.11987922  0.62182701  1
  O  O177  1  0.62563985  0.63276902  0.11726233  1
  O  O178  1  0.61588932  0.61380975  0.62924450  1
  O  O179  1  0.38334456  0.37813151  0.38043654  1
  O  O180  1  0.38273613  0.37622298  0.88383631  1
  O  O181  1  0.34227633  0.90164183  0.37420499  1
  O  O182  1  0.37769438  0.87756076  0.88312940  1
  O  O183  1  0.88480995  0.38596141  0.36829303  1
  O  O184  1  0.89085240  0.37562447  0.86971969  1
  O  O185  1  0.86906480  0.87998478  0.38945597  1
  O  O186  1  0.88131782  0.87719347  0.87969548  1
  O  O187  1  0.28303278  -0.03436298  0.37749126  1
  O  O188  1  0.25117980  0.00508942  0.86721523  1
  O  O189  1  0.25765352  0.49869873  0.36886502  1
  O  O190  1  0.24719173  0.50697964  0.86711869  1
  O  O191  1  0.74480383  0.00627076  0.36242041  1
  O  O192  1  0.75551409  0.00288432  0.86802921  1
  O  O193  1  0.75828382  0.50918878  0.37717873  1
  O  O194  1  0.74309960  0.50249710  0.86353284  1
  O  O195  1  0.24255906  0.49320777  0.12791197  1
  O  O196  1  0.24707240  0.49260831  0.63349843  1
  O  O197  1  0.23359938  0.98950519  0.11754218  1
  O  O198  1  0.24638446  0.99264548  0.63314935  1
  O  O199  1  0.75346841  0.48766268  0.13233644  1
  O  O200  1  0.73615092  0.50605472  0.63230869  1
  O  O201  1  0.74600362  0.99844004  0.13535609  1
  O  O202  1  0.74564487  0.99224043  0.62851006  1
  O  O203  1  0.00339842  0.36923968  0.25672461  1
  O  O204  1  0.00541987  0.37048412  0.75530529  1
  O  O205  1  0.00829761  0.86489012  0.24616648  1
  O  O206  1  -0.00816717  0.87341041  0.75917417  1
  O  O207  1  0.50802836  0.37140176  0.25646865  1
  O  O208  1  0.49989542  0.37433156  0.76188674  1
  O  O209  1  0.50439486  0.84087022  0.21863274  1
  O  O210  1  0.50169785  0.86442228  0.75536983  1
  O  O211  1  0.51411555  0.14566708  0.24765899  1
  O  O212  1  0.49069758  0.12252853  0.74379743  1
  O  O213  1  0.47897862  0.62515097  0.25832179  1
  O  O214  1  0.49899723  0.63445838  0.74238560  1
  O  O215  1  0.99567921  0.13379156  0.23974766  1
  O  O216  1  0.98949073  0.13660775  0.75623128  1
  O  O217  1  0.99736049  0.63335615  0.24609823  1
  O  O218  1  0.98286765  0.61363806  0.74717848  1
  O  O219  1  0.37186158  0.26470964  0.00103682  1
  O  O220  1  0.38056037  0.26339552  0.49904620  1
  O  O221  1  0.36340726  0.75766441  -0.00633058  1
  O  O222  1  0.38381256  0.75711575  0.51014492  1
  O  O223  1  0.86657864  0.25870802  -0.01021130  1
  O  O224  1  0.86910676  0.24093631  0.51005623  1
  O  O225  1  0.86962449  0.75644921  0.00463252  1
  O  O226  1  0.86560792  0.76078974  0.50802980  1
  O  O227  1  0.12207207  0.24624376  0.49931161  1
  O  O228  1  0.12374001  0.25469790  0.98388749  1
  O  O229  1  0.11673424  0.73576269  0.50810726  1
  O  O230  1  0.13406021  0.74279899  0.98872571  1
  O  O231  1  0.63473194  0.24505469  0.49603095  1
  O  O232  1  0.63104062  0.24350195  0.99100025  1
  O  O233  1  0.63792917  0.75781922  0.49030735  1
  O  O234  1  0.62637489  0.74354571  0.99683277  1
  O  O235  1  0.50691534  0.25944508  0.13398581  1
  O  O236  1  0.50019409  0.23563850  0.62560317  1
  O  O237  1  0.50317129  0.78156727  0.15962929  1
  O  O238  1  0.49680466  0.74485411  0.63021407  1
  O  O239  1  1.01017176  0.24312275  0.13697250  1
  O  O240  1  0.99222680  0.25671346  0.63776952  1
  O  O241  1  0.99449028  0.74275088  0.12639355  1
  O  O242  1  0.98432573  0.75144871  0.62312027  1
  O  O243  1  0.00479001  0.26015726  0.37006963  1
  O  O244  1  0.00587446  0.25826588  0.86329862  1
  O  O245  1  -0.00604431  0.74408083  0.36689250  1
  O  O246  1  0.01065427  0.75817680  0.87859647  1
  O  O247  1  0.50700643  0.26092223  0.36816808  1
  O  O248  1  0.50984928  0.25949758  0.87664937  1
  O  O249  1  0.51786688  0.74451312  0.38386199  1
  O  O250  1  0.50472068  0.75245719  0.86805321  1
  O  O251  1  0.23128963  0.12388716  0.50522445  1
  O  O252  1  0.25125949  0.12522579  0.98231716  1
  O  O253  1  0.24221877  0.61644444  0.48919516  1
  O  O254  1  0.24670178  0.62896540  0.99211249  1
  O  O255  1  0.74601236  0.12923681  0.49324337  1
  O  O256  1  0.74146754  0.12447297  0.99175158  1
  O  O257  1  0.75762726  0.63694234  0.49299685  1
  O  O258  1  0.73982171  0.62966694  1.00041868  1
  O  O259  1  0.25558210  0.37666028  0.00830652  1
  O  O260  1  0.25825297  0.38250491  0.51159243  1
  O  O261  1  0.25450457  0.86581977  0.00185092  1
  O  O262  1  0.25574498  0.87869137  0.51665210  1
  O  O263  1  0.75076259  0.38070700  0.01584593  1
  O  O264  1  0.74998350  0.36057536  0.49083060  1
  O  O265  1  0.76172274  0.87045581  0.00406662  1
  O  O266  1  0.75762730  0.86967682  0.50918789  1
  O  O267  1  0.12688490  0.49577724  0.24419779  1
  O  O268  1  0.13404918  0.49550771  0.74434062  1
  O  O269  1  0.11424868  0.97821972  0.22680972  1
  O  O270  1  0.13526824  1.00813835  0.73639477  1
  O  O271  1  0.62591031  0.49056520  0.26072549  1
  O  O272  1  0.63742693  0.49958929  0.74285467  1
  O  O273  1  0.63358282  0.99891830  0.24221982  1
  O  O274  1  0.63155835  0.99678110  0.74518794  1
  O  O275  1  0.39400534  0.00900124  0.25114470  1
  O  O276  1  0.36722019  0.00806580  0.75478482  1
  O  O277  1  0.36780036  0.50377769  0.26077210  1
  O  O278  1  0.36347415  0.50057341  0.75139854  1
  O  O279  1  0.86801326  0.00679817  0.24844895  1
  O  O280  1  0.87008271  0.00686966  0.75180210  1
  O  O281  1  0.87799481  0.51020100  0.26530950  1
  O  O282  1  0.85928483  0.51237063  0.74090850  1
  O  O283  1  0.11037097  0.37571605  0.37128749  1
  O  O284  1  0.11784099  0.36628101  0.86753244  1
  O  O285  1  0.13325181  0.88254126  0.35591194  1
  O  O286  1  0.11466592  0.86576965  0.87726300  1
  O  O287  1  0.61691428  0.37225634  0.36949496  1
  O  O288  1  0.61794980  0.36723579  0.87704495  1
  O  O289  1  0.62635033  0.86426817  0.37178886  1
  O  O290  1  0.61883291  0.86206343  0.87807418  1
  O  O291  1  0.37934572  0.13014972  0.10499778  1
  O  O292  1  0.38100228  0.12502536  0.63306716  1
  O  O293  1  0.36348365  0.62450738  0.14421707  1
  O  O294  1  0.38225427  0.63386533  0.62500724  1
  O  O295  1  0.88344223  0.12002231  0.13694023  1
  O  O296  1  0.87227091  0.12841930  0.63697521  1
  O  O297  1  0.87994201  0.63107743  0.13273398  1
  O  O298  1  0.87584066  0.63382048  0.63337305  1
  O  O299  1  0.24521345  0.25817494  0.12536829  1
  O  O300  1  0.25046535  0.26406462  0.63510530  1
  O  O301  1  0.23850481  0.75583086  0.10941838  1
  O  O302  1  0.26236558  0.75967325  0.63381384  1
  O  O303  1  0.74442595  0.26987291  0.12798443  1
  O  O304  1  0.75869906  0.24617557  0.61479847  1
  O  O305  1  0.75804241  0.75706303  0.12124210  1
  O  O306  1  0.75401566  0.75537194  0.61972034  1
  O  O307  1  0.23042236  0.27632634  0.37256625  1
  O  O308  1  0.23970789  0.24224814  0.87263318  1
  O  O309  1  0.24964820  0.73512203  0.38227507  1
  O  O310  1  0.24384656  0.74263363  0.88048666  1
  O  O311  1  0.74882024  0.24340889  0.38103619  1
  O  O312  1  0.73843529  0.24449121  0.87048186  1
  O  O313  1  0.74660764  0.74407214  0.38422049  1
  O  O314  1  0.73935970  0.74937352  0.88307728  1
  O  O315  1  -0.00905578  0.12825183  0.01138922  1
  O  O316  1  0.01777966  0.12183390  0.50540389  1
  O  O317  1  0.00483572  0.61893360  0.00402232  1
  O  O318  1  0.00757443  0.61476338  0.50233976  1
  O  O319  1  0.51561072  0.12327264  -0.00693685  1
  O  O320  1  0.50742621  0.11782653  0.50847764  1
  O  O321  1  0.50295862  0.61279854  -0.00033735  1
  O  O322  1  0.49538905  0.62140849  0.51145559  1
  O  O323  1  0.49391171  0.37713453  0.49019573  1
  O  O324  1  0.49563259  0.38595662  0.99377852  1
  O  O325  1  0.49728406  0.89121913  0.50255740  1
  O  O326  1  0.48812427  0.87241425  0.99632916  1
  O  O327  1  1.00337677  0.38676577  0.49052690  1
  O  O328  1  0.99885306  0.38433836  0.99155175  1
  O  O329  1  0.98406561  0.87674447  0.50412123  1
  O  O330  1  0.98715322  0.87388249  0.99309316  1
  O  O331  1  0.49027420  0.49071505  0.37449953  1
  O  O332  1  0.50036011  0.49151516  0.88049522  1
  O  O333  1  0.50700993  1.00692598  0.39000634  1
  O  O334  1  0.49246559  0.99140273  0.87739737  1
  O  O335  1  0.99328516  0.49515299  0.38259085  1
  O  O336  1  1.01038719  0.49125647  0.88453300  1
  O  O337  1  1.01783838  1.00925682  0.36890774  1
  O  O338  1  0.99525654  0.99008681  0.87404825  1
  O  O339  1  0.00730041  0.00929329  0.11751347  1
  O  O340  1  0.01560631  -0.00636837  0.62653853  1
  O  O341  1  0.00419488  0.50612987  0.11816585  1
  O  O342  1  0.00556258  0.49801601  0.61623122  1
  O  O343  1  0.51687866  -0.00080603  0.12430154  1
  O  O344  1  0.50539019  0.01006164  0.62220845  1
  O  O345  1  0.49597188  0.49397692  0.11258414  1
  O  O346  1  0.50895773  0.50963653  0.62575542  1
  O  O347  1  0.24131311  0.38214808  0.23573924  1
  O  O348  1  0.24658058  0.38273145  0.74492919  1
  O  O349  1  0.23128525  0.86302212  0.23217031  1
  O  O350  1  0.25639698  0.88680319  0.74401918  1
  O  O351  1  0.74312687  0.37888887  0.24431287  1
  O  O352  1  0.75185607  0.38997798  0.75347138  1
  O  O353  1  0.75382534  0.88623944  0.24446280  1
  O  O354  1  0.75109635  0.87897801  0.74004113  1
  O  O355  1  0.20970831  0.10235598  0.27005261  1
  O  O356  1  0.25825902  0.11613975  0.75643587  1
  O  O357  1  0.25160736  0.62097347  0.26491989  1
  O  O358  1  0.25004409  0.61501503  0.75658077  1
  O  O359  1  0.75873105  0.12032597  0.25328608  1
  O  O360  1  0.75750733  0.11927368  0.75401101  1
  O  O361  1  0.75858894  0.62641967  0.26166627  1
  O  O362  1  0.75838192  0.61520146  0.75540051  1
  O  O363  1  0.36157883  0.14848982  0.36442178  1
  O  O364  1  0.36760562  0.11979116  0.86834884  1
  O  O365  1  0.36121496  0.61548511  0.37280022  1
  O  O366  1  0.36161605  0.62378646  0.87234220  1
  O  O367  1  0.87313340  0.11887180  0.36349453  1
  O  O368  1  0.86976319  0.11834249  0.86348888  1
  O  O369  1  0.86664138  0.61983139  0.37302685  1
  O  O370  1  0.87365823  0.63121455  0.86177865  1
  O  O371  1  0.12957732  0.38041108  0.12802251  1
  O  O372  1  0.13334750  0.38089687  0.62935733  1
  O  O373  1  0.12847819  0.88104779  0.12016302  1
  O  O374  1  0.13542477  0.88976589  0.62107875  1
  O  O375  1  0.63290520  0.37942010  0.13646524  1
  O  O376  1  0.61483875  0.39254277  0.62859526  1
  O  O377  1  0.63815634  0.88813421  0.12327291  1
  O  O378  1  0.63536114  0.87807535  0.62565280  1
  O  O379  1  0.11404821  0.25625622  0.26131340  1
  O  O380  1  0.11601877  0.25411398  0.75470661  1
  O  O381  1  0.11368481  0.76149677  0.24523231  1
  O  O382  1  0.12975226  0.74352499  0.76149101  1
  O  O383  1  0.61839676  0.26326196  0.25582571  1
  O  O384  1  0.62206182  0.25207180  0.75952751  1
  O  O385  1  0.63379928  0.75470477  0.26781127  1
  O  O386  1  0.61721459  0.74910810  0.75867577  1
  O  O387  1  0.39739430  0.26211542  0.24018618  1
  O  O388  1  0.37720181  0.23674366  0.74999202  1
  O  O389  1  0.36637061  0.73945276  0.25910173  1
  O  O390  1  0.38671158  0.74883083  0.74156712  1
  O  O391  1  0.88722858  0.24080192  0.25734132  1
  O  O392  1  0.87947930  0.24343308  0.74175156  1
  O  O393  1  0.88343587  0.74796674  0.24571681  1
  O  O394  1  0.86481780  0.73492801  0.74148085  1
  O  O395  1  0.37674405  0.48967852  0.48901256  1
  O  O396  1  0.38556989  0.49291436  0.99756252  1
  O  O397  1  0.39174487  1.00443867  0.50444661  1
  O  O398  1  0.37361395  0.98604973  0.99325163  1
  O  O399  1  0.88473160  0.50848395  0.49047124  1
  O  O400  1  0.88820529  0.50059210  1.00316650  1
  O  O401  1  0.87768277  0.98774486  0.50157265  1
  O  O402  1  0.87496300  0.99072606  0.99157167  1
  O  O403  1  0.11994119  -0.00490293  0.01034371  1
  O  O404  1  0.12740816  0.00693633  0.51174545  1
  O  O405  1  0.11619236  0.50592657  0.00540288  1
  O  O406  1  0.11584722  0.50711129  0.50449597  1
  O  O407  1  0.62608876  0.00755589  0.00676644  1
  O  O408  1  0.61782133  0.00516215  0.50700175  1
  O  O409  1  0.61075018  0.50942773  -0.00115759  1
  O  O410  1  0.62563270  0.49908450  0.51232560  1
  O  O411  1  0.36331320  0.37573644  0.11698355  1
  O  O412  1  0.36987451  0.37325297  0.61696142  1
  O  O413  1  0.35646893  0.87850694  0.11356893  1
  O  O414  1  0.36878641  0.86746092  0.62389612  1
  O  O415  1  0.86441834  0.37576825  0.12953647  1
  O  O416  1  0.87474181  0.36383871  0.62851842  1
  O  O417  1  0.87358492  0.87220152  0.11616657  1
  O  O418  1  0.86440845  0.86876371  0.61790506  1
  O  O419  1  0.12254446  0.14416723  0.39373271  1
  O  O420  1  0.13232823  0.13415630  0.86404903  1
  O  O421  1  0.13800914  0.61825570  0.38289450  1
  O  O422  1  0.13393153  0.63105760  0.87891157  1
  O  O423  1  0.63467338  0.13339647  0.38037940  1
  O  O424  1  0.62996973  0.13150088  0.88052204  1
  O  O425  1  0.63773221  0.63361658  0.37196659  1
  O  O426  1  0.62301558  0.63690297  0.88440387  1
