# generated using pymatgen
data_V85Zn86O256
_symmetry_space_group_name_H-M   'P 1'
_cell_length_a   16.96362394
_cell_length_b   16.96542131
_cell_length_c   16.95167696
_cell_angle_alpha   89.97551903
_cell_angle_beta   89.95010613
_cell_angle_gamma   90.05887298
_symmetry_Int_Tables_number   1
_chemical_formula_structural   V85Zn86O256
_chemical_formula_sum   'V85 Zn86 O256'
_cell_volume   4878.60345703
_cell_formula_units_Z   1
loop_
 _symmetry_equiv_pos_site_id
 _symmetry_equiv_pos_as_xyz
  1  'x, y, z'
loop_
 _atom_site_type_symbol
 _atom_site_label
 _atom_site_symmetry_multiplicity
 _atom_site_fract_x
 _atom_site_fract_y
 _atom_site_fract_z
 _atom_site_occupancy
  V  V0  1  0.75244711  0.25151874  0.50233631  1
  V  V1  1  0.87984217  -0.00414440  0.87253254  1
  V  V2  1  0.00141390  0.62253808  0.12730414  1
  V  V3  1  0.37406422  0.12479619  0.75051162  1
  V  V4  1  0.00313498  0.86634873  0.36356961  1
  V  V5  1  0.88063634  0.86888752  -0.00463393  1
  V  V6  1  0.62529994  0.25011291  0.37556411  1
  V  V7  1  0.24720525  0.12839168  0.87466729  1
  V  V8  1  0.23429754  0.75524290  0.49076313  1
  V  V9  1  0.74885678  0.86969653  0.12332728  1
  V  V10  1  0.12956903  0.49688965  0.12986885  1
  V  V11  1  0.87487450  0.24721902  0.63223686  1
  V  V12  1  0.23436847  0.62739565  0.37069767  1
  V  V13  1  0.37357260  0.37399472  0.49982249  1
  V  V14  1  0.62071743  0.12408680  0.00591017  1
  V  V15  1  0.74518557  -0.00164438  0.75183320  1
  V  V16  1  0.37952092  -0.00663202  0.37497871  1
  V  V17  1  0.37639216  0.24703277  0.12323233  1
  V  V18  1  -0.00001208  0.37575875  0.38332871  1
  V  V19  1  0.37475816  0.24827547  0.62611995  1
  V  V20  1  0.75857929  0.00217110  0.24543045  1
  V  V21  1  -0.00157574  0.75506229  0.75745303  1
  V  V22  1  0.37608306  0.12281935  0.24790900  1
  V  V23  1  0.12661134  0.75037598  0.87824703  1
  V  V24  1  0.62447725  0.37545974  0.75131686  1
  V  V25  1  0.74134625  0.87257820  0.63234807  1
  V  V26  1  0.25217866  0.37681863  0.12844592  1
  V  V27  1  -0.00154881  0.25172051  0.76233496  1
  V  V28  1  0.88778633  0.37314044  0.00266315  1
  V  V29  1  0.37332732  0.51618124  0.87398081  1
  V  V30  1  0.36517269  0.73637754  0.62508638  1
  V  V31  1  0.49703472  0.37713787  0.87465626  1
  V  V32  1  0.62634863  0.75263704  0.86635199  1
  V  V33  1  0.49461036  0.50218138  0.49971399  1
  V  V34  1  0.51047314  0.76237892  0.26563187  1
  V  V35  1  0.62317674  -0.00520004  0.13065849  1
  V  V36  1  0.86948757  0.75078259  0.62425910  1
  V  V37  1  0.62373151  0.12589775  0.50475342  1
  V  V38  1  0.24780947  0.37527927  0.62882228  1
  V  V39  1  0.49845579  0.37511180  0.37614781  1
  V  V40  1  0.37703580  0.61985776  0.25506793  1
  V  V41  1  0.74864094  0.62011563  0.37814098  1
  V  V42  1  0.13450947  -0.01027760  0.12782907  1
  V  V43  1  0.75199418  0.63046690  0.88195267  1
  V  V44  1  0.87490979  0.87319462  0.49675488  1
  V  V45  1  0.87502654  0.62546048  0.75264112  1
  V  V46  1  0.12208597  0.37384529  0.75847901  1
  V  V47  1  0.62647781  0.62351313  0.49936156  1
  V  V48  1  -0.00464899  0.12413451  0.63359851  1
  V  V49  1  0.25310680  0.51577312  0.75362433  1
  V  V50  1  0.75528667  0.12378172  0.87171530  1
  V  V51  1  0.24361042  0.24796426  0.49668551  1
  V  V52  1  0.37110273  0.87504312  0.50720775  1
  V  V53  1  0.74896008  0.25412807  0.00298375  1
  V  V54  1  0.88302431  0.49578772  0.87574373  1
  V  V55  1  0.74990207  0.37523888  0.62737943  1
  V  V56  1  0.49963021  0.50149797  0.00029151  1
  V  V57  1  -0.00373634  0.23954012  0.24970134  1
  V  V58  1  0.62579047  0.37581241  0.25057890  1
  V  V59  1  0.00438962  0.62288623  0.61561620  1
  V  V60  1  0.50475339  0.87411442  0.86727394  1
  V  V61  1  0.69314303  0.79758664  0.44071278  1
  V  V62  1  0.49856595  0.24971870  0.75050389  1
  V  V63  1  0.50028863  -0.00529983  0.49743750  1
  V  V64  1  0.24865657  -0.00350301  0.74742189  1
  V  V65  1  0.49989732  0.00096439  0.00307823  1
  V  V66  1  0.24557347  0.12491383  0.37567699  1
  V  V67  1  0.76002092  0.12798775  0.36955411  1
  V  V68  1  0.12837031  0.36677578  0.25731768  1
  V  V69  1  -0.00247543  0.00107010  0.49983020  1
  V  V70  1  0.50009500  0.24536192  0.24658934  1
  V  V71  1  0.62819923  0.49867811  0.12702995  1
  V  V72  1  0.74871759  0.49885630  0.75235064  1
  V  V73  1  0.37676146  0.75275660  0.12741456  1
  V  V74  1  0.62936688  0.63254482  0.00211254  1
  V  V75  1  0.37128945  0.87552270  0.00260760  1
  V  V76  1  0.12095929  0.87762245  0.75593270  1
  V  V77  1  0.25227842  0.74931247  -0.00007548  1
  V  V78  1  0.13213264  0.62116304  -0.00522515  1
  V  V79  1  0.87724668  0.62404124  0.25003991  1
  V  V80  1  0.12556286  -0.00410695  0.62543604  1
  V  V81  1  0.62369965  0.25018518  0.87652328  1
  V  V82  1  0.12347291  0.12326809  0.00678139  1
  V  V83  1  0.00202030  -0.00641327  0.00368423  1
  V  V84  1  0.87209213  0.74532818  0.11808639  1
  Zn  Zn85  1  0.87093848  0.21645714  0.14513256  1
  Zn  Zn86  1  0.50436608  0.62796628  0.13064443  1
  Zn  Zn87  1  0.25443847  -0.01252914  0.24558694  1
  Zn  Zn88  1  0.11648717  0.25412224  0.88311451  1
  Zn  Zn89  1  0.49287038  0.62076317  0.63121196  1
  Zn  Zn90  1  0.00952750  0.49356540  -0.00753207  1
  Zn  Zn91  1  0.12166438  0.12645123  0.49617707  1
  Zn  Zn92  1  0.14965951  0.83838340  0.26708913  1
  Zn  Zn93  1  0.37485541  -0.00276078  0.87404410  1
  Zn  Zn94  1  0.36492238  0.49656700  0.37012771  1
  Zn  Zn95  1  0.75576990  0.37063972  0.13057486  1
  Zn  Zn96  1  0.11430398  0.49932964  0.61634176  1
  Zn  Zn97  1  0.88561934  0.50627072  0.38791018  1
  Zn  Zn98  1  0.24782757  0.25021320  0.00049419  1
  Zn  Zn99  1  0.61902902  -0.00703306  0.63323795  1
  Zn  Zn100  1  0.48752620  0.74189063  0.75107022  1
  Zn  Zn101  1  0.62217282  0.50083440  0.62726574  1
  Zn  Zn102  1  0.88117386  0.38279803  0.50693760  1
  Zn  Zn103  1  0.75532946  0.49562632  0.25304058  1
  Zn  Zn104  1  0.37252926  0.37595369  -0.00085450  1
  Zn  Zn105  1  0.49948298  0.12270306  0.62752981  1
  Zn  Zn106  1  0.88178818  0.00621368  0.36234847  1
  Zn  Zn107  1  0.18872423  0.18512736  0.18858339  1
  Zn  Zn108  1  0.18252976  0.18670660  0.68743193  1
  Zn  Zn109  1  0.19334827  0.68481752  0.18653683  1
  Zn  Zn110  1  0.18634652  0.69620180  0.68130316  1
  Zn  Zn111  1  0.68577834  0.18539375  0.18667508  1
  Zn  Zn112  1  0.68817383  0.18662338  0.69090161  1
  Zn  Zn113  1  0.68959595  0.68733463  0.19170064  1
  Zn  Zn114  1  0.68549745  0.68318888  0.68937920  1
  Zn  Zn115  1  0.31212432  0.30966077  0.31348090  1
  Zn  Zn116  1  0.31314014  0.31561859  0.81476577  1
  Zn  Zn117  1  0.32301322  0.80972113  0.31568100  1
  Zn  Zn118  1  0.31064587  0.81271490  0.81403850  1
  Zn  Zn119  1  0.81639755  0.31477984  0.31562402  1
  Zn  Zn120  1  0.81452639  0.31253925  0.81638210  1
  Zn  Zn121  1  0.82164181  0.81401505  0.30200599  1
  Zn  Zn122  1  0.80929811  0.81356571  0.81268952  1
  Zn  Zn123  1  0.18262629  0.44484990  0.43722038  1
  Zn  Zn124  1  0.19434105  0.43728163  0.93733505  1
  Zn  Zn125  1  0.18744778  0.93763976  0.43181214  1
  Zn  Zn126  1  0.18708654  0.93651126  0.93622107  1
  Zn  Zn127  1  0.68826184  0.43915680  0.43983742  1
  Zn  Zn128  1  0.68867061  0.43996522  0.93723369  1
  Zn  Zn129  1  0.68811083  0.95701217  0.43384492  1
  Zn  Zn130  1  0.69013345  0.93428854  0.94137018  1
  Zn  Zn131  1  0.31170074  0.06302148  0.06188011  1
  Zn  Zn132  1  0.31202984  0.06299365  0.56286544  1
  Zn  Zn133  1  0.31433162  0.56431438  0.06629228  1
  Zn  Zn134  1  0.28403267  0.55508148  0.54815566  1
  Zn  Zn135  1  0.80865436  0.05573148  0.05874057  1
  Zn  Zn136  1  0.81089688  0.06208391  0.56506004  1
  Zn  Zn137  1  0.81337070  0.55597878  0.06180169  1
  Zn  Zn138  1  0.81348562  0.56102412  0.56285610  1
  Zn  Zn139  1  0.44072048  0.43603304  0.18689710  1
  Zn  Zn140  1  0.43233656  0.44071706  0.68881386  1
  Zn  Zn141  1  0.43924368  0.93471645  0.18777212  1
  Zn  Zn142  1  0.43490416  0.93652248  0.68452834  1
  Zn  Zn143  1  0.94370281  0.43628565  0.18907532  1
  Zn  Zn144  1  0.93706035  0.43676512  0.68913538  1
  Zn  Zn145  1  0.93855157  0.94067080  0.17858613  1
  Zn  Zn146  1  0.93165834  0.93733373  0.68944823  1
  Zn  Zn147  1  0.06396123  0.05536613  0.31016586  1
  Zn  Zn148  1  0.05975432  0.06592109  0.81779772  1
  Zn  Zn149  1  0.06308445  0.55684567  0.30884019  1
  Zn  Zn150  1  0.06582774  0.56533375  0.80537333  1
  Zn  Zn151  1  0.56543166  0.06258126  0.31321962  1
  Zn  Zn152  1  0.56329034  0.06310206  0.81680485  1
  Zn  Zn153  1  0.56106823  0.56668220  0.31457994  1
  Zn  Zn154  1  0.56085002  0.56624644  0.81221509  1
  Zn  Zn155  1  0.43568492  0.18519776  0.43686969  1
  Zn  Zn156  1  0.43564941  0.18558559  0.93594807  1
  Zn  Zn157  1  0.43607624  0.68995191  0.43944884  1
  Zn  Zn158  1  0.44389634  0.69032012  0.94017090  1
  Zn  Zn159  1  0.94187027  0.19586114  0.43942638  1
  Zn  Zn160  1  0.92316922  0.16893774  0.97338133  1
  Zn  Zn161  1  0.93779346  0.68928111  0.43582323  1
  Zn  Zn162  1  0.94309216  0.68503750  0.94178825  1
  Zn  Zn163  1  0.06272516  0.30495367  0.07042930  1
  Zn  Zn164  1  0.06481723  0.31000994  0.56970870  1
  Zn  Zn165  1  0.07918111  0.79272462  0.09853607  1
  Zn  Zn166  1  0.05699842  0.81448646  0.56623271  1
  Zn  Zn167  1  0.56159826  0.31531168  0.06325172  1
  Zn  Zn168  1  0.56228685  0.31343025  0.56437457  1
  Zn  Zn169  1  0.55956840  0.81465243  0.06281383  1
  Zn  Zn170  1  0.55165189  0.81001757  0.56658896  1
  O  O171  1  0.13238929  0.11605302  0.11231499  1
  O  O172  1  0.11364855  0.11327365  0.62326515  1
  O  O173  1  0.12211081  0.61327117  0.11763758  1
  O  O174  1  0.10584577  0.63214029  0.63017327  1
  O  O175  1  0.62943366  0.11401257  0.11303972  1
  O  O176  1  0.62598669  0.12450916  0.61356332  1
  O  O177  1  0.62685174  0.61609608  0.11810234  1
  O  O178  1  0.62634876  0.62382120  0.61025968  1
  O  O179  1  0.37919296  0.37680604  0.37965323  1
  O  O180  1  0.38093975  0.38503860  0.87889452  1
  O  O181  1  0.37733471  0.88835554  0.38642855  1
  O  O182  1  0.38400246  0.87464298  0.88453532  1
  O  O183  1  0.89082385  0.37802693  0.37879518  1
  O  O184  1  0.86849403  0.38663224  0.88752283  1
  O  O185  1  0.88000447  0.87926284  0.38380953  1
  O  O186  1  0.86490211  0.88329243  0.88466227  1
  O  O187  1  0.26376385  0.00844359  0.37554440  1
  O  O188  1  0.24938102  0.00926377  0.86487278  1
  O  O189  1  0.25093158  0.52216662  0.37617204  1
  O  O190  1  0.25788710  0.49905531  0.86254666  1
  O  O191  1  0.75630596  0.00977184  0.36289507  1
  O  O192  1  0.75412176  0.00487006  0.87126948  1
  O  O193  1  0.75459666  0.50917587  0.37362395  1
  O  O194  1  0.75833729  0.50953792  0.87186697  1
  O  O195  1  0.24313810  0.48845206  0.12146483  1
  O  O196  1  0.26394234  0.48529106  0.64637489  1
  O  O197  1  0.23978579  1.00285370  0.12623786  1
  O  O198  1  0.23720576  1.00817736  0.63568158  1
  O  O199  1  0.73746052  0.49598497  0.12678115  1
  O  O200  1  0.74829358  0.49370015  0.63589576  1
  O  O201  1  0.74250119  0.99386581  0.12914720  1
  O  O202  1  0.74821093  0.99146714  0.63356915  1
  O  O203  1  0.01226688  0.36767878  0.25812158  1
  O  O204  1  0.01146540  0.36575920  0.74348905  1
  O  O205  1  -0.01327573  0.88234423  0.26506973  1
  O  O206  1  0.00585066  0.86507933  0.74604821  1
  O  O207  1  0.50447231  0.36542708  0.25656303  1
  O  O208  1  0.50366918  0.37049721  0.75521525  1
  O  O209  1  0.49808878  0.86181202  0.24920689  1
  O  O210  1  0.49309667  0.87398498  0.76409537  1
  O  O211  1  0.49108803  0.13626017  0.25729967  1
  O  O212  1  0.49360273  0.13072654  0.75184072  1
  O  O213  1  0.48990282  0.63475893  0.25083809  1
  O  O214  1  0.50015604  0.62814055  0.74419274  1
  O  O215  1  1.00619776  0.14095246  0.26221100  1
  O  O216  1  1.00402189  0.13261651  0.73950202  1
  O  O217  1  0.99306525  0.61593333  0.23553973  1
  O  O218  1  0.99355388  0.63806051  0.74451128  1
  O  O219  1  0.37729801  0.25029042  0.01295198  1
  O  O220  1  0.36792750  0.25369637  0.50612460  1
  O  O221  1  0.37117883  0.75518385  0.00447870  1
  O  O222  1  0.37032545  0.75960952  0.50641993  1
  O  O223  1  0.86484798  0.26806316  -0.00900814  1
  O  O224  1  0.87093240  0.25638378  0.51359276  1
  O  O225  1  0.87549331  0.75514282  0.00484787  1
  O  O226  1  0.87982329  0.76278140  0.51215787  1
  O  O227  1  0.13966819  0.24544547  0.50810331  1
  O  O228  1  0.12518726  0.23876212  1.00042943  1
  O  O229  1  0.13579540  0.76161368  0.50213228  1
  O  O230  1  0.13314302  0.74277538  0.99804959  1
  O  O231  1  0.62930955  0.24322103  0.49570744  1
  O  O232  1  0.62874408  0.24384069  0.99819701  1
  O  O233  1  0.62485718  0.74347987  0.49827813  1
  O  O234  1  0.61815108  0.73617750  0.99466954  1
  O  O235  1  0.49098736  0.25678111  0.13677104  1
  O  O236  1  0.49307768  0.24842139  0.63242141  1
  O  O237  1  0.48865138  0.74730380  0.12587690  1
  O  O238  1  0.47986510  0.74601906  0.62595930  1
  O  O239  1  0.99513849  0.25234607  0.14452955  1
  O  O240  1  0.99318365  0.24179684  0.63182431  1
  O  O241  1  0.98304397  0.73216716  0.11427150  1
  O  O242  1  0.98861680  0.74565967  0.63500912  1
  O  O243  1  0.00060989  0.26402158  0.36477725  1
  O  O244  1  -0.00467958  0.24031772  0.86257687  1
  O  O245  1  -0.00488881  0.76751947  0.37706638  1
  O  O246  1  0.00980842  0.74558475  0.86606912  1
  O  O247  1  0.50429632  0.25464564  0.36765683  1
  O  O248  1  0.50365424  0.25600490  0.87097179  1
  O  O249  1  0.49801388  0.75116502  0.36521828  1
  O  O250  1  0.50768159  0.75768365  0.87304058  1
  O  O251  1  0.25045944  0.13137418  0.49332151  1
  O  O252  1  0.24306081  0.12433033  0.99030648  1
  O  O253  1  0.25307559  0.64524417  0.47978887  1
  O  O254  1  0.24067459  0.63253177  1.00455329  1
  O  O255  1  0.74217784  0.12918293  0.49399739  1
  O  O256  1  0.73760153  0.13306099  0.99114289  1
  O  O257  1  0.74179821  0.62351138  0.49067213  1
  O  O258  1  0.74188849  0.61701821  0.99143538  1
  O  O259  1  0.25255136  0.37000178  0.01281503  1
  O  O260  1  0.25467283  0.36502645  0.50809528  1
  O  O261  1  0.26235621  0.86554490  -0.00838985  1
  O  O262  1  0.25821905  0.86433318  0.48877954  1
  O  O263  1  0.74985133  0.36380908  0.00189064  1
  O  O264  1  0.74701961  0.36629034  0.50906895  1
  O  O265  1  0.76477694  0.88319364  0.01450700  1
  O  O266  1  0.75294455  0.86756570  0.50060832  1
  O  O267  1  0.12286973  0.48443773  0.23652775  1
  O  O268  1  0.13851382  0.49309355  0.74816454  1
  O  O269  1  0.12452790  0.99860748  0.23195369  1
  O  O270  1  0.12695346  0.99528434  0.74669153  1
  O  O271  1  0.62137233  0.49552191  0.24133721  1
  O  O272  1  0.63103551  0.49288382  0.75213589  1
  O  O273  1  0.63321233  1.00617736  0.23743063  1
  O  O274  1  0.63845610  1.00375897  0.75119255  1
  O  O275  1  0.38033185  0.00818453  0.25621671  1
  O  O276  1  0.36362443  0.00433839  0.74928308  1
  O  O277  1  0.38227986  0.51566357  0.24864083  1
  O  O278  1  0.36324050  0.49861726  0.76065886  1
  O  O279  1  0.86349321  0.00624115  0.24180386  1
  O  O280  1  0.86209844  -0.00483753  0.76115627  1
  O  O281  1  0.87523532  0.51218732  0.24902515  1
  O  O282  1  0.86910798  0.50420812  0.75881898  1
  O  O283  1  0.12361390  0.37918393  0.36293834  1
  O  O284  1  0.13109061  0.37235991  0.86413123  1
  O  O285  1  0.10824976  0.88251577  0.36841479  1
  O  O286  1  0.12368727  0.86540775  0.86666760  1
  O  O287  1  0.61937552  0.36893898  0.37076839  1
  O  O288  1  0.61860922  0.37006869  0.87147980  1
  O  O289  1  0.64145388  0.86170887  0.38581711  1
  O  O290  1  0.61749965  0.86297902  0.88750589  1
  O  O291  1  0.36914633  0.13412012  0.13664027  1
  O  O292  1  0.37503590  0.13108749  0.63280515  1
  O  O293  1  0.37665372  0.63269718  0.13735660  1
  O  O294  1  0.36628159  0.63542966  0.61203597  1
  O  O295  1  0.88531888  0.13159696  0.07862929  1
  O  O296  1  0.88353794  0.13434482  0.62102051  1
  O  O297  1  0.87989053  0.62552940  0.12682245  1
  O  O298  1  0.87901701  0.63468850  0.63267458  1
  O  O299  1  0.26042728  0.25743757  0.12576499  1
  O  O300  1  0.25436807  0.25592562  0.62004070  1
  O  O301  1  0.26544842  0.74572597  0.11080051  1
  O  O302  1  0.25614567  0.74719875  0.60484464  1
  O  O303  1  0.75384136  0.24833360  0.11509258  1
  O  O304  1  0.75767128  0.25275116  0.62410000  1
  O  O305  1  0.75949852  0.75659543  0.12795800  1
  O  O306  1  0.76175423  0.75695533  0.63653462  1
  O  O307  1  0.25744744  0.23850006  0.38595116  1
  O  O308  1  0.24969547  0.23847298  0.87688602  1
  O  O309  1  0.24946920  0.74509126  0.38101186  1
  O  O310  1  0.23852845  0.75130828  0.88537997  1
  O  O311  1  0.74545819  0.24512780  0.38081329  1
  O  O312  1  0.74452010  0.24305031  0.88279375  1
  O  O313  1  0.75392405  0.74364637  0.37579081  1
  O  O314  1  0.74381133  0.73782994  0.87239217  1
  O  O315  1  0.01810999  0.10825583  -0.01248991  1
  O  O316  1  0.00055838  0.11656743  0.50812957  1
  O  O317  1  0.01363757  0.61909272  0.00854646  1
  O  O318  1  -0.00654003  0.63249630  0.51680217  1
  O  O319  1  0.50958114  0.11380453  -0.00813413  1
  O  O320  1  0.50864476  0.11886696  0.50136127  1
  O  O321  1  0.51039985  0.61454240  0.00219920  1
  O  O322  1  0.50709769  0.61674901  0.49928650  1
  O  O323  1  0.49427724  0.38094444  0.49595953  1
  O  O324  1  0.50018206  0.38716351  0.99484571  1
  O  O325  1  0.49172049  0.88830128  0.50336892  1
  O  O326  1  0.49182805  0.88245841  0.99107356  1
  O  O327  1  1.00949720  0.36718822  0.48646577  1
  O  O328  1  0.99050632  0.37124517  1.00125841  1
  O  O329  1  0.99197302  0.88330799  0.49453956  1
  O  O330  1  0.98765453  0.88197576  1.00163345  1
  O  O331  1  0.49792248  0.49396374  0.38577280  1
  O  O332  1  0.49374390  0.49711376  0.88291607  1
  O  O333  1  0.49169992  1.00913315  0.38587195  1
  O  O334  1  0.50096546  0.99148401  0.88560595  1
  O  O335  1  1.00427221  0.48222375  0.37117621  1
  O  O336  1  0.98759045  0.50791123  0.87302274  1
  O  O337  1  0.99628636  0.99581027  0.38607656  1
  O  O338  1  0.98713549  1.00074577  0.87975784  1
  O  O339  1  0.01293055  -0.00189753  0.11136454  1
  O  O340  1  0.00196756  0.00547813  0.62063260  1
  O  O341  1  0.01252837  0.50372537  0.11826543  1
  O  O342  1  -0.00083467  0.51773784  0.63439752  1
  O  O343  1  0.50949206  -0.00826898  0.11250718  1
  O  O344  1  0.50214580  0.00313483  0.61556349  1
  O  O345  1  0.50988151  0.50062590  0.11655352  1
  O  O346  1  0.49854805  0.49933865  0.61230316  1
  O  O347  1  0.23871189  0.36686636  0.24290767  1
  O  O348  1  0.24095763  0.37136442  0.74220158  1
  O  O349  1  0.25363490  0.87609732  0.25917266  1
  O  O350  1  0.23727917  0.88792107  0.75680169  1
  O  O351  1  0.74229970  0.37571625  0.24991365  1
  O  O352  1  0.74406089  0.37824316  0.74847781  1
  O  O353  1  0.75813778  0.88581635  0.23466756  1
  O  O354  1  0.75039817  0.88304084  0.74161339  1
  O  O355  1  0.26126227  0.12397682  0.25859851  1
  O  O356  1  0.25184732  0.11815552  0.75634442  1
  O  O357  1  0.26616157  0.63655392  0.25989287  1
  O  O358  1  0.24324269  0.61317301  0.74289249  1
  O  O359  1  0.74590045  0.11965023  0.25972047  1
  O  O360  1  0.74740807  0.11836557  0.76377266  1
  O  O361  1  0.75706493  0.62165560  0.26121323  1
  O  O362  1  0.75541773  0.61919283  0.76086687  1
  O  O363  1  0.36863791  0.11721932  0.36696365  1
  O  O364  1  0.36521087  0.12091657  0.86929591  1
  O  O365  1  0.37307549  0.62590998  0.36237952  1
  O  O366  1  0.37840101  0.61544823  0.88213943  1
  O  O367  1  0.86260334  0.12610664  0.38566265  1
  O  O368  1  0.86136441  0.11186254  0.88803538  1
  O  O369  1  0.86985504  0.62613162  0.36726136  1
  O  O370  1  0.86871949  0.61928838  0.87443787  1
  O  O371  1  0.13312002  0.37799902  0.13212856  1
  O  O372  1  0.13413420  0.37719604  0.63524132  1
  O  O373  1  0.13045285  0.89137689  0.11208467  1
  O  O374  1  0.11726112  0.88779619  0.63816193  1
  O  O375  1  0.62586751  0.38315108  0.13169788  1
  O  O376  1  0.63160825  0.37495079  0.63413841  1
  O  O377  1  0.63574872  0.88427392  0.11460580  1
  O  O378  1  0.63799226  0.87186659  0.61588548  1
  O  O379  1  0.11724736  0.26069134  0.24541035  1
  O  O380  1  0.11563384  0.25659663  0.75243749  1
  O  O381  1  0.11159287  0.75660935  0.20519777  1
  O  O382  1  0.12048283  0.75839924  0.75724185  1
  O  O383  1  0.61705850  0.25295674  0.25389232  1
  O  O384  1  0.61917239  0.25449800  0.75730049  1
  O  O385  1  0.60821006  0.74339840  0.24532606  1
  O  O386  1  0.62367938  0.74711182  0.76417381  1
  O  O387  1  0.38183798  0.24272031  0.24445594  1
  O  O388  1  0.37951464  0.24502146  0.74644522  1
  O  O389  1  0.38717360  0.74326222  0.24321093  1
  O  O390  1  0.36209108  0.75514753  0.72884386  1
  O  O391  1  0.88748726  0.25194377  0.25188270  1
  O  O392  1  0.88220063  0.25580930  0.74029458  1
  O  O393  1  0.87283209  0.73330675  0.23591485  1
  O  O394  1  0.88173859  0.74826314  0.74669039  1
  O  O395  1  0.37963771  0.49334272  0.49746525  1
  O  O396  1  0.38465097  0.50079071  0.99651458  1
  O  O397  1  0.38070827  0.99628841  0.49526075  1
  O  O398  1  0.38308049  0.99371032  1.00056143  1
  O  O399  1  0.87690696  0.49515323  0.50097184  1
  O  O400  1  0.87810778  0.48837010  0.99300072  1
  O  O401  1  0.88207907  0.98865444  0.50427842  1
  O  O402  1  0.88329897  0.98892169  0.99261003  1
  O  O403  1  0.12177004  0.00347986  0.00423636  1
  O  O404  1  0.11432207  -0.00340638  0.50927093  1
  O  O405  1  0.12853777  0.50480535  0.00533503  1
  O  O406  1  0.17506268  0.51114714  0.52446660  1
  O  O407  1  0.61946430  0.00600405  0.00676511  1
  O  O408  1  0.61687643  0.00977899  0.50201689  1
  O  O409  1  0.61841974  0.50701659  0.00592485  1
  O  O410  1  0.61400192  0.50653347  0.50224299  1
  O  O411  1  0.36773450  0.36677707  0.12815191  1
  O  O412  1  0.36626582  0.36713544  0.62145888  1
  O  O413  1  0.38057194  0.86692878  0.11162803  1
  O  O414  1  0.37203807  0.87101610  0.61173978  1
  O  O415  1  0.87332520  0.38138500  0.10855459  1
  O  O416  1  0.86871664  0.36513719  0.62721709  1
  O  O417  1  0.87176056  0.86345675  0.11721974  1
  O  O418  1  0.86354156  0.87002072  0.61732920  1
  O  O419  1  0.14170054  0.11245225  0.37698080  1
  O  O420  1  0.13489098  0.12665030  0.88206052  1
  O  O421  1  0.13567283  0.62923487  0.35833630  1
  O  O422  1  0.12045354  0.63475880  0.88514484  1
  O  O423  1  0.63456049  0.12992518  0.38463023  1
  O  O424  1  0.63249321  0.13076867  0.88517069  1
  O  O425  1  0.63551546  0.62175054  0.38567720  1
  O  O426  1  0.63330057  0.63138659  0.88336155  1
