# generated using pymatgen
data_V85Zn86O256
_symmetry_space_group_name_H-M   'P 1'
_cell_length_a   16.96249232
_cell_length_b   16.95494115
_cell_length_c   16.95826795
_cell_angle_alpha   90.00943678
_cell_angle_beta   89.91612414
_cell_angle_gamma   90.16408833
_symmetry_Int_Tables_number   1
_chemical_formula_structural   V85Zn86O256
_chemical_formula_sum   'V85 Zn86 O256'
_cell_volume   4877.13965798
_cell_formula_units_Z   1
loop_
 _symmetry_equiv_pos_site_id
 _symmetry_equiv_pos_as_xyz
  1  'x, y, z'
loop_
 _atom_site_type_symbol
 _atom_site_label
 _atom_site_symmetry_multiplicity
 _atom_site_fract_x
 _atom_site_fract_y
 _atom_site_fract_z
 _atom_site_occupancy
  V  V0  1  0.62233997  0.88014435  0.74815897  1
  V  V1  1  0.87321866  0.49433724  0.87967524  1
  V  V2  1  0.12645156  -0.00104686  0.12110749  1
  V  V3  1  0.87327114  0.62692807  0.25172910  1
  V  V4  1  0.86792489  0.49936775  0.37152373  1
  V  V5  1  0.49715682  0.37370726  0.38103661  1
  V  V6  1  0.11080865  0.75625809  0.37135082  1
  V  V7  1  0.13369610  0.12360682  -0.00920615  1
  V  V8  1  0.12152305  0.74807301  0.87248863  1
  V  V9  1  0.37942325  0.87888038  0.49935909  1
  V  V10  1  0.24551253  0.49182479  0.75077525  1
  V  V11  1  0.12330198  0.49238474  0.13419988  1
  V  V12  1  0.37743643  0.13029586  0.24813941  1
  V  V13  1  0.75007884  0.24447311  0.50130172  1
  V  V14  1  0.12260191  0.49563795  0.62788070  1
  V  V15  1  -0.00529617  0.49182042  0.00321539  1
  V  V16  1  0.25616791  0.25600489  0.00376525  1
  V  V17  1  0.23967287  0.24723542  0.49487165  1
  V  V18  1  0.87483344  0.12285125  0.24728268  1
  V  V19  1  0.88141272  0.75210793  0.12930399  1
  V  V20  1  0.25063812  -0.00069448  0.24866586  1
  V  V21  1  0.49468470  0.49677396  0.50408321  1
  V  V22  1  0.38014319  0.87963675  -0.00013121  1
  V  V23  1  0.62026264  0.25357684  0.87026729  1
  V  V24  1  0.00027703  0.37320175  0.87008545  1
  V  V25  1  0.62366724  0.12381706  -0.00183506  1
  V  V26  1  0.87586244  -0.00089862  0.87088723  1
  V  V27  1  0.13244528  0.25222781  0.86619854  1
  V  V28  1  0.63477204  0.37945083  0.25435919  1
  V  V29  1  0.87545184  0.25440255  0.11661441  1
  V  V30  1  0.12196247  0.87656039  0.74703155  1
  V  V31  1  0.49872799  0.62614293  0.62736681  1
  V  V32  1  0.87893847  0.74196376  0.62951814  1
  V  V33  1  -0.00011495  0.12615825  0.11937012  1
  V  V34  1  -0.00471492  0.11774067  0.62340356  1
  V  V35  1  0.87817136  0.88606288  0.49322146  1
  V  V36  1  0.24954448  0.75174624  0.49861848  1
  V  V37  1  0.75520708  0.37778432  0.12138808  1
  V  V38  1  0.25327674  0.87094874  0.12724075  1
  V  V39  1  0.24866406  0.62319996  0.87570838  1
  V  V40  1  0.37403811  0.49248602  0.88118244  1
  V  V41  1  -0.00336005  -0.00353907  -0.00503813  1
  V  V42  1  0.12117631  0.62305531  0.00308018  1
  V  V43  1  0.75066695  0.50271978  0.75045771  1
  V  V44  1  0.63109242  0.50250455  0.13186405  1
  V  V45  1  0.62208523  0.75056204  0.87386767  1
  V  V46  1  0.62044669  0.87534095  0.25232781  1
  V  V47  1  0.62235933  -0.00060668  0.11886977  1
  V  V48  1  0.24108358  0.12934957  0.37610141  1
  V  V49  1  0.74849564  0.37497771  0.62835705  1
  V  V50  1  0.75039543  0.00239345  0.74750599  1
  V  V51  1  0.37372958  0.00079490  0.87278861  1
  V  V52  1  0.61897291  0.75316073  0.37496966  1
  V  V53  1  0.49417700  0.75110484  0.24739815  1
  V  V54  1  0.74907585  0.74877895  0.49770915  1
  V  V55  1  0.37376634  0.62570852  0.75101072  1
  V  V56  1  0.87467565  0.37318968  0.50122924  1
  V  V57  1  0.62212281  0.62624000  0.50163766  1
  V  V58  1  0.37444229  0.50204294  0.37600738  1
  V  V59  1  0.51240829  0.12570439  0.62708819  1
  V  V60  1  0.75494887  0.87552994  0.11941369  1
  V  V61  1  0.75333802  0.12328951  0.37476805  1
  V  V62  1  -0.00119951  0.50354094  0.50304988  1
  V  V63  1  -0.00429442  0.87156703  0.87156912  1
  V  V64  1  0.37951512  0.00028748  0.37689213  1
  V  V65  1  0.25468458  0.37476705  0.61856236  1
  V  V66  1  0.75530493  0.62607433  0.86981981  1
  V  V67  1  0.00489395  0.36083183  0.37416195  1
  V  V68  1  0.36797602  0.13032117  0.75004855  1
  V  V69  1  0.75771837  0.75342354  -0.00140749  1
  V  V70  1  0.37391734  0.75185219  0.62602699  1
  V  V71  1  0.75575461  0.12559034  0.87240861  1
  V  V72  1  0.12425828  0.00474096  0.60940251  1
  V  V73  1  0.62593896  0.24559284  0.37840526  1
  V  V74  1  0.51233284  0.00576428  0.50203015  1
  V  V75  1  0.49630366  0.49005918  0.00219306  1
  V  V76  1  0.37904934  0.25122295  0.61796093  1
  V  V77  1  0.50043029  0.12242040  0.12234229  1
  V  V78  1  0.75058574  0.00132274  0.25026712  1
  V  V79  1  0.49275083  0.62738802  0.12691785  1
  V  V80  1  0.25540830  0.74911345  0.00418985  1
  V  V81  1  0.87639947  0.24757306  0.63504373  1
  V  V82  1  0.74591260  0.87986177  0.62353781  1
  V  V83  1  0.62434205  0.62546464  0.00087621  1
  V  V84  1  0.12129511  0.62712072  0.50577362  1
  Zn  Zn85  1  0.75491967  0.25611955  -0.00427407  1
  Zn  Zn86  1  0.00074180  0.24968204  0.75119395  1
  Zn  Zn87  1  0.25241248  0.50005468  0.25341618  1
  Zn  Zn88  1  0.62282286  0.50033093  0.62851921  1
  Zn  Zn89  1  0.48897734  0.36516290  0.87207634  1
  Zn  Zn90  1  0.74362791  0.61631543  0.36727914  1
  Zn  Zn91  1  0.10878203  0.87039362  0.24845869  1
  Zn  Zn92  1  0.24730572  0.62435710  0.37274337  1
  Zn  Zn93  1  0.61598513  0.37242369  0.74708517  1
  Zn  Zn94  1  0.26841965  0.38069332  0.12792548  1
  Zn  Zn95  1  0.50274292  0.25243029  0.24831918  1
  Zn  Zn96  1  0.13825102  0.35596058  0.26231334  1
  Zn  Zn97  1  0.00265177  0.71848373  0.73545668  1
  Zn  Zn98  1  0.50274023  0.88455148  0.88106711  1
  Zn  Zn99  1  0.49624563  0.75368195  0.75174002  1
  Zn  Zn100  1  0.00155166  0.63067150  0.13465141  1
  Zn  Zn101  1  0.24967624  0.87983867  0.62634206  1
  Zn  Zn102  1  0.00607251  0.24712186  0.24722870  1
  Zn  Zn103  1  0.97161959  -0.07076475  0.36751432  1
  Zn  Zn104  1  0.24414214  0.00484906  0.75341597  1
  Zn  Zn105  1  0.37056775  0.63024371  0.25031796  1
  Zn  Zn106  1  0.38808675  0.26281226  0.11184997  1
  Zn  Zn107  1  0.18883945  0.18541666  0.18331608  1
  Zn  Zn108  1  0.18692203  0.18607513  0.68122648  1
  Zn  Zn109  1  0.18687598  0.68468672  0.19140641  1
  Zn  Zn110  1  0.18734508  0.68616038  0.68769688  1
  Zn  Zn111  1  0.68857578  0.19255468  0.18840009  1
  Zn  Zn112  1  0.68943129  0.18755960  0.69081312  1
  Zn  Zn113  1  0.68951671  0.68763121  0.18863723  1
  Zn  Zn114  1  0.68784917  0.69035012  0.68669634  1
  Zn  Zn115  1  0.31379724  0.31598411  0.31148589  1
  Zn  Zn116  1  0.31070613  0.31006879  0.80798789  1
  Zn  Zn117  1  0.30934059  0.81539277  0.31625808  1
  Zn  Zn118  1  0.30907757  0.81490411  0.81501548  1
  Zn  Zn119  1  0.81809843  0.30909797  0.31008064  1
  Zn  Zn120  1  0.80942227  0.31683832  0.81493469  1
  Zn  Zn121  1  0.81056639  0.81205706  0.31018029  1
  Zn  Zn122  1  0.81333665  0.81443370  0.80961411  1
  Zn  Zn123  1  0.18817563  0.43504588  0.44197832  1
  Zn  Zn124  1  0.18435413  0.43370325  0.94037268  1
  Zn  Zn125  1  0.19138132  0.93710957  0.43382818  1
  Zn  Zn126  1  0.19017121  0.93568464  0.93380665  1
  Zn  Zn127  1  0.68376073  0.43539610  0.44432884  1
  Zn  Zn128  1  0.68564975  0.43992024  0.94244902  1
  Zn  Zn129  1  0.69128370  0.93721057  0.43457158  1
  Zn  Zn130  1  0.68827483  0.93764491  0.93579359  1
  Zn  Zn131  1  0.31340196  0.06129725  0.05990377  1
  Zn  Zn132  1  0.31166884  0.06623870  0.56385305  1
  Zn  Zn133  1  0.31074425  0.56049155  0.06338405  1
  Zn  Zn134  1  0.31111208  0.56469025  0.56157834  1
  Zn  Zn135  1  0.81270239  0.06313368  0.05918185  1
  Zn  Zn136  1  0.81229584  0.06604704  0.56425516  1
  Zn  Zn137  1  0.81281167  0.56790949  0.06312041  1
  Zn  Zn138  1  0.81103360  0.56179610  0.56072933  1
  Zn  Zn139  1  0.44319703  0.43725130  0.19446528  1
  Zn  Zn140  1  0.43597546  0.43577876  0.69269551  1
  Zn  Zn141  1  0.43604570  0.93795522  0.18592586  1
  Zn  Zn142  1  0.43823284  0.94329899  0.68652075  1
  Zn  Zn143  1  0.93813378  0.43913587  0.19305949  1
  Zn  Zn144  1  0.93554902  0.44427784  0.69182191  1
  Zn  Zn145  1  0.93822026  0.93902301  0.18476353  1
  Zn  Zn146  1  0.93485647  0.93396479  0.68421049  1
  Zn  Zn147  1  0.06522189  0.06150475  0.30322349  1
  Zn  Zn148  1  0.05999424  0.06666622  0.80445365  1
  Zn  Zn149  1  0.05474688  0.56735875  0.31896058  1
  Zn  Zn150  1  0.06077700  0.56072574  0.81323293  1
  Zn  Zn151  1  0.56330995  0.06215571  0.31196256  1
  Zn  Zn152  1  0.55847910  0.06482817  0.81020316  1
  Zn  Zn153  1  0.55998874  0.56450945  0.31415591  1
  Zn  Zn154  1  0.56103764  0.55952684  0.81278342  1
  Zn  Zn155  1  0.43558671  0.18587896  0.44108036  1
  Zn  Zn156  1  0.43863406  0.18006842  0.93506679  1
  Zn  Zn157  1  0.43749329  0.68728118  0.43788132  1
  Zn  Zn158  1  0.43708552  0.68345218  0.93919608  1
  Zn  Zn159  1  0.96228954  0.13957974  0.42264198  1
  Zn  Zn160  1  0.94054441  0.18599801  0.93533482  1
  Zn  Zn161  1  0.93237858  0.68671400  0.44051481  1
  Zn  Zn162  1  0.93821442  0.68342508  0.93533226  1
  Zn  Zn163  1  0.06535823  0.30997956  0.05883381  1
  Zn  Zn164  1  0.06041177  0.31230114  0.56259209  1
  Zn  Zn165  1  0.06541410  0.81494487  0.05871429  1
  Zn  Zn166  1  0.05697651  0.81918272  0.55675725  1
  Zn  Zn167  1  0.56929144  0.31099139  0.06182439  1
  Zn  Zn168  1  0.56361481  0.30916294  0.56223565  1
  Zn  Zn169  1  0.56406893  0.81032158  0.06388364  1
  Zn  Zn170  1  0.55935064  0.81570045  0.56321089  1
  O  O171  1  0.12012461  0.11725558  0.11134976  1
  O  O172  1  0.11754537  0.11029910  0.62782295  1
  O  O173  1  0.12072699  0.61851601  0.11700077  1
  O  O174  1  0.12997259  0.61266062  0.61471116  1
  O  O175  1  0.62243016  0.11862179  0.11929944  1
  O  O176  1  0.61177350  0.13022258  0.62936278  1
  O  O177  1  0.62027436  0.61853862  0.12244456  1
  O  O178  1  0.61764469  0.62600686  0.61963534  1
  O  O179  1  0.39115540  0.38211099  0.37129554  1
  O  O180  1  0.37042033  0.38844601  0.87156351  1
  O  O181  1  0.36979460  0.88960831  0.38532941  1
  O  O182  1  0.37792269  0.88036536  0.88167331  1
  O  O183  1  0.88237833  0.37963665  0.38069588  1
  O  O184  1  0.87927118  0.38612758  0.87887931  1
  O  O185  1  0.86553038  0.87525464  0.38799351  1
  O  O186  1  0.88432256  0.88394844  0.87144627  1
  O  O187  1  0.25926381  0.00923962  0.37046663  1
  O  O188  1  0.26475750  -0.00433159  0.87075786  1
  O  O189  1  0.26318839  0.49832772  0.38115299  1
  O  O190  1  0.25251314  0.50183523  0.87100654  1
  O  O191  1  0.74206454  0.01405043  0.36604944  1
  O  O192  1  0.75787113  0.00428191  0.86965779  1
  O  O193  1  0.76287691  0.49824168  0.38795292  1
  O  O194  1  0.75368236  0.50634229  0.87289747  1
  O  O195  1  0.23226358  0.49949572  0.12312752  1
  O  O196  1  0.24630381  0.49326281  0.62981840  1
  O  O197  1  0.24554595  0.99200065  0.12757629  1
  O  O198  1  0.23447741  1.00097353  0.62592971  1
  O  O199  1  0.73841686  0.49583185  0.11927492  1
  O  O200  1  0.75044362  0.49222891  0.63230890  1
  O  O201  1  0.74211131  0.99412802  0.12749872  1
  O  O202  1  0.75508607  0.99205013  0.63538257  1
  O  O203  1  -0.00100945  0.37251660  0.26752973  1
  O  O204  1  -0.00429396  0.37551991  0.76591041  1
  O  O205  1  -0.00077145  0.89270585  0.26426740  1
  O  O206  1  0.00702341  0.87612883  0.75892035  1
  O  O207  1  0.51502843  0.37265041  0.26393039  1
  O  O208  1  0.50551917  0.38406662  0.76126431  1
  O  O209  1  0.51277396  0.86751951  0.23846970  1
  O  O210  1  0.51166948  0.87522364  0.74900941  1
  O  O211  1  0.49433447  0.12599357  0.24165197  1
  O  O212  1  0.48965823  0.11838171  0.73236088  1
  O  O213  1  0.50026653  0.63426450  0.24304970  1
  O  O214  1  0.49235247  0.62609945  0.74535401  1
  O  O215  1  0.98972203  0.12420712  0.23616103  1
  O  O216  1  1.00351845  0.13395804  0.73303081  1
  O  O217  1  0.98181312  0.62515581  0.25124285  1
  O  O218  1  0.98583022  0.61238928  0.75494630  1
  O  O219  1  0.35954661  0.24037677  -0.00661608  1
  O  O220  1  0.36648502  0.24636217  0.51269717  1
  O  O221  1  0.36059212  0.75577572  -0.00716675  1
  O  O222  1  0.37007670  0.75906152  0.50291589  1
  O  O223  1  0.87331273  0.24350948  0.01158931  1
  O  O224  1  0.86146097  0.25769130  0.51415012  1
  O  O225  1  0.86200212  0.74290821  0.00663392  1
  O  O226  1  0.86382167  0.75917181  0.50571286  1
  O  O227  1  0.14091374  0.25177360  0.50513698  1
  O  O228  1  0.13486593  0.24141218  0.99281204  1
  O  O229  1  0.12977914  0.74610948  0.49695798  1
  O  O230  1  0.13177123  0.74096901  0.99466649  1
  O  O231  1  0.63910502  0.25508813  0.49037484  1
  O  O232  1  0.63266468  0.23850946  0.99271978  1
  O  O233  1  0.62808851  0.74917498  0.49354705  1
  O  O234  1  0.63472249  0.74669735  0.99185007  1
  O  O235  1  0.50432373  0.23701979  0.12631943  1
  O  O236  1  0.49294987  0.23597479  0.61455421  1
  O  O237  1  0.50818998  0.73843131  0.13476719  1
  O  O238  1  0.49179515  0.74457414  0.62672710  1
  O  O239  1  0.99148406  0.24420513  0.11946361  1
  O  O240  1  0.99106828  0.25142926  0.63064156  1
  O  O241  1  0.98541597  0.75271141  0.11289089  1
  O  O242  1  0.98355725  0.75596844  0.62139617  1
  O  O243  1  -0.00593112  0.26006411  0.38002071  1
  O  O244  1  0.00850378  0.25669106  0.87460609  1
  O  O245  1  0.01219567  0.74862540  0.38456541  1
  O  O246  1  0.00319713  0.75896373  0.87707107  1
  O  O247  1  0.50958042  0.25614491  0.38101783  1
  O  O248  1  0.51637999  0.24908475  0.88372821  1
  O  O249  1  0.51268524  0.74737358  0.36797701  1
  O  O250  1  0.51358050  0.74854174  0.87522840  1
  O  O251  1  0.25423204  0.13791811  0.49171610  1
  O  O252  1  0.23969721  0.13247822  1.00189023  1
  O  O253  1  0.24057849  0.63475636  0.49902245  1
  O  O254  1  0.24139541  0.63050818  0.99801468  1
  O  O255  1  0.75700143  0.13451350  0.48941901  1
  O  O256  1  0.74069364  0.12266406  0.98817401  1
  O  O257  1  0.74154654  0.63688490  0.50061008  1
  O  O258  1  0.74315203  0.63366656  0.99170073  1
  O  O259  1  0.24431358  0.35990692  0.00628068  1
  O  O260  1  0.25223785  0.36328086  0.50843477  1
  O  O261  1  0.25510307  0.86657788  0.00656565  1
  O  O262  1  0.26005490  0.86815878  0.50286310  1
  O  O263  1  0.74589992  0.37475086  0.01649594  1
  O  O264  1  0.75434413  0.36788787  0.51057910  1
  O  O265  1  0.74412756  0.86624628  0.00840683  1
  O  O266  1  0.75057195  0.86726842  0.50634220  1
  O  O267  1  0.11803396  0.50610471  0.23730666  1
  O  O268  1  0.13666983  0.50540208  0.74114180  1
  O  O269  1  0.13579238  1.00009532  0.23864661  1
  O  O270  1  0.12513325  0.99033780  0.74522087  1
  O  O271  1  0.62021752  0.49304740  0.24254728  1
  O  O272  1  0.63843142  0.49796342  0.75062264  1
  O  O273  1  0.62958886  0.99354191  0.24120120  1
  O  O274  1  0.63632548  0.98947343  0.75986465  1
  O  O275  1  0.37304061  0.00717435  0.25784760  1
  O  O276  1  0.36913801  0.00990754  0.75133605  1
  O  O277  1  0.37990028  0.50448003  0.26565624  1
  O  O278  1  0.36333841  0.50661293  0.75904782  1
  O  O279  1  0.86476604  0.01465489  0.23868620  1
  O  O280  1  0.86349925  -0.00644197  0.75942189  1
  O  O281  1  0.87674215  0.50745689  0.26341843  1
  O  O282  1  0.85891427  0.49546805  0.76297783  1
  O  O283  1  0.10854014  0.38087927  0.37756981  1
  O  O284  1  0.11571735  0.36071277  0.88030913  1
  O  O285  1  0.12619954  0.86134170  0.37706017  1
  O  O286  1  0.11717718  0.86918675  0.86604453  1
  O  O287  1  0.62134874  0.36838903  0.37133649  1
  O  O288  1  0.63286223  0.35768840  0.88015300  1
  O  O289  1  0.63095834  0.86766747  0.36139446  1
  O  O290  1  0.62411661  0.86758166  0.86869399  1
  O  O291  1  0.38580339  0.12149135  0.13131418  1
  O  O292  1  0.38052092  0.13227024  0.63279314  1
  O  O293  1  0.38903891  0.61758718  0.12780984  1
  O  O294  1  0.37813616  0.63141090  0.63065845  1
  O  O295  1  0.87738724  0.13272142  0.12800208  1
  O  O296  1  0.88494906  0.13243121  0.62453028  1
  O  O297  1  0.87652454  0.63426130  0.13229892  1
  O  O298  1  0.86697380  0.64317211  0.61733784  1
  O  O299  1  0.25611739  0.24901931  0.11081719  1
  O  O300  1  0.25517401  0.25552174  0.61541100  1
  O  O301  1  0.24202011  0.75853604  0.11589342  1
  O  O302  1  0.25409525  0.75129493  0.61342722  1
  O  O303  1  0.75754974  0.25900497  0.12316682  1
  O  O304  1  0.75393320  0.25408687  0.62098576  1
  O  O305  1  0.75479477  0.75732079  0.11647771  1
  O  O306  1  0.75513557  0.75967349  0.61668237  1
  O  O307  1  0.25836412  0.24677931  0.38848811  1
  O  O308  1  0.23799673  0.25649798  0.88415054  1
  O  O309  1  0.24325408  0.74991032  0.38821078  1
  O  O310  1  0.24112656  0.74357841  0.88358033  1
  O  O311  1  0.74520075  0.24581157  0.38191931  1
  O  O312  1  0.74513095  0.24025400  0.87654723  1
  O  O313  1  0.73814402  0.75025509  0.38449339  1
  O  O314  1  0.74501443  0.74589006  0.87929067  1
  O  O315  1  0.00984393  0.11469363  -0.00007752  1
  O  O316  1  0.00556064  0.14049928  0.52556957  1
  O  O317  1  0.00992613  0.61489653  -0.00102404  1
  O  O318  1  0.00740117  0.61362750  0.49757848  1
  O  O319  1  0.51194191  0.12626161  0.00952263  1
  O  O320  1  0.49724449  0.11396810  0.50999592  1
  O  O321  1  0.50530148  0.61931497  0.00939456  1
  O  O322  1  0.50357432  0.61828523  0.50710896  1
  O  O323  1  0.50891578  0.38510849  0.49224491  1
  O  O324  1  0.50853345  0.38708432  0.99621271  1
  O  O325  1  0.48876668  0.89055483  0.50697518  1
  O  O326  1  0.48469955  0.86564937  1.00246319  1
  O  O327  1  0.99458197  0.38092000  0.49121054  1
  O  O328  1  1.00424682  0.38565413  0.99169046  1
  O  O329  1  0.98057710  0.87839862  0.49389828  1
  O  O330  1  1.00946026  0.88754154  0.98512031  1
  O  O331  1  0.49600816  0.49402542  0.38468247  1
  O  O332  1  0.49016264  0.50387320  0.88734778  1
  O  O333  1  0.49008072  1.01094798  0.38815005  1
  O  O334  1  0.48337270  1.00009781  0.86961560  1
  O  O335  1  0.98928742  0.49300625  0.38721035  1
  O  O336  1  0.99290387  0.49147814  0.88407216  1
  O  O337  1  0.99573271  1.03683938  0.38561024  1
  O  O338  1  0.99342780  0.99508905  0.87581645  1
  O  O339  1  0.00447927  0.00362606  0.11087929  1
  O  O340  1  0.00541133  0.00988448  0.62713488  1
  O  O341  1  0.00651627  0.50193076  0.11865601  1
  O  O342  1  0.00861103  0.48744141  0.61319222  1
  O  O343  1  0.51283312  0.00916529  0.13067307  1
  O  O344  1  0.49775617  0.01220757  0.61198293  1
  O  O345  1  0.51146136  0.50743949  0.12028058  1
  O  O346  1  0.49871061  0.50536204  0.61867096  1
  O  O347  1  0.24824433  0.38317166  0.24663549  1
  O  O348  1  0.25174251  0.38547947  0.73940855  1
  O  O349  1  0.25027321  0.88020355  0.24077851  1
  O  O350  1  0.23340878  0.87252510  0.74634185  1
  O  O351  1  0.74082156  0.37174583  0.24366978  1
  O  O352  1  0.74494185  0.38238563  0.74206514  1
  O  O353  1  0.73978529  0.87947667  0.23946792  1
  O  O354  1  0.74261924  0.88229931  0.74318857  1
  O  O355  1  0.26155941  0.11978125  0.25337291  1
  O  O356  1  0.26415848  0.12449893  0.74274913  1
  O  O357  1  0.25423575  0.61861769  0.25462182  1
  O  O358  1  0.25374773  0.61612613  0.75599421  1
  O  O359  1  0.75552470  0.12229597  0.25352511  1
  O  O360  1  0.74281994  0.11345638  0.76125420  1
  O  O361  1  0.76325634  0.62835903  0.25194819  1
  O  O362  1  0.74361158  0.61829004  0.76051724  1
  O  O363  1  0.36994668  0.11855536  0.36678959  1
  O  O364  1  0.38143848  0.12007769  0.85622216  1
  O  O365  1  0.37391657  0.61512410  0.37566385  1
  O  O366  1  0.36731114  0.61586811  0.87163108  1
  O  O367  1  0.86203179  0.13717835  0.35954732  1
  O  O368  1  0.86549274  0.11540921  0.87756124  1
  O  O369  1  0.87008542  0.61772646  0.37148401  1
  O  O370  1  0.86114603  0.61512052  0.88039313  1
  O  O371  1  0.11936044  0.38921729  0.12746495  1
  O  O372  1  0.13701023  0.38742632  0.61834432  1
  O  O373  1  0.13480272  0.88011100  0.12550456  1
  O  O374  1  0.11860447  0.88737633  0.63036320  1
  O  O375  1  0.63224842  0.38211184  0.13490368  1
  O  O376  1  0.63771957  0.37438649  0.62495231  1
  O  O377  1  0.63350308  0.88145043  0.12960372  1
  O  O378  1  0.63602539  0.86884154  0.63424149  1
  O  O379  1  0.11887709  0.24761043  0.24220881  1
  O  O380  1  0.13100726  0.24720847  0.76412714  1
  O  O381  1  0.12640657  0.74921476  0.26724353  1
  O  O382  1  0.11818294  0.75531268  0.75221612  1
  O  O383  1  0.62529193  0.26013838  0.26118047  1
  O  O384  1  0.62953184  0.24941415  0.76724140  1
  O  O385  1  0.61934273  0.75668293  0.25597044  1
  O  O386  1  0.62733725  0.76052700  0.75984166  1
  O  O387  1  0.37880821  0.23695922  0.25021745  1
  O  O388  1  0.37178038  0.23819646  0.74005154  1
  O  O389  1  0.39073054  0.75344351  0.26087876  1
  O  O390  1  0.37300070  0.74459896  0.74590871  1
  O  O391  1  0.87886004  0.23959698  0.23692799  1
  O  O392  1  0.87074583  0.25583602  0.73785622  1
  O  O393  1  0.86952070  0.74531566  0.23808973  1
  O  O394  1  0.87346728  0.75619021  0.73245585  1
  O  O395  1  0.38729375  0.50440779  0.49439166  1
  O  O396  1  0.38302373  0.50507407  0.99224334  1
  O  O397  1  0.37767429  0.99621943  0.49417923  1
  O  O398  1  0.36962550  0.98937324  0.99018781  1
  O  O399  1  0.88206389  0.49397826  0.49725109  1
  O  O400  1  0.88439891  0.50731680  0.99339108  1
  O  O401  1  0.86242415  0.98456478  0.50316821  1
  O  O402  1  0.88698556  1.00431400  0.98839255  1
  O  O403  1  0.11973664  0.00577597  -0.00169269  1
  O  O404  1  0.12573928  -0.00621634  0.51104343  1
  O  O405  1  0.11695834  0.50602575  0.00872553  1
  O  O406  1  0.11894927  0.50763646  0.50663753  1
  O  O407  1  0.63008743  0.00783939  0.00928211  1
  O  O408  1  0.61041426  -0.00552131  0.49396637  1
  O  O409  1  0.61627691  0.50660143  0.00896413  1
  O  O410  1  0.61363738  0.50765197  0.50330977  1
  O  O411  1  0.38191954  0.37420092  0.12671925  1
  O  O412  1  0.36527694  0.36481456  0.63143507  1
  O  O413  1  0.36179215  0.88236641  0.11623448  1
  O  O414  1  0.37218225  0.87177075  0.61690837  1
  O  O415  1  0.86603951  0.36764552  0.13537356  1
  O  O416  1  0.86500535  0.37062540  0.62253556  1
  O  O417  1  0.86127252  0.86950870  0.12894685  1
  O  O418  1  0.86353660  0.86809819  0.61398422  1
  O  O419  1  0.14341119  0.12564838  0.36581271  1
  O  O420  1  0.11736331  0.13896604  0.88133938  1
  O  O421  1  0.12537524  0.63482448  0.38791362  1
  O  O422  1  0.12961357  0.62620358  0.88543324  1
  O  O423  1  0.63647922  0.13763582  0.36520124  1
  O  O424  1  0.63060347  0.13121290  0.88060767  1
  O  O425  1  0.62611896  0.63402308  0.38161087  1
  O  O426  1  0.63337980  0.63260204  0.87953892  1
