# generated using pymatgen
data_V85Zn86O256
_symmetry_space_group_name_H-M   'P 1'
_cell_length_a   16.96561764
_cell_length_b   16.96182962
_cell_length_c   16.95792294
_cell_angle_alpha   90.24548705
_cell_angle_beta   89.86866424
_cell_angle_gamma   90.09640299
_symmetry_Int_Tables_number   1
_chemical_formula_structural   V85Zn86O256
_chemical_formula_sum   'V85 Zn86 O256'
_cell_volume   4879.88170213
_cell_formula_units_Z   1
loop_
 _symmetry_equiv_pos_site_id
 _symmetry_equiv_pos_as_xyz
  1  'x, y, z'
loop_
 _atom_site_type_symbol
 _atom_site_label
 _atom_site_symmetry_multiplicity
 _atom_site_fract_x
 _atom_site_fract_y
 _atom_site_fract_z
 _atom_site_occupancy
  V  V0  1  0.12605718  0.25305335  0.37383937  1
  V  V1  1  0.37171034  0.12087452  0.24642761  1
  V  V2  1  0.49625678  0.62426703  0.13214204  1
  V  V3  1  0.37196146  0.00001506  0.37228159  1
  V  V4  1  0.11314375  0.62931208  0.00215452  1
  V  V5  1  0.25177028  0.62804511  0.37248181  1
  V  V6  1  0.24908021  0.12457462  0.37102490  1
  V  V7  1  0.87583715  0.50405317  0.37661151  1
  V  V8  1  0.62622677  0.49827210  0.12483753  1
  V  V9  1  0.62172595  0.61882023  0.50072796  1
  V  V10  1  0.00267771  -0.00107155  -0.00005425  1
  V  V11  1  0.25099921  0.75035104  0.00133824  1
  V  V12  1  0.25080545  0.49726695  0.74642003  1
  V  V13  1  0.12876229  0.62662989  0.50213789  1
  V  V14  1  0.62577838  0.37445324  0.24938364  1
  V  V15  1  0.12382942  0.50349385  0.62658259  1
  V  V16  1  0.12680530  0.88380221  0.25897081  1
  V  V17  1  0.74843446  0.74752835  0.00080670  1
  V  V18  1  0.13399349  0.25198004  0.88048036  1
  V  V19  1  0.87823298  0.49996583  0.87922646  1
  V  V20  1  0.75374231  0.62629888  0.37372581  1
  V  V21  1  0.50240315  0.74541567  0.75274849  1
  V  V22  1  0.62374231  0.62215996  -0.00048969  1
  V  V23  1  0.62277474  0.00282196  0.10903623  1
  V  V24  1  0.12198093  0.12448779  0.49778847  1
  V  V25  1  0.62487048  0.24504487  0.89468256  1
  V  V26  1  0.00089691  0.37753904  0.87900316  1
  V  V27  1  0.86828747  0.12461448  0.74918817  1
  V  V28  1  0.62190833  0.12767953  0.49732932  1
  V  V29  1  0.13175051  0.37872307  0.24267013  1
  V  V30  1  0.87877691  -0.00998850  0.38160444  1
  V  V31  1  0.01384285  0.87172433  0.86933251  1
  V  V32  1  0.24864423  0.62879924  0.87698860  1
  V  V33  1  0.75034966  0.76221510  0.50832459  1
  V  V34  1  0.50275661  0.87830813  0.87851450  1
  V  V35  1  0.87666389  0.62233451  0.74168219  1
  V  V36  1  0.37503447  0.74762653  0.13112828  1
  V  V37  1  0.37386392  0.00144620  0.85610124  1
  V  V38  1  0.00123387  0.37828688  0.37516781  1
  V  V39  1  0.87624214  0.12657146  0.24899870  1
  V  V40  1  0.37659720  0.62067710  0.75182084  1
  V  V41  1  0.62411105  0.74714239  0.87599076  1
  V  V42  1  0.75126779  0.87464125  0.12112906  1
  V  V43  1  0.25172120  0.11885876  0.85865797  1
  V  V44  1  0.00035624  0.50759373  0.50570834  1
  V  V45  1  0.86911120  0.76911080  0.62956777  1
  V  V46  1  0.62818249  -0.00292100  0.62963109  1
  V  V47  1  0.75063770  0.00156358  0.24839775  1
  V  V48  1  0.50463007  0.12086534  0.11044169  1
  V  V49  1  0.49597747  0.49377602  -0.00008324  1
  V  V50  1  0.36907311  0.37377380  0.50054132  1
  V  V51  1  0.75000642  0.12848867  0.89047999  1
  V  V52  1  0.63195012  0.49550611  0.62632717  1
  V  V53  1  0.87322679  0.37737943  0.50192492  1
  V  V54  1  0.75003679  0.37166180  0.12078977  1
  V  V55  1  0.36683433  0.25411664  0.11651031  1
  V  V56  1  0.88330075  0.74354501  0.12646887  1
  V  V57  1  0.74994632  0.12771717  0.37324433  1
  V  V58  1  0.50009356  0.24808145  0.25014263  1
  V  V59  1  0.00090050  0.25235570  0.24826962  1
  V  V60  1  0.50142811  0.61492892  0.62344187  1
  V  V61  1  0.87541776  0.37313782  -0.00088176  1
  V  V62  1  0.12780239  0.37503473  0.74521451  1
  V  V63  1  0.62104596  0.87501867  0.24999002  1
  V  V64  1  0.87475277  0.24972345  0.12148046  1
  V  V65  1  0.37705429  0.88390134  -0.00099871  1
  V  V66  1  0.49905632  0.38003301  0.37954533  1
  V  V67  1  0.10981360  0.50744944  0.12238743  1
  V  V68  1  0.49932359  0.36904889  0.87373956  1
  V  V69  1  0.37632045  0.75064036  0.62372721  1
  V  V70  1  -0.00006973  0.25015171  0.74963956  1
  V  V71  1  0.13288073  0.12500817  -0.00295371  1
  V  V72  1  0.49667033  0.00176306  0.49711164  1
  V  V73  1  0.37579420  0.50325097  0.37557575  1
  V  V74  1  0.37110234  0.25293675  0.63786565  1
  V  V75  1  0.74982599  0.62077315  0.87513015  1
  V  V76  1  0.49266969  0.13056722  0.63977394  1
  V  V77  1  -0.00281259  0.12248528  0.61911657  1
  V  V78  1  0.74836842  0.25688909  0.50311337  1
  V  V79  1  0.62532999  0.75184655  0.37632394  1
  V  V80  1  0.00882903  0.74789013  0.74947420  1
  V  V81  1  0.12876742  -0.00350804  0.63395246  1
  V  V82  1  0.25346814  0.50424283  0.24257121  1
  V  V83  1  0.62863094  0.36141649  0.74338985  1
  V  V84  1  0.87022086  0.25647373  0.62473836  1
  Zn  Zn85  1  0.87234982  -0.00721611  0.87299603  1
  Zn  Zn86  1  0.49405603  0.74552008  0.25474143  1
  Zn  Zn87  1  0.88970381  0.62086978  0.24294768  1
  Zn  Zn88  1  0.34692799  0.37268194  0.00498919  1
  Zn  Zn89  1  0.37281300  0.49431495  0.87703926  1
  Zn  Zn90  1  0.00274447  0.75280933  0.26437619  1
  Zn  Zn91  1  0.49555681  0.87241469  0.37452315  1
  Zn  Zn92  1  0.00269283  -0.03162457  0.49189173  1
  Zn  Zn93  1  0.63408753  0.86395591  0.74163592  1
  Zn  Zn94  1  0.37228515  0.87630971  0.50232704  1
  Zn  Zn95  1  0.75414161  0.49105701  0.74724167  1
  Zn  Zn96  1  0.87937537  0.87372050  -0.00277815  1
  Zn  Zn97  1  0.75310383  0.50105020  0.24965329  1
  Zn  Zn98  1  0.75495508  -0.00727949  0.74513063  1
  Zn  Zn99  1  0.25225251  0.88375372  0.63640090  1
  Zn  Zn100  1  0.62482396  0.25284036  0.37508120  1
  Zn  Zn101  1  0.00313592  0.12401525  0.12234285  1
  Zn  Zn102  1  0.13670314  0.00387333  0.13037332  1
  Zn  Zn103  1  0.25612661  0.89044769  0.13323439  1
  Zn  Zn104  1  0.24708886  0.25497104  0.50592338  1
  Zn  Zn105  1  0.11942327  0.76137621  0.38167333  1
  Zn  Zn106  1  0.25182285  0.75616825  0.50185947  1
  Zn  Zn107  1  0.18707856  0.18587160  0.18519515  1
  Zn  Zn108  1  0.18707778  0.18706917  0.68641105  1
  Zn  Zn109  1  0.18305471  0.69335922  0.18975464  1
  Zn  Zn110  1  0.19314530  0.68861337  0.68849171  1
  Zn  Zn111  1  0.68719525  0.18667823  0.18297025  1
  Zn  Zn112  1  0.68541157  0.18302835  0.68547835  1
  Zn  Zn113  1  0.68688016  0.68742660  0.18762702  1
  Zn  Zn114  1  0.69164131  0.68241322  0.69010499  1
  Zn  Zn115  1  0.31269708  0.31233173  0.31025106  1
  Zn  Zn116  1  0.30944768  0.31513401  0.82056136  1
  Zn  Zn117  1  0.30441799  0.81526983  0.31313007  1
  Zn  Zn118  1  0.31146766  0.81339306  0.80912403  1
  Zn  Zn119  1  0.81249348  0.31461989  0.31267243  1
  Zn  Zn120  1  0.80823102  0.30903764  0.81420908  1
  Zn  Zn121  1  0.80931216  0.80991856  0.31000691  1
  Zn  Zn122  1  0.81465896  0.81345614  0.81476990  1
  Zn  Zn123  1  0.19008153  0.44047308  0.43503703  1
  Zn  Zn124  1  0.18561588  0.44577305  0.93940577  1
  Zn  Zn125  1  0.19167917  0.93791801  0.44737418  1
  Zn  Zn126  1  0.19235153  0.93805201  0.93428656  1
  Zn  Zn127  1  0.68659593  0.43898433  0.43717166  1
  Zn  Zn128  1  0.68767346  0.43360502  0.93671566  1
  Zn  Zn129  1  0.68804239  0.94148609  0.43589777  1
  Zn  Zn130  1  0.69306699  0.93568668  0.92797592  1
  Zn  Zn131  1  0.31364210  0.06708907  0.05615749  1
  Zn  Zn132  1  0.30970188  0.06873233  0.56313406  1
  Zn  Zn133  1  0.31234774  0.56368118  0.06257207  1
  Zn  Zn134  1  0.31395149  0.55925090  0.56102709  1
  Zn  Zn135  1  0.81683754  0.05903016  0.06261737  1
  Zn  Zn136  1  0.80993555  0.06432271  0.55877396  1
  Zn  Zn137  1  0.81427975  0.55956757  0.06033459  1
  Zn  Zn138  1  0.80832431  0.56628749  0.55983631  1
  Zn  Zn139  1  0.43575071  0.43646825  0.18949665  1
  Zn  Zn140  1  0.44125017  0.43187657  0.68968582  1
  Zn  Zn141  1  0.43823598  0.93842904  0.18294651  1
  Zn  Zn142  1  0.44938058  0.93316034  0.68804436  1
  Zn  Zn143  1  0.93736547  0.43804853  0.19013205  1
  Zn  Zn144  1  0.94051818  0.43855272  0.69005999  1
  Zn  Zn145  1  0.94387209  0.93554165  0.19055841  1
  Zn  Zn146  1  0.94565310  0.93959645  0.68957071  1
  Zn  Zn147  1  0.05836013  0.06191371  0.31186894  1
  Zn  Zn148  1  0.05879024  0.06378722  0.81455193  1
  Zn  Zn149  1  0.06262582  0.56980528  0.31412826  1
  Zn  Zn150  1  0.06227140  0.56625561  0.81613823  1
  Zn  Zn151  1  0.56140813  0.06139437  0.30716472  1
  Zn  Zn152  1  0.56203913  0.06417350  0.81878912  1
  Zn  Zn153  1  0.56543274  0.56066056  0.31293771  1
  Zn  Zn154  1  0.56410629  0.55467866  0.81079940  1
  Zn  Zn155  1  0.43473168  0.19101285  0.43906954  1
  Zn  Zn156  1  0.43506130  0.18511723  0.93243246  1
  Zn  Zn157  1  0.43842176  0.68624812  0.43802711  1
  Zn  Zn158  1  0.43521884  0.68605773  0.94059246  1
  Zn  Zn159  1  0.93594400  0.18829358  0.43385223  1
  Zn  Zn160  1  0.94121642  0.18788659  0.93679505  1
  Zn  Zn161  1  0.93742147  0.69798603  0.44547326  1
  Zn  Zn162  1  0.93419013  0.69299480  0.93372001  1
  Zn  Zn163  1  0.06706266  0.31553760  0.06140341  1
  Zn  Zn164  1  0.05935126  0.31350171  0.56179708  1
  Zn  Zn165  1  0.06900644  0.81976383  0.06687230  1
  Zn  Zn166  1  0.05762147  0.80917489  0.56649903  1
  Zn  Zn167  1  0.55747530  0.31004212  0.06510882  1
  Zn  Zn168  1  0.55509048  0.31181481  0.56335728  1
  Zn  Zn169  1  0.56058962  0.81255615  0.06247743  1
  Zn  Zn170  1  0.55914924  0.81073081  0.56036958  1
  O  O171  1  0.12288293  0.12636041  0.11141877  1
  O  O172  1  0.11494798  0.12302159  0.61668006  1
  O  O173  1  0.12715533  0.61664985  0.11582779  1
  O  O174  1  0.13095434  0.61126067  0.61794611  1
  O  O175  1  0.61718734  0.11484066  0.13014179  1
  O  O176  1  0.61180386  0.12034283  0.61580442  1
  O  O177  1  0.61850847  0.61876960  0.11912562  1
  O  O178  1  0.62026493  0.61644081  0.62085100  1
  O  O179  1  0.38085085  0.37997667  0.37970750  1
  O  O180  1  0.38853750  0.37265473  0.88014746  1
  O  O181  1  0.37416762  0.88864665  0.37613867  1
  O  O182  1  0.38237527  0.88279461  0.87747507  1
  O  O183  1  0.88053333  0.38256169  0.38163315  1
  O  O184  1  0.88012584  0.37747131  0.87993352  1
  O  O185  1  0.86547908  0.89222195  0.36631625  1
  O  O186  1  0.88722953  0.87565903  0.87925265  1
  O  O187  1  0.26146566  0.01468286  0.38391856  1
  O  O188  1  0.26613021  0.00200970  0.87202668  1
  O  O189  1  0.25667366  0.50787997  0.36613751  1
  O  O190  1  0.25114178  0.51037846  0.86386538  1
  O  O191  1  0.75668312  0.00891518  0.36891642  1
  O  O192  1  0.74982274  0.02004242  0.87153652  1
  O  O193  1  0.75643122  0.51002336  0.37729823  1
  O  O194  1  0.76153981  0.50142106  0.87516651  1
  O  O195  1  0.24566393  0.50736798  0.13808812  1
  O  O196  1  0.24188897  0.50241745  0.63838204  1
  O  O197  1  0.25143122  1.00411784  0.12175957  1
  O  O198  1  0.23273661  1.00709868  0.62124491  1
  O  O199  1  0.74572373  0.48905240  0.12582109  1
  O  O200  1  0.73668079  0.50125284  0.62571613  1
  O  O201  1  0.74431377  0.99323461  0.12799687  1
  O  O202  1  0.73136062  1.00809241  0.62202964  1
  O  O203  1  0.01027153  0.37284148  0.25558669  1
  O  O204  1  0.00733479  0.36991148  0.75844319  1
  O  O205  1  0.01770694  0.86913059  0.24363202  1
  O  O206  1  -0.00141382  0.86432145  0.76010749  1
  O  O207  1  0.50462833  0.36573488  0.25624378  1
  O  O208  1  0.51433129  0.37982694  0.76525743  1
  O  O209  1  0.51213483  0.87393112  0.24963236  1
  O  O210  1  0.50920601  0.86501600  0.76181409  1
  O  O211  1  0.49128425  0.13327360  0.24626731  1
  O  O212  1  0.50168984  0.12418864  0.73783187  1
  O  O213  1  0.50648768  0.62491905  0.23622047  1
  O  O214  1  0.49694168  0.62514225  0.74366479  1
  O  O215  1  0.99473015  0.13489560  0.24592766  1
  O  O216  1  0.98876539  0.13099232  0.74105837  1
  O  O217  1  1.00025750  0.63772837  0.25411247  1
  O  O218  1  0.98847436  0.63872373  0.76342641  1
  O  O219  1  0.38034332  0.24802803  0.01372129  1
  O  O220  1  0.37129187  0.25809238  0.50591510  1
  O  O221  1  0.36897724  0.75664982  0.00807948  1
  O  O222  1  0.37987468  0.75216966  0.51119502  1
  O  O223  1  0.88166568  0.26103704  0.00877542  1
  O  O224  1  0.86781408  0.25542509  0.50597675  1
  O  O225  1  0.86591066  0.75058993  0.01007307  1
  O  O226  1  0.86454685  0.74209618  0.52368061  1
  O  O227  1  0.12507149  0.24420343  0.49410347  1
  O  O228  1  0.11542104  0.23993777  0.98736532  1
  O  O229  1  0.12923421  0.73490605  0.50943429  1
  O  O230  1  0.13714544  0.73646495  1.01103406  1
  O  O231  1  0.63019824  0.24350508  0.50115078  1
  O  O232  1  0.62847586  0.25137213  0.99289824  1
  O  O233  1  0.63054128  0.74095005  0.49824066  1
  O  O234  1  0.62858913  0.74153474  0.99608882  1
  O  O235  1  0.49595275  0.24079475  0.13477394  1
  O  O236  1  0.49057976  0.23634376  0.62228130  1
  O  O237  1  0.49366323  0.74030582  0.12494617  1
  O  O238  1  0.49723342  0.73706534  0.63173007  1
  O  O239  1  0.98998701  0.25376208  0.12966818  1
  O  O240  1  0.99056027  0.24220850  0.62857001  1
  O  O241  1  0.98188698  0.75685289  0.11639242  1
  O  O242  1  0.98189491  0.75411660  0.64215474  1
  O  O243  1  0.00565479  0.25784195  0.36871594  1
  O  O244  1  0.00874870  0.25773587  0.86791148  1
  O  O245  1  0.00490135  0.75491952  0.38099444  1
  O  O246  1  -0.00342819  0.76186081  0.86368319  1
  O  O247  1  0.49940282  0.25767090  0.36431536  1
  O  O248  1  0.51509741  0.25366425  0.88113447  1
  O  O249  1  0.50762828  0.75202702  0.37295591  1
  O  O250  1  0.50360805  0.75340795  0.87145411  1
  O  O251  1  0.23725834  0.12963720  0.49048068  1
  O  O252  1  0.23808931  0.12067050  0.98249666  1
  O  O253  1  0.24268406  0.62004886  0.49201066  1
  O  O254  1  0.24784403  0.63077895  0.99316935  1
  O  O255  1  0.73951288  0.13544767  0.49486311  1
  O  O256  1  0.75731574  0.12714991  0.98881341  1
  O  O257  1  0.73905979  0.63411739  0.49382515  1
  O  O258  1  0.74324426  0.62654869  0.99472724  1
  O  O259  1  0.24087002  0.36263713  -0.01972206  1
  O  O260  1  0.26230112  0.37347031  0.49444377  1
  O  O261  1  0.25964200  0.86259378  -0.00541991  1
  O  O262  1  0.25580575  0.87393255  0.51694047  1
  O  O263  1  0.76041926  0.37649008  0.01026394  1
  O  O264  1  0.75463292  0.36436452  0.49574133  1
  O  O265  1  0.74967727  0.86859631  0.00838917  1
  O  O266  1  0.74030616  0.86108086  0.49869634  1
  O  O267  1  0.13074981  0.49753872  0.24016715  1
  O  O268  1  0.12855495  0.49603897  0.74492484  1
  O  O269  1  0.11942065  0.99087171  0.24920823  1
  O  O270  1  0.11413789  1.00857383  0.73222606  1
  O  O271  1  0.62825308  0.49202133  0.24241336  1
  O  O272  1  0.63012174  0.48840301  0.74325889  1
  O  O273  1  0.63182143  0.99157963  0.24453489  1
  O  O274  1  0.62214977  1.00693173  0.73381158  1
  O  O275  1  0.38363976  0.01172330  0.25899095  1
  O  O276  1  0.37872593  -0.00476871  0.75741379  1
  O  O277  1  0.36458294  0.49193783  0.26182713  1
  O  O278  1  0.36650670  0.50113666  0.74935922  1
  O  O279  1  0.87016937  0.00699124  0.25428993  1
  O  O280  1  0.87600435  0.01360184  0.75032885  1
  O  O281  1  0.87298545  0.50368666  0.25971451  1
  O  O282  1  0.87450908  0.50351384  0.75966144  1
  O  O283  1  0.12035295  0.37355720  0.36632285  1
  O  O284  1  0.11586989  0.37104811  0.86605861  1
  O  O285  1  0.13347015  0.88070661  0.36605633  1
  O  O286  1  0.11287338  0.87677889  0.87585289  1
  O  O287  1  0.61590427  0.37559710  0.36974370  1
  O  O288  1  0.62247323  0.35965848  0.86862528  1
  O  O289  1  0.62505475  0.87220726  0.36489370  1
  O  O290  1  0.61355479  0.86541863  0.88196343  1
  O  O291  1  0.38472130  0.13193485  0.13051257  1
  O  O292  1  0.38569905  0.13512539  0.62225644  1
  O  O293  1  0.38645201  0.63385123  0.11877817  1
  O  O294  1  0.38580490  0.62546656  0.62886659  1
  O  O295  1  0.87663927  0.13567211  0.12877888  1
  O  O296  1  0.87948514  0.13357113  0.62814225  1
  O  O297  1  0.86622523  0.63913466  0.12485443  1
  O  O298  1  0.87246512  0.62039816  0.64002191  1
  O  O299  1  0.26848958  0.24427070  0.12988458  1
  O  O300  1  0.26623748  0.24192166  0.62338552  1
  O  O301  1  0.26120323  0.74462952  0.11471563  1
  O  O302  1  0.27017497  0.73824687  0.62198792  1
  O  O303  1  0.76272117  0.25975841  0.12996343  1
  O  O304  1  0.75921496  0.24237819  0.61398956  1
  O  O305  1  0.75271554  0.75841369  0.12010996  1
  O  O306  1  0.75879950  0.74832014  0.62375725  1
  O  O307  1  0.24444924  0.24019171  0.37471546  1
  O  O308  1  0.23882507  0.23782002  0.86678922  1
  O  O309  1  0.24936912  0.73896888  0.38225519  1
  O  O310  1  0.25932840  0.73683330  0.88588424  1
  O  O311  1  0.74855123  0.24624338  0.38491098  1
  O  O312  1  0.73650111  0.23979293  0.87297726  1
  O  O313  1  0.74619516  0.74367868  0.38509576  1
  O  O314  1  0.74451049  0.74027585  0.88242837  1
  O  O315  1  0.00994253  0.11573782  -0.00500768  1
  O  O316  1  0.00697638  0.13308981  0.50745829  1
  O  O317  1  0.01526235  0.63404577  -0.00783994  1
  O  O318  1  0.01067113  0.61260209  0.49722860  1
  O  O319  1  0.49811703  0.12734016  0.01192001  1
  O  O320  1  0.50699273  0.11942709  0.50074428  1
  O  O321  1  0.50419943  0.61305434  0.00713013  1
  O  O322  1  0.51241256  0.62857180  0.51037917  1
  O  O323  1  0.49161128  0.36886310  0.48519510  1
  O  O324  1  0.50619157  0.38296689  0.99149080  1
  O  O325  1  0.49822307  0.89071178  0.49740278  1
  O  O326  1  0.48927207  0.86606099  0.98843381  1
  O  O327  1  0.99442805  0.38496756  0.49524102  1
  O  O328  1  0.99303400  0.37194470  0.98688869  1
  O  O329  1  0.98827357  0.85962900  0.49832524  1
  O  O330  1  1.00358895  0.88136630  0.98877940  1
  O  O331  1  0.48991808  0.48969070  0.36535750  1
  O  O332  1  0.50032305  0.49003316  0.88521806  1
  O  O333  1  0.49078172  1.00238798  0.38171525  1
  O  O334  1  0.48982754  0.98987527  0.87011856  1
  O  O335  1  0.99621795  0.49678907  0.38571367  1
  O  O336  1  0.99020582  0.48891921  0.86833594  1
  O  O337  1  0.98252012  1.00637153  0.37804288  1
  O  O338  1  0.99815752  0.98877776  0.87878976  1
  O  O339  1  0.00264330  0.00112578  0.11022376  1
  O  O340  1  0.00282328  0.01176669  0.61614445  1
  O  O341  1  0.01077594  0.50374767  0.12867128  1
  O  O342  1  0.01013736  0.49556865  0.61660639  1
  O  O343  1  0.51064807  0.00913681  0.12866366  1
  O  O344  1  0.50416890  0.01368099  0.61669898  1
  O  O345  1  0.50411671  0.50366186  0.11911163  1
  O  O346  1  0.51042008  0.50934133  0.63073936  1
  O  O347  1  0.23802798  0.38569452  0.25652207  1
  O  O348  1  0.23760678  0.38584993  0.76019867  1
  O  O349  1  0.23618186  0.87531009  0.24770149  1
  O  O350  1  0.23824302  0.85605407  0.74192228  1
  O  O351  1  0.74500680  0.37596384  0.23990899  1
  O  O352  1  0.73377558  0.37293085  0.75357236  1
  O  O353  1  0.74031257  0.87969979  0.23896188  1
  O  O354  1  0.73927989  0.88465473  0.77265588  1
  O  O355  1  0.26035771  0.12970679  0.25918064  1
  O  O356  1  0.24568687  0.12152967  0.75917633  1
  O  O357  1  0.24230153  0.61760849  0.26299768  1
  O  O358  1  0.25466534  0.61774157  0.75847890  1
  O  O359  1  0.75538913  0.12195200  0.25303289  1
  O  O360  1  0.75980022  0.12386284  0.75049963  1
  O  O361  1  0.75001363  0.62576850  0.26519301  1
  O  O362  1  0.75992225  0.61878719  0.75898466  1
  O  O363  1  0.36879501  0.12186149  0.36689916  1
  O  O364  1  0.37019171  0.10925630  0.87575288  1
  O  O365  1  0.36665354  0.61424513  0.38272134  1
  O  O366  1  0.36811259  0.61863699  0.87029301  1
  O  O367  1  0.86789362  0.12168308  0.36717547  1
  O  O368  1  0.86235146  0.13402575  0.86604714  1
  O  O369  1  0.86381988  0.62256655  0.38354606  1
  O  O370  1  0.87073804  0.61555071  0.87148660  1
  O  O371  1  0.12052661  0.39045523  0.13301042  1
  O  O372  1  0.11950724  0.38240480  0.63769962  1
  O  O373  1  0.13509326  0.88119333  0.13380941  1
  O  O374  1  0.11768537  0.89592966  0.61812443  1
  O  O375  1  0.63246284  0.37676925  0.12806762  1
  O  O376  1  0.61391693  0.38003134  0.63663295  1
  O  O377  1  0.63089478  0.88097810  0.12984129  1
  O  O378  1  0.61243933  0.89327344  0.62518644  1
  O  O379  1  0.12203128  0.25997694  0.25181830  1
  O  O380  1  0.12098590  0.25796371  0.75554929  1
  O  O381  1  0.12537677  0.76340517  0.25697544  1
  O  O382  1  0.10659640  0.74011387  0.74090362  1
  O  O383  1  0.61574063  0.25432041  0.25024959  1
  O  O384  1  0.62393521  0.25952144  0.74681689  1
  O  O385  1  0.62605297  0.76011378  0.25633785  1
  O  O386  1  0.61981880  0.74436435  0.75775822  1
  O  O387  1  0.38318659  0.24221315  0.24254870  1
  O  O388  1  0.37295645  0.26120027  0.73663120  1
  O  O389  1  0.37535422  0.75909663  0.23549297  1
  O  O390  1  0.38456460  0.73908644  0.74402089  1
  O  O391  1  0.88081269  0.24851762  0.24191411  1
  O  O392  1  0.87737248  0.24491386  0.74219027  1
  O  O393  1  0.87379219  0.75079980  0.23435830  1
  O  O394  1  0.87383325  0.74134886  0.74119777  1
  O  O395  1  0.37140631  0.48906663  0.48707573  1
  O  O396  1  0.38514412  0.49284187  1.00188700  1
  O  O397  1  0.38312906  1.00666425  0.49189750  1
  O  O398  1  0.37401746  0.98648910  0.99180518  1
  O  O399  1  0.88200471  0.49755708  0.49897677  1
  O  O400  1  0.87506393  0.48800195  0.99010138  1
  O  O401  1  0.87092793  1.00419991  0.48469856  1
  O  O402  1  0.88801417  0.99854648  0.99515504  1
  O  O403  1  0.11762388  0.00964904  -0.00707565  1
  O  O404  1  0.11673557  0.01407694  0.50314201  1
  O  O405  1  0.12610886  0.51276186  0.01432707  1
  O  O406  1  0.11992172  0.50282804  0.50823038  1
  O  O407  1  0.63144764  -0.00562011  0.01064430  1
  O  O408  1  0.61769791  0.01004307  0.50628536  1
  O  O409  1  0.61718460  0.50187045  0.00493220  1
  O  O410  1  0.62874075  0.51021380  0.50853394  1
  O  O411  1  0.38251976  0.35828726  0.12312388  1
  O  O412  1  0.38833822  0.36147361  0.61453576  1
  O  O413  1  0.37600975  0.86751339  0.11510821  1
  O  O414  1  0.38366109  0.86074379  0.62721761  1
  O  O415  1  0.87056465  0.37102525  0.11850081  1
  O  O416  1  0.88159404  0.36289349  0.62117279  1
  O  O417  1  0.86281152  0.86810966  0.12420709  1
  O  O418  1  0.86899623  0.86754886  0.63586495  1
  O  O419  1  0.12949886  0.13093827  0.37876120  1
  O  O420  1  0.13026756  0.13290076  0.87633615  1
  O  O421  1  0.13675961  0.62089222  0.38890733  1
  O  O422  1  0.13594112  0.61656753  0.89148856  1
  O  O423  1  0.62861388  0.12608340  0.38333693  1
  O  O424  1  0.63463985  0.13641928  0.87296882  1
  O  O425  1  0.63091661  0.62853419  0.38315979  1
  O  O426  1  0.62880288  0.62621280  0.88017894  1
