# generated using pymatgen
data_V85Zn86O256
_symmetry_space_group_name_H-M   'P 1'
_cell_length_a   16.97047434
_cell_length_b   16.98666081
_cell_length_c   16.98877423
_cell_angle_alpha   89.95979396
_cell_angle_beta   90.13075056
_cell_angle_gamma   90.10536683
_symmetry_Int_Tables_number   1
_chemical_formula_structural   V85Zn86O256
_chemical_formula_sum   'V85 Zn86 O256'
_cell_volume   4897.36045821
_cell_formula_units_Z   1
loop_
 _symmetry_equiv_pos_site_id
 _symmetry_equiv_pos_as_xyz
  1  'x, y, z'
loop_
 _atom_site_type_symbol
 _atom_site_label
 _atom_site_symmetry_multiplicity
 _atom_site_fract_x
 _atom_site_fract_y
 _atom_site_fract_z
 _atom_site_occupancy
  V  V0  1  0.12685707  0.14020331  0.49343010  1
  V  V1  1  0.12129895  0.75203613  0.87454079  1
  V  V2  1  0.87619886  0.49828922  0.37543034  1
  V  V3  1  0.49405158  0.88206411  0.88219680  1
  V  V4  1  0.62475462  0.75110215  0.87247770  1
  V  V5  1  0.50065438  0.88358972  0.37748368  1
  V  V6  1  0.00157355  0.25794411  0.25259674  1
  V  V7  1  0.12416462  0.62408991  0.00683140  1
  V  V8  1  0.25447397  0.75115934  0.00124734  1
  V  V9  1  0.88071829  -0.01633829  0.87799690  1
  V  V10  1  0.74957941  0.49136382  0.74547725  1
  V  V11  1  0.88226419  0.62570448  0.24344724  1
  V  V12  1  0.74998329  0.62384208  0.87402472  1
  V  V13  1  0.75351554  0.00295510  0.24948561  1
  V  V14  1  0.62423752  0.24713923  0.87438318  1
  V  V15  1  0.24851759  0.25055085  -0.00078115  1
  V  V16  1  0.24774063  0.10378692  0.87780224  1
  V  V17  1  0.25125496  0.62549601  0.37494878  1
  V  V18  1  0.25005486  0.00383068  0.25398181  1
  V  V19  1  0.37552959  0.37461950  -0.00009254  1
  V  V20  1  0.37643436  0.12468069  0.25475185  1
  V  V21  1  0.37632942  0.62523833  0.25018456  1
  V  V22  1  0.12690523  0.25306532  0.87007627  1
  V  V23  1  -0.00273572  0.11826906  0.12868725  1
  V  V24  1  0.12785712  -0.00196974  0.61696002  1
  V  V25  1  0.25299154  0.36182029  0.63486806  1
  V  V26  1  0.62347597  -0.00166081  0.11810318  1
  V  V27  1  0.00489556  0.37575623  0.87069627  1
  V  V28  1  0.12254889  0.75108296  0.37438667  1
  V  V29  1  0.50707965  0.37314762  0.37488715  1
  V  V30  1  0.50336984  0.62200065  0.12562994  1
  V  V31  1  0.37347234  0.49903451  0.87183810  1
  V  V32  1  0.86123099  0.37338310  0.50448923  1
  V  V33  1  0.74667653  -0.00062837  0.73864113  1
  V  V34  1  0.87081748  0.00433141  0.38054835  1
  V  V35  1  0.00392234  0.25183283  0.74479698  1
  V  V36  1  0.49923400  0.49985068  0.50047874  1
  V  V37  1  0.87287189  0.24768283  0.12653583  1
  V  V38  1  0.48687720  0.24726731  0.74338504  1
  V  V39  1  0.13085669  0.88367310  0.74897143  1
  V  V40  1  0.24893724  0.37410622  0.12927123  1
  V  V41  1  0.87621865  0.49874773  0.87426918  1
  V  V42  1  0.12588210  0.62410813  0.50063784  1
  V  V43  1  0.75398677  0.75666684  -0.00005362  1
  V  V44  1  0.50250575  0.49948752  0.00309436  1
  V  V45  1  0.87487454  0.62910107  0.74701206  1
  V  V46  1  0.63068176  0.12243052  0.50148736  1
  V  V47  1  0.75076607  0.63338685  0.37724120  1
  V  V48  1  0.85606770  0.25420422  0.62447496  1
  V  V49  1  0.37892347  0.88304552  0.50143465  1
  V  V50  1  0.25092019  0.61963655  0.87090027  1
  V  V51  1  0.36606047  0.10534645  0.75587145  1
  V  V52  1  0.24825746  0.49623900  0.25115341  1
  V  V53  1  0.00055828  0.75463555  0.75146661  1
  V  V54  1  0.37692533  0.75151255  0.12474710  1
  V  V55  1  0.50850391  0.25065032  0.25058398  1
  V  V56  1  0.37470074  0.74858758  0.62472149  1
  V  V57  1  -0.00020972  0.50214157  0.00449609  1
  V  V58  1  0.49540318  0.10535703  0.62228235  1
  V  V59  1  0.49994234  0.11988556  0.11700897  1
  V  V60  1  0.50590207  0.75193430  0.25280492  1
  V  V61  1  0.12651001  0.88013756  0.25224790  1
  V  V62  1  0.37524933  0.50277857  0.37681582  1
  V  V63  1  0.62775867  0.48992034  0.62431445  1
  V  V64  1  0.00142968  0.49583244  0.50296227  1
  V  V65  1  0.12407019  0.49458042  0.12922680  1
  V  V66  1  0.13712156  0.49789125  0.64007016  1
  V  V67  1  0.74422277  0.50151095  0.24409713  1
  V  V68  1  0.24934305  0.88005766  0.12744120  1
  V  V69  1  0.49940602  0.37203219  0.87455726  1
  V  V70  1  0.50080849  0.62429558  0.62519938  1
  V  V71  1  0.36906850  0.36117382  0.50267338  1
  V  V72  1  0.62941277  0.63186603  0.49996926  1
  V  V73  1  0.74517334  0.14320448  0.36864174  1
  V  V74  1  0.74430487  0.37895477  0.12230279  1
  V  V75  1  0.50033246  0.74701784  0.75118462  1
  V  V76  1  -0.00188162  0.62413656  0.62778877  1
  V  V77  1  0.37539621  0.24907615  0.12275062  1
  V  V78  1  0.62614818  0.61969544  0.00502906  1
  V  V79  1  0.24889462  0.75201736  0.50214013  1
  V  V80  1  0.88292087  0.75485288  0.12077653  1
  V  V81  1  0.75477141  0.12457813  0.87577396  1
  V  V82  1  0.37305052  0.62041163  0.74999531  1
  V  V83  1  0.11898752  0.12258168  0.00377402  1
  V  V84  1  0.75196197  0.85271321  0.61592449  1
  Zn  Zn85  1  0.62581203  0.37625574  0.24866890  1
  Zn  Zn86  1  0.25325143  0.13666347  0.38515915  1
  Zn  Zn87  1  0.75258696  0.87922405  0.12276814  1
  Zn  Zn88  1  0.00524775  0.74770476  0.24400404  1
  Zn  Zn89  1  0.87740084  0.12319532  0.74770081  1
  Zn  Zn90  1  0.62296986  0.11956632  -0.00362135  1
  Zn  Zn91  1  0.37275570  0.90253229  -0.00685801  1
  Zn  Zn92  1  0.61897397  0.88319472  0.74009495  1
  Zn  Zn93  1  -0.00925944  -0.01771682  0.00618218  1
  Zn  Zn94  1  0.62757724  0.36600789  0.74267262  1
  Zn  Zn95  1  0.62651705  0.87754729  0.25083510  1
  Zn  Zn96  1  -0.00037679  0.12632614  0.62373543  1
  Zn  Zn97  1  -0.00635193  0.00173442  0.50595988  1
  Zn  Zn98  1  -0.00671757  0.87699902  0.37404678  1
  Zn  Zn99  1  0.00358963  0.36857182  0.37748945  1
  Zn  Zn100  1  0.75070289  0.25152526  -0.00084485  1
  Zn  Zn101  1  0.87354013  0.37484100  -0.00082805  1
  Zn  Zn102  1  0.25512517  0.88071083  0.62735061  1
  Zn  Zn103  1  0.86950193  0.85973436  0.49883499  1
  Zn  Zn104  1  0.37982200  0.00737943  0.38421179  1
  Zn  Zn105  1  0.16152231  0.29928450  0.33661217  1
  Zn  Zn106  1  0.63261417  0.75869280  0.38117788  1
  Zn  Zn107  1  0.18446152  0.18632687  0.18692565  1
  Zn  Zn108  1  0.18843288  0.18075971  0.68811450  1
  Zn  Zn109  1  0.18948276  0.68698905  0.18841365  1
  Zn  Zn110  1  0.18595653  0.68889222  0.68686442  1
  Zn  Zn111  1  0.68768489  0.18598571  0.18473983  1
  Zn  Zn112  1  0.67856533  0.17807680  0.68981645  1
  Zn  Zn113  1  0.69317005  0.68897574  0.18671814  1
  Zn  Zn114  1  0.68657058  0.68306108  0.68648905  1
  Zn  Zn115  1  0.32777883  0.31312021  0.31180150  1
  Zn  Zn116  1  0.31122870  0.30965946  0.81331880  1
  Zn  Zn117  1  0.31581344  0.81327607  0.31543171  1
  Zn  Zn118  1  0.31132405  0.81149818  0.81252116  1
  Zn  Zn119  1  0.81967360  0.31722398  0.30633495  1
  Zn  Zn120  1  0.81658543  0.31097375  0.81187381  1
  Zn  Zn121  1  0.81440675  0.81763527  0.30638653  1
  Zn  Zn122  1  0.80956203  0.81364182  0.80581154  1
  Zn  Zn123  1  0.18870396  0.43821465  0.44446763  1
  Zn  Zn124  1  0.18741515  0.43657096  0.93972383  1
  Zn  Zn125  1  0.19336410  0.93992685  0.43701584  1
  Zn  Zn126  1  0.15456716  0.92255573  0.95459132  1
  Zn  Zn127  1  0.68706954  0.44478529  0.43506978  1
  Zn  Zn128  1  0.68672663  0.43461239  0.93383177  1
  Zn  Zn129  1  0.68457442  0.94274938  0.44302372  1
  Zn  Zn130  1  0.68850040  0.93870185  0.93158838  1
  Zn  Zn131  1  0.30767573  0.06325167  0.06400199  1
  Zn  Zn132  1  0.30850716  0.06994735  0.56915083  1
  Zn  Zn133  1  0.31412288  0.56165238  0.06233534  1
  Zn  Zn134  1  0.31345759  0.56144625  0.56136282  1
  Zn  Zn135  1  0.81362468  0.06226148  0.05816369  1
  Zn  Zn136  1  0.81101990  0.07343273  0.55817611  1
  Zn  Zn137  1  0.81392398  0.56586838  0.06242881  1
  Zn  Zn138  1  0.81156627  0.56350170  0.56250143  1
  Zn  Zn139  1  0.43747930  0.43833820  0.18735151  1
  Zn  Zn140  1  0.43582263  0.43583996  0.68654553  1
  Zn  Zn141  1  0.43598923  0.93850224  0.18597686  1
  Zn  Zn142  1  0.43520958  0.93132083  0.69561921  1
  Zn  Zn143  1  0.93312957  0.43547744  0.18518118  1
  Zn  Zn144  1  0.93701180  0.43536023  0.68708437  1
  Zn  Zn145  1  0.93566543  0.93708127  0.19462571  1
  Zn  Zn146  1  0.93403176  0.93764299  0.68583056  1
  Zn  Zn147  1  0.06006548  0.06804140  0.31155617  1
  Zn  Zn148  1  0.06011203  0.06625360  0.81409823  1
  Zn  Zn149  1  0.06317356  0.55996478  0.31375501  1
  Zn  Zn150  1  0.06330229  0.56428882  0.81604297  1
  Zn  Zn151  1  0.56883017  0.06421005  0.30911571  1
  Zn  Zn152  1  0.56227101  0.06302452  0.81038430  1
  Zn  Zn153  1  0.56348172  0.56366719  0.31488100  1
  Zn  Zn154  1  0.56273418  0.55965706  0.81306859  1
  Zn  Zn155  1  0.46002863  0.19095631  0.44484345  1
  Zn  Zn156  1  0.43274214  0.18048867  0.93449680  1
  Zn  Zn157  1  0.44006205  0.69212356  0.43911679  1
  Zn  Zn158  1  0.43868792  0.68818820  0.93750402  1
  Zn  Zn159  1  0.93515708  0.18463021  0.44148284  1
  Zn  Zn160  1  0.93628853  0.18760386  0.94019765  1
  Zn  Zn161  1  0.93455033  0.68372045  0.43425318  1
  Zn  Zn162  1  0.93776703  0.68615345  0.93713750  1
  Zn  Zn163  1  0.06002955  0.31158251  0.06155267  1
  Zn  Zn164  1  0.06673666  0.31915876  0.56441312  1
  Zn  Zn165  1  0.06289857  0.81219453  0.06652573  1
  Zn  Zn166  1  0.02212962  0.79561583  0.54324375  1
  Zn  Zn167  1  0.56330708  0.30904906  0.06146119  1
  Zn  Zn168  1  0.55973515  0.30328808  0.55873603  1
  Zn  Zn169  1  0.56561416  0.81273312  0.06167345  1
  Zn  Zn170  1  0.56378891  0.81884239  0.56385577  1
  O  O171  1  0.10791437  0.13508008  0.11619861  1
  O  O172  1  0.12410048  0.11355642  0.61763363  1
  O  O173  1  0.13274674  0.61589246  0.11328009  1
  O  O174  1  0.11979266  0.61309629  0.62232299  1
  O  O175  1  0.61696856  0.11759732  0.12216349  1
  O  O176  1  0.60794344  0.12782959  0.61320088  1
  O  O177  1  0.62142346  0.63221386  0.11205722  1
  O  O178  1  0.62024512  0.61521708  0.61778579  1
  O  O179  1  0.38336327  0.38349922  0.38715950  1
  O  O180  1  0.37934919  0.37859635  0.88121147  1
  O  O181  1  0.38278238  0.87688423  0.38482009  1
  O  O182  1  0.38880745  0.86739869  0.87615963  1
  O  O183  1  0.88012703  0.38499617  0.38312438  1
  O  O184  1  0.88578345  0.38092952  0.87661503  1
  O  O185  1  0.87013558  0.89008279  0.37717802  1
  O  O186  1  0.87355958  0.88447786  0.86938741  1
  O  O187  1  0.25715146  0.00775609  0.36488941  1
  O  O188  1  0.23349744  0.00756509  0.88433167  1
  O  O189  1  0.25551595  0.50697473  0.37144298  1
  O  O190  1  0.25569757  0.51191555  0.88398095  1
  O  O191  1  0.75501171  0.00568695  0.36752835  1
  O  O192  1  0.76090203  0.00556916  0.86803516  1
  O  O193  1  0.76104296  0.50801257  0.36626406  1
  O  O194  1  0.75473700  0.50496103  0.86599418  1
  O  O195  1  0.24415942  0.49468807  0.12958387  1
  O  O196  1  0.23937879  0.50145035  0.62591848  1
  O  O197  1  0.25096062  0.98839017  0.13790745  1
  O  O198  1  0.23225703  0.99937755  0.62779606  1
  O  O199  1  0.75924604  0.49257266  0.13394381  1
  O  O200  1  0.73963741  0.50609183  0.63411119  1
  O  O201  1  0.74571324  1.00295606  0.13197223  1
  O  O202  1  0.75306714  1.01352922  0.63969487  1
  O  O203  1  -0.00496985  0.36195726  0.25037502  1
  O  O204  1  -0.00218510  0.36863229  0.76238853  1
  O  O205  1  0.01245935  0.87343026  0.25539646  1
  O  O206  1  0.00954127  0.85974745  0.74182494  1
  O  O207  1  0.50085792  0.37010977  0.25615296  1
  O  O208  1  0.49694203  0.35947192  0.75360149  1
  O  O209  1  0.49880424  0.86542024  0.25699014  1
  O  O210  1  0.50325728  0.86377378  0.76129171  1
  O  O211  1  0.49491623  0.13205419  0.24299650  1
  O  O212  1  0.48802366  0.13027075  0.74999496  1
  O  O213  1  0.49646436  0.63194483  0.24678213  1
  O  O214  1  0.49479267  0.62845652  0.74523646  1
  O  O215  1  1.00255325  0.13384218  0.23320908  1
  O  O216  1  0.99716001  0.13975185  0.74847820  1
  O  O217  1  0.98624171  0.62589094  0.25625731  1
  O  O218  1  0.99296450  0.62824158  0.74622287  1
  O  O219  1  0.36918002  0.25444434  0.00366554  1
  O  O220  1  0.38066919  0.26358842  0.49758691  1
  O  O221  1  0.36287688  0.74660191  0.00477550  1
  O  O222  1  0.36957039  0.75726762  0.50588613  1
  O  O223  1  0.87328789  0.25499662  0.01056103  1
  O  O224  1  0.87938496  0.25932159  0.51578670  1
  O  O225  1  0.86860852  0.73990560  0.01157042  1
  O  O226  1  0.91311477  0.75523400  0.51307986  1
  O  O227  1  0.11822973  0.23952700  0.50080338  1
  O  O228  1  0.12764211  0.24460956  0.99028947  1
  O  O229  1  0.12631571  0.74350683  0.49224641  1
  O  O230  1  0.13418391  0.74052913  0.99491845  1
  O  O231  1  0.57877580  0.21719635  0.48773419  1
  O  O232  1  0.62615106  0.24760111  0.98419201  1
  O  O233  1  0.61932806  0.73441909  0.50016359  1
  O  O234  1  0.63336454  0.74014060  0.99122206  1
  O  O235  1  0.49534880  0.24276891  0.13107979  1
  O  O236  1  0.49962196  0.23974202  0.64195342  1
  O  O237  1  0.49678390  0.74452209  0.13313782  1
  O  O238  1  0.49552272  0.74400023  0.63113199  1
  O  O239  1  0.99186835  0.24741479  0.13202095  1
  O  O240  1  1.00521192  0.25519331  0.63856351  1
  O  O241  1  0.98813472  0.74833337  0.12364847  1
  O  O242  1  1.01459972  0.73055037  0.63939221  1
  O  O243  1  -0.01342512  0.24601793  0.35612095  1
  O  O244  1  0.00633554  0.25735262  0.86866681  1
  O  O245  1  0.01558819  0.74855668  0.37048154  1
  O  O246  1  0.01272193  0.73991898  0.86629865  1
  O  O247  1  0.48855599  0.26358767  0.35976026  1
  O  O248  1  0.50524628  0.25068981  0.86729241  1
  O  O249  1  0.50207446  0.75848387  0.36565371  1
  O  O250  1  0.50888151  0.75167691  0.87033254  1
  O  O251  1  0.23331746  0.12322405  0.50187383  1
  O  O252  1  0.24073864  0.13379640  0.99516331  1
  O  O253  1  0.24546591  0.63107154  0.49426325  1
  O  O254  1  0.24408339  0.63203247  0.99335811  1
  O  O255  1  0.73498060  0.13555393  0.49350380  1
  O  O256  1  0.74700977  0.12855857  0.98681459  1
  O  O257  1  0.74235597  0.61752177  0.48877368  1
  O  O258  1  0.74368487  0.63152863  0.99383221  1
  O  O259  1  0.25669833  0.36986972  0.00663589  1
  O  O260  1  0.26499196  0.37777452  0.50662486  1
  O  O261  1  0.24516915  0.86496611  0.00955135  1
  O  O262  1  0.25899894  0.86763993  0.50266974  1
  O  O263  1  0.75213024  0.37515114  0.00710513  1
  O  O264  1  0.76226323  0.38282553  0.49491469  1
  O  O265  1  0.74606489  0.85915851  -0.00232902  1
  O  O266  1  0.74751045  0.87274294  0.51163399  1
  O  O267  1  0.13065631  0.50896864  0.23635970  1
  O  O268  1  0.12272642  0.50348331  0.73839924  1
  O  O269  1  0.13470394  0.99023426  0.26037154  1
  O  O270  1  0.11844010  0.98645099  0.74946575  1
  O  O271  1  0.64036390  0.50136780  0.25477744  1
  O  O272  1  0.63186854  0.49779578  0.74141254  1
  O  O273  1  0.63619206  1.00052194  0.23881257  1
  O  O274  1  0.64313855  0.99894974  0.75789838  1
  O  O275  1  0.36774226  0.00998621  0.25037267  1
  O  O276  1  0.37245083  0.00655337  0.75753102  1
  O  O277  1  0.37003713  0.50648444  0.25654783  1
  O  O278  1  0.38275113  0.50803652  0.75917066  1
  O  O279  1  0.86155939  -0.00071626  0.26013745  1
  O  O280  1  0.86455353  0.00277714  0.75967256  1
  O  O281  1  0.87014508  0.50598437  0.25720753  1
  O  O282  1  0.86912994  0.50692004  0.75386728  1
  O  O283  1  0.11464350  0.38847553  0.37764191  1
  O  O284  1  0.11693970  0.36554240  0.88127146  1
  O  O285  1  0.13087087  0.86566882  0.36719643  1
  O  O286  1  0.13210943  0.86046770  0.85803926  1
  O  O287  1  0.61038016  0.38157818  0.37567141  1
  O  O288  1  0.61762481  0.36486361  0.86897294  1
  O  O289  1  0.61581569  0.87445334  0.37521358  1
  O  O290  1  0.61863440  0.86145987  0.87321568  1
  O  O291  1  0.38215489  0.13015355  0.13521635  1
  O  O292  1  0.38113983  0.11818025  0.64596548  1
  O  O293  1  0.38139166  0.63115168  0.13066187  1
  O  O294  1  0.38137072  0.62835082  0.62943654  1
  O  O295  1  0.88720238  0.13524128  0.11599992  1
  O  O296  1  0.87891265  0.14386413  0.62380008  1
  O  O297  1  0.86919594  0.63645664  0.13532396  1
  O  O298  1  0.88684033  0.61427163  0.63597411  1
  O  O299  1  0.25460568  0.25415395  0.11966762  1
  O  O300  1  0.24224084  0.26350134  0.62778538  1
  O  O301  1  0.25614955  0.75561253  0.11920222  1
  O  O302  1  0.25645859  0.74883631  0.61797883  1
  O  O303  1  0.75699606  0.25628358  0.12449473  1
  O  O304  1  0.75786613  0.24744005  0.63375216  1
  O  O305  1  0.75988203  0.75252404  0.11580256  1
  O  O306  1  0.75595202  0.75328896  0.62921691  1
  O  O307  1  0.25348467  0.24589203  0.35980308  1
  O  O308  1  0.24040807  0.24897009  0.88100164  1
  O  O309  1  0.24270391  0.74476667  0.38057599  1
  O  O310  1  0.24277821  0.74192618  0.88424700  1
  O  O311  1  0.75422207  0.24165949  0.36422234  1
  O  O312  1  0.74164643  0.24279042  0.86980319  1
  O  O313  1  0.75158285  0.73700624  0.36658150  1
  O  O314  1  0.74454581  0.74431240  0.87868693  1
  O  O315  1  0.00487000  0.12750154  0.01054127  1
  O  O316  1  0.01188214  0.11983334  0.50299220  1
  O  O317  1  0.01279127  0.61321347  -0.00840430  1
  O  O318  1  0.00462347  0.61267496  0.51008390  1
  O  O319  1  0.50094433  0.13225218  0.01393366  1
  O  O320  1  0.47554972  0.10714601  0.52311508  1
  O  O321  1  0.50793225  0.62114087  0.00468899  1
  O  O322  1  0.50754832  0.61931714  0.50439354  1
  O  O323  1  0.49038032  0.37960588  0.49471706  1
  O  O324  1  0.49506714  0.37858240  0.99540593  1
  O  O325  1  0.49032586  0.86859342  0.49040329  1
  O  O326  1  0.49767541  0.86536116  0.98534575  1
  O  O327  1  0.99136965  0.38677339  0.50312877  1
  O  O328  1  0.99925810  0.38589840  0.98951018  1
  O  O329  1  0.99545149  0.88956058  0.48810945  1
  O  O330  1  1.04671266  0.88772922  0.99002106  1
  O  O331  1  0.49462216  0.49374849  0.37923778  1
  O  O332  1  0.49475949  0.49259226  0.88157817  1
  O  O333  1  0.49801131  0.98736706  0.36406321  1
  O  O334  1  0.50978986  0.97986278  0.87055735  1
  O  O335  1  0.98899123  0.50560213  0.38667851  1
  O  O336  1  0.99840478  0.49344417  0.88164509  1
  O  O337  1  0.97607119  1.01015170  0.36803812  1
  O  O338  1  0.98170483  1.00612828  0.87186442  1
  O  O339  1  -0.01127850  0.01494082  0.12528353  1
  O  O340  1  0.01152517  0.00371202  0.62837468  1
  O  O341  1  0.00813977  0.49180600  0.11373874  1
  O  O342  1  0.01002839  0.50404036  0.62141311  1
  O  O343  1  0.51119255  0.00965829  0.13439059  1
  O  O344  1  0.50394676  0.00843492  0.64414711  1
  O  O345  1  0.49472523  0.50875108  0.11667011  1
  O  O346  1  0.50794971  0.50499122  0.62119532  1
  O  O347  1  0.25800656  0.38288141  0.24294701  1
  O  O348  1  0.26362552  0.37608802  0.73361049  1
  O  O349  1  0.24831873  0.88265403  0.24736138  1
  O  O350  1  0.23543190  0.86655729  0.74464735  1
  O  O351  1  0.74931520  0.38498468  0.24286619  1
  O  O352  1  0.74906310  0.38809134  0.75419872  1
  O  O353  1  0.74587797  0.88696570  0.24552306  1
  O  O354  1  0.74883767  0.88614161  0.73755002  1
  O  O355  1  0.25905803  0.11682222  0.24397788  1
  O  O356  1  0.25956618  0.12406978  0.75992568  1
  O  O357  1  0.25719863  0.61892408  0.25545229  1
  O  O358  1  0.25557691  0.63329376  0.76427628  1
  O  O359  1  0.74368736  0.11911893  0.26251424  1
  O  O360  1  0.75025436  0.11546948  0.75900206  1
  O  O361  1  0.75903323  0.61862250  0.25616795  1
  O  O362  1  0.75815864  0.61635886  0.75405343  1
  O  O363  1  0.38204431  0.12702828  0.36272347  1
  O  O364  1  0.36229221  0.12511819  0.86505464  1
  O  O365  1  0.37141928  0.62278120  0.37065871  1
  O  O366  1  0.36846380  0.62030771  0.87138664  1
  O  O367  1  0.85395448  0.11681329  0.38534892  1
  O  O368  1  0.86428925  0.12653944  0.87088307  1
  O  O369  1  0.86806103  0.61724387  0.36845551  1
  O  O370  1  0.87097672  0.61832080  0.86585634  1
  O  O371  1  0.13319124  0.38641369  0.11665380  1
  O  O372  1  0.14150810  0.38923830  0.61992939  1
  O  O373  1  0.13971375  0.86336707  0.14269647  1
  O  O374  1  0.12460444  0.88656950  0.63677137  1
  O  O375  1  0.63938425  0.36941445  0.12567961  1
  O  O376  1  0.61688234  0.38530044  0.62163459  1
  O  O377  1  0.62690228  0.88463998  0.12730535  1
  O  O378  1  0.64250382  0.86898869  0.62768407  1
  O  O379  1  0.10763613  0.24859946  0.24696422  1
  O  O380  1  0.11927715  0.24386767  0.76266494  1
  O  O381  1  0.12809110  0.75608054  0.25873931  1
  O  O382  1  0.11855732  0.75245096  0.75771270  1
  O  O383  1  0.61150572  0.25182325  0.24485290  1
  O  O384  1  0.61249221  0.24673165  0.75859318  1
  O  O385  1  0.61481031  0.74968284  0.25136453  1
  O  O386  1  0.62044719  0.74397770  0.76109658  1
  O  O387  1  0.38628787  0.24239363  0.23987074  1
  O  O388  1  0.38512989  0.24047822  0.75610810  1
  O  O389  1  0.38418330  0.74489669  0.24567330  1
  O  O390  1  0.38032374  0.74148734  0.74441140  1
  O  O391  1  0.88430855  0.25126100  0.23503372  1
  O  O392  1  0.88333902  0.25265833  0.73609347  1
  O  O393  1  0.87696833  0.74365917  0.23852253  1
  O  O394  1  0.88431961  0.73660899  0.75781460  1
  O  O395  1  0.38234359  0.49751364  0.49431478  1
  O  O396  1  0.38163319  0.49440418  0.99313163  1
  O  O397  1  0.36444834  0.98605400  0.50352186  1
  O  O398  1  0.37946577  1.01060831  1.00248278  1
  O  O399  1  0.88164270  0.49519331  0.49588780  1
  O  O400  1  0.88545953  0.50422702  0.99342211  1
  O  O401  1  0.86871873  1.00193079  0.48776532  1
  O  O402  1  0.87514409  0.99858474  0.98419823  1
  O  O403  1  0.12308058  0.02274051  0.00114537  1
  O  O404  1  0.12366369  -0.00036940  0.51145994  1
  O  O405  1  0.12004657  0.50649439  0.00764822  1
  O  O406  1  0.11708541  0.50611343  0.50988088  1
  O  O407  1  0.63344578  0.00004104  0.01288488  1
  O  O408  1  0.61808762  0.02218759  0.49468692  1
  O  O409  1  0.61984175  0.51271681  -0.00942091  1
  O  O410  1  0.61993119  0.50824588  0.50715116  1
  O  O411  1  0.37022950  0.36918481  0.11869592  1
  O  O412  1  0.36605649  0.37987057  0.61196751  1
  O  O413  1  0.36457902  0.86891413  0.12258977  1
  O  O414  1  0.37575912  0.86760723  0.61949380  1
  O  O415  1  0.86302771  0.36750331  0.12201084  1
  O  O416  1  0.87553550  0.36410478  0.61947268  1
  O  O417  1  0.87478948  0.85935128  0.12902757  1
  O  O418  1  0.85473463  0.88266675  0.62284511  1
  O  O419  1  0.12500717  0.12127500  0.39029423  1
  O  O420  1  0.13012667  0.13463114  0.88136469  1
  O  O421  1  0.13113279  0.63110538  0.37955316  1
  O  O422  1  0.13373804  0.63065071  0.88328029  1
  O  O423  1  0.63817673  0.12435843  0.38111325  1
  O  O424  1  0.63242920  0.13106216  0.87476470  1
  O  O425  1  0.63441767  0.62512156  0.38376145  1
  O  O426  1  0.62914784  0.63244345  0.88235870  1
