# generated using pymatgen
data_V85Zn86O256
_symmetry_space_group_name_H-M   'P 1'
_cell_length_a   16.97208599
_cell_length_b   16.96107211
_cell_length_c   16.96733823
_cell_angle_alpha   89.92336096
_cell_angle_beta   90.07589797
_cell_angle_gamma   90.09820360
_symmetry_Int_Tables_number   1
_chemical_formula_structural   V85Zn86O256
_chemical_formula_sum   'V85 Zn86 O256'
_cell_volume   4884.28317463
_cell_formula_units_Z   1
loop_
 _symmetry_equiv_pos_site_id
 _symmetry_equiv_pos_as_xyz
  1  'x, y, z'
loop_
 _atom_site_type_symbol
 _atom_site_label
 _atom_site_symmetry_multiplicity
 _atom_site_fract_x
 _atom_site_fract_y
 _atom_site_fract_z
 _atom_site_occupancy
  V  V0  1  0.12597548  0.12292791  0.49819771  1
  V  V1  1  0.50184954  0.62313424  0.11845588  1
  V  V2  1  0.00577326  0.37571305  0.37425355  1
  V  V3  1  0.74808582  0.12024589  0.86696926  1
  V  V4  1  0.87435026  0.00013334  0.37310329  1
  V  V5  1  0.75139142  0.37364241  0.62226828  1
  V  V6  1  0.87498380  0.87587226  0.49948149  1
  V  V7  1  0.24977808  0.00146488  0.24258657  1
  V  V8  1  0.21388561  0.16043001  0.88205095  1
  V  V9  1  0.36911071  0.00801477  0.86197846  1
  V  V10  1  0.50098528  0.87398968  0.37589099  1
  V  V11  1  0.87819434  0.13196142  0.74791870  1
  V  V12  1  0.74704377  0.88057706  0.12416631  1
  V  V13  1  0.50149044  0.62086012  0.62329019  1
  V  V14  1  0.37577268  0.62666013  0.75311295  1
  V  V15  1  0.25112106  0.12668362  0.37198438  1
  V  V16  1  0.75130316  0.62442137  0.37478915  1
  V  V17  1  0.74585706  0.50010605  0.74662531  1
  V  V18  1  0.25131545  0.75080421  0.00351267  1
  V  V19  1  0.12857928  0.00193918  0.63219417  1
  V  V20  1  0.75299476  0.88050065  0.63051349  1
  V  V21  1  0.00200067  0.13330858  0.62797894  1
  V  V22  1  0.00107608  0.88181345  0.87980481  1
  V  V23  1  -0.00366622  0.49736278  -0.00164780  1
  V  V24  1  0.62365089  0.24905348  0.87333424  1
  V  V25  1  0.25674362  0.25552059  0.50644714  1
  V  V26  1  0.00303079  0.36867383  0.86834118  1
  V  V27  1  0.12667632  0.87482173  0.24971593  1
  V  V28  1  0.49166242  0.12590771  0.63027095  1
  V  V29  1  0.37529722  0.87788566  0.00146415  1
  V  V30  1  0.00144477  0.62006937  0.12388508  1
  V  V31  1  0.87592944  0.62668186  0.74834445  1
  V  V32  1  0.37651545  0.75206323  0.62826579  1
  V  V33  1  0.24982946  0.62470341  0.87801353  1
  V  V34  1  0.37482124  0.49781610  0.87998015  1
  V  V35  1  0.62613984  0.88039510  0.24669296  1
  V  V36  1  0.49102430  0.24484982  0.75192125  1
  V  V37  1  0.62845243  0.00122928  0.63385491  1
  V  V38  1  0.12787355  0.87851459  0.75277009  1
  V  V39  1  0.87501453  0.25528037  0.12325367  1
  V  V40  1  0.49742712  0.74776216  0.25076558  1
  V  V41  1  0.38675098  0.12666157  0.24336557  1
  V  V42  1  0.73804323  0.74759826  -0.00503095  1
  V  V43  1  0.62595661  0.12520612  0.50030242  1
  V  V44  1  0.12980081  0.73947791  0.37958328  1
  V  V45  1  0.12451194  0.61868424  0.00378227  1
  V  V46  1  0.87434339  0.49700744  0.87686980  1
  V  V47  1  0.73686385  0.62908170  0.87704986  1
  V  V48  1  0.24593341  0.74043327  0.49993447  1
  V  V49  1  0.50650341  0.87055449  0.87658531  1
  V  V50  1  0.25174402  0.88083817  0.63124852  1
  V  V51  1  0.00081492  0.75103167  0.75098043  1
  V  V52  1  0.87313208  0.62345460  0.25089842  1
  V  V53  1  0.87832843  0.88233183  0.00022229  1
  V  V54  1  0.87301637  -0.00009609  0.86765013  1
  V  V55  1  0.01017040  0.62607228  0.62139983  1
  V  V56  1  0.50088316  -0.00044544  0.50138664  1
  V  V57  1  0.00152131  0.87536697  0.37574757  1
  V  V58  1  0.75108034  0.75062687  0.50105952  1
  V  V59  1  0.37508712  0.87444736  0.50068575  1
  V  V60  1  0.62527333  0.74995425  0.37556535  1
  V  V61  1  0.62945960  0.86913306  0.75484419  1
  V  V62  1  0.50265826  0.00221707  0.01150568  1
  V  V63  1  0.62172083  0.61812920  0.49990284  1
  V  V64  1  0.12467830  0.36352539  0.74473760  1
  V  V65  1  0.00333559  0.24793361  0.24747139  1
  V  V66  1  0.62115129  0.37051540  0.24720232  1
  V  V67  1  0.87942034  0.12427978  0.24325536  1
  V  V68  1  0.87561043  0.74977847  0.12249350  1
  V  V69  1  0.12396361  0.75223313  0.87776847  1
  V  V70  1  0.62603995  0.50329604  0.11975856  1
  V  V71  1  0.37582188  -0.00063999  0.37335477  1
  V  V72  1  0.37502961  0.36785927  -0.00005461  1
  V  V73  1  0.24578051  0.49650444  0.74702233  1
  V  V74  1  0.24228688  0.37342009  0.11818330  1
  V  V75  1  0.11043134  0.01130015  0.11638177  1
  V  V76  1  0.75380891  0.25429687  0.00053236  1
  V  V77  1  0.24080656  0.49994606  0.25166588  1
  V  V78  1  0.75142705  0.12737205  0.37509286  1
  V  V79  1  0.38640701  0.24580153  0.12687743  1
  V  V80  1  0.61400309  0.24835719  0.37103563  1
  V  V81  1  0.37311880  0.61335851  0.26078845  1
  V  V82  1  0.01172806  0.50379005  0.49854662  1
  V  V83  1  0.49351154  0.39018555  0.37732451  1
  V  V84  1  0.62334751  0.11937963  0.01440132  1
  Zn  Zn85  1  0.12846438  0.25277657  0.37123335  1
  Zn  Zn86  1  0.61851246  0.49434061  0.61879094  1
  Zn  Zn87  1  0.88029823  0.25418261  0.62454455  1
  Zn  Zn88  1  0.87751156  0.75283131  0.62447346  1
  Zn  Zn89  1  0.00410800  0.74706061  0.25103243  1
  Zn  Zn90  1  0.74996156  0.49669106  0.25005641  1
  Zn  Zn91  1  0.12987333  0.50008346  0.62343615  1
  Zn  Zn92  1  0.50637100  0.50156066  -0.00383040  1
  Zn  Zn93  1  0.87539909  0.49773195  0.37778826  1
  Zn  Zn94  1  0.39063877  0.40187190  0.51354851  1
  Zn  Zn95  1  0.50588787  0.74778206  0.75651919  1
  Zn  Zn96  1  0.24834736  0.87658044  0.12273643  1
  Zn  Zn97  1  0.75273061  0.25270693  0.50068416  1
  Zn  Zn98  1  0.37392653  0.74644180  0.12733828  1
  Zn  Zn99  1  0.74723963  0.00371275  0.24345543  1
  Zn  Zn100  1  0.62243176  0.37235416  0.74573270  1
  Zn  Zn101  1  0.75106430  0.37881779  0.12247043  1
  Zn  Zn102  1  0.87961719  0.37420149  0.49919670  1
  Zn  Zn103  1  0.50020300  0.37379269  0.87398489  1
  Zn  Zn104  1  -0.00010465  0.00150778  0.50043541  1
  Zn  Zn105  1  0.36882407  0.25948985  0.63300484  1
  Zn  Zn106  1  0.12179297  0.37917656  0.24173954  1
  Zn  Zn107  1  0.19157573  0.19159604  0.17858656  1
  Zn  Zn108  1  0.19546614  0.18046027  0.69632262  1
  Zn  Zn109  1  0.18829624  0.68553033  0.19034696  1
  Zn  Zn110  1  0.19150966  0.69128866  0.69041691  1
  Zn  Zn111  1  0.69079324  0.19125511  0.19039719  1
  Zn  Zn112  1  0.68586152  0.18833450  0.68822203  1
  Zn  Zn113  1  0.68659708  0.69034933  0.18573006  1
  Zn  Zn114  1  0.68913376  0.68901153  0.68526849  1
  Zn  Zn115  1  0.31399582  0.31428018  0.30677235  1
  Zn  Zn116  1  0.30466458  0.30771070  0.81712195  1
  Zn  Zn117  1  0.31215668  0.80792998  0.31351991  1
  Zn  Zn118  1  0.31546008  0.81609473  0.81652372  1
  Zn  Zn119  1  0.81336836  0.31353092  0.31136283  1
  Zn  Zn120  1  0.81220652  0.31271946  0.81120634  1
  Zn  Zn121  1  0.81235629  0.81051791  0.31083958  1
  Zn  Zn122  1  0.81160162  0.81122712  0.81284580  1
  Zn  Zn123  1  0.22227225  0.46545271  0.45935793  1
  Zn  Zn124  1  0.18643692  0.43095883  0.93395372  1
  Zn  Zn125  1  0.19028772  0.93538692  0.43911073  1
  Zn  Zn126  1  0.19026303  0.94712889  0.93825321  1
  Zn  Zn127  1  0.68758157  0.43564905  0.43306438  1
  Zn  Zn128  1  0.68920976  0.43762008  0.93538355  1
  Zn  Zn129  1  0.68845729  0.93956076  0.43882172  1
  Zn  Zn130  1  0.68950796  0.93834556  0.94007073  1
  Zn  Zn131  1  0.30618584  0.06971566  0.05098457  1
  Zn  Zn132  1  0.31251503  0.06330898  0.56228309  1
  Zn  Zn133  1  0.31492675  0.55870795  0.06915530  1
  Zn  Zn134  1  0.31913633  0.56432695  0.56720063  1
  Zn  Zn135  1  0.81292553  0.06598507  0.05792626  1
  Zn  Zn136  1  0.81461386  0.06236423  0.56126361  1
  Zn  Zn137  1  0.80931576  0.56289742  0.05991597  1
  Zn  Zn138  1  0.81815972  0.55937646  0.55966991  1
  Zn  Zn139  1  0.43919154  0.43548903  0.18786317  1
  Zn  Zn140  1  0.43564798  0.43357715  0.69382509  1
  Zn  Zn141  1  0.43619911  0.93577562  0.18801649  1
  Zn  Zn142  1  0.44369032  0.93585291  0.68905223  1
  Zn  Zn143  1  0.93595328  0.43602934  0.18754433  1
  Zn  Zn144  1  0.93909712  0.44030863  0.68548156  1
  Zn  Zn145  1  0.93821228  0.93842323  0.18867357  1
  Zn  Zn146  1  0.94155607  0.94311017  0.68835090  1
  Zn  Zn147  1  0.06326200  0.06180134  0.30874035  1
  Zn  Zn148  1  0.06174315  0.06565284  0.81253812  1
  Zn  Zn149  1  0.06418524  0.55808601  0.30913137  1
  Zn  Zn150  1  0.06350634  0.56200760  0.81343376  1
  Zn  Zn151  1  0.56412666  0.06128157  0.31198091  1
  Zn  Zn152  1  0.55649640  0.05957645  0.81756147  1
  Zn  Zn153  1  0.56432422  0.56059224  0.30727009  1
  Zn  Zn154  1  0.55969406  0.56128129  0.80961954  1
  Zn  Zn155  1  0.43640967  0.18701419  0.43869643  1
  Zn  Zn156  1  0.43694571  0.18515440  0.94142271  1
  Zn  Zn157  1  0.43515510  0.68587348  0.44014593  1
  Zn  Zn158  1  0.43850170  0.68815364  0.93882112  1
  Zn  Zn159  1  0.93696246  0.19144194  0.43843070  1
  Zn  Zn160  1  0.93675485  0.18788671  0.93531625  1
  Zn  Zn161  1  0.94053833  0.68924922  0.43885075  1
  Zn  Zn162  1  0.93246645  0.68874724  0.93667360  1
  Zn  Zn163  1  0.05303342  0.31416661  0.06097377  1
  Zn  Zn164  1  0.07144214  0.31519229  0.55869935  1
  Zn  Zn165  1  0.06370611  0.81342101  0.06412472  1
  Zn  Zn166  1  0.06384687  0.81244753  0.56275229  1
  Zn  Zn167  1  0.56260039  0.31293827  0.06013131  1
  Zn  Zn168  1  0.56204008  0.31099476  0.56031767  1
  Zn  Zn169  1  0.55983534  0.81233698  0.06529733  1
  Zn  Zn170  1  0.56464184  0.80953388  0.56540670  1
  O  O171  1  0.13031844  0.10900095  0.13206673  1
  O  O172  1  0.12255377  0.11846022  0.62090655  1
  O  O173  1  0.11199881  0.63336472  0.11555994  1
  O  O174  1  0.11274458  0.62614984  0.63503745  1
  O  O175  1  0.63412809  0.12617676  0.11256053  1
  O  O176  1  0.62107567  0.11706837  0.62072455  1
  O  O177  1  0.61469700  0.61523556  0.13516721  1
  O  O178  1  0.61882989  0.62548356  0.61702512  1
  O  O179  1  0.39389730  0.36991270  0.36615767  1
  O  O180  1  0.37183244  0.38228657  0.88357109  1
  O  O181  1  0.38100287  0.87978117  0.37921724  1
  O  O182  1  0.38521616  0.88110568  0.88508143  1
  O  O183  1  0.88904093  0.37691647  0.37263515  1
  O  O184  1  0.88485690  0.39007576  0.86352174  1
  O  O185  1  0.88272355  0.87803690  0.37706074  1
  O  O186  1  0.88010603  0.88125853  0.88029536  1
  O  O187  1  0.25491678  0.00705682  0.36582165  1
  O  O188  1  0.26931058  -0.01148769  0.87103482  1
  O  O189  1  0.24256168  0.49210838  0.34971470  1
  O  O190  1  0.25722522  0.50506379  0.87123597  1
  O  O191  1  0.75484968  0.01077334  0.37267512  1
  O  O192  1  0.76061685  0.01029612  0.88095930  1
  O  O193  1  0.75448742  0.50972807  0.37160039  1
  O  O194  1  0.75648266  0.50683104  0.86835012  1
  O  O195  1  0.25796842  0.48220484  0.13306964  1
  O  O196  1  0.24842620  0.50956230  0.64436457  1
  O  O197  1  0.24741106  0.99981206  0.13465484  1
  O  O198  1  0.24167301  0.99229175  0.62115851  1
  O  O199  1  0.74231132  0.49887253  0.12629880  1
  O  O200  1  0.75080949  0.49469301  0.63380250  1
  O  O201  1  0.75752945  0.98424119  0.12260372  1
  O  O202  1  0.74040641  0.99077747  0.61862833  1
  O  O203  1  0.00202469  0.36834248  0.25386054  1
  O  O204  1  0.01009240  0.38441125  0.75993720  1
  O  O205  1  0.00851372  0.87191544  0.25869275  1
  O  O206  1  0.00581866  0.87123097  0.75939716  1
  O  O207  1  0.51300788  0.37838639  0.26014773  1
  O  O208  1  0.50528784  0.36251497  0.75542551  1
  O  O209  1  0.50637629  0.86981409  0.25500664  1
  O  O210  1  0.51110082  0.87159613  0.75914588  1
  O  O211  1  0.48556077  0.11447846  0.24913385  1
  O  O212  1  0.50765907  0.13251235  0.74094144  1
  O  O213  1  0.48913542  0.62716184  0.24380379  1
  O  O214  1  0.49479770  0.63026471  0.74420607  1
  O  O215  1  0.98862734  0.13427996  0.25837495  1
  O  O216  1  0.99013765  0.11982383  0.73869733  1
  O  O217  1  0.99256447  0.62600274  0.23954365  1
  O  O218  1  0.99295607  0.62959311  0.74544186  1
  O  O219  1  0.37742948  0.25750541  0.01017448  1
  O  O220  1  0.36093689  0.25008192  0.49723359  1
  O  O221  1  0.36570765  0.75814776  -0.00053386  1
  O  O222  1  0.36741527  0.75603894  0.50654309  1
  O  O223  1  0.86490575  0.23612302  0.01167296  1
  O  O224  1  0.87070618  0.25461519  0.50565107  1
  O  O225  1  0.86871207  0.75953811  0.00750549  1
  O  O226  1  0.86932105  0.75805414  0.50170775  1
  O  O227  1  0.13530828  0.23473943  0.49711890  1
  O  O228  1  0.08269092  0.21016456  1.00935941  1
  O  O229  1  0.13411764  0.76038298  0.49059604  1
  O  O230  1  0.13212108  0.74322652  0.99675423  1
  O  O231  1  0.62974733  0.24218731  0.48926774  1
  O  O232  1  0.63029839  0.23749483  0.99353614  1
  O  O233  1  0.63136358  0.74221166  0.49500826  1
  O  O234  1  0.63939094  0.75702613  1.00312454  1
  O  O235  1  0.48589666  0.25169291  0.12358224  1
  O  O236  1  0.50206471  0.24025400  0.63429808  1
  O  O237  1  0.49975549  0.74052650  0.13273564  1
  O  O238  1  0.49385073  0.74202369  0.62889706  1
  O  O239  1  0.98837874  0.25701463  0.13796767  1
  O  O240  1  1.00408250  0.23579400  0.61798449  1
  O  O241  1  0.99008239  0.74090548  0.12339031  1
  O  O242  1  0.99904424  0.74468873  0.63183187  1
  O  O243  1  0.00118312  0.25668638  0.36458486  1
  O  O244  1  -0.01215033  0.27137073  0.87615240  1
  O  O245  1  0.00926204  0.76155419  0.37484360  1
  O  O246  1  0.00346398  0.75947933  0.87121795  1
  O  O247  1  0.51190933  0.24942602  0.37601310  1
  O  O248  1  0.50861794  0.24543115  0.86938897  1
  O  O249  1  0.50489538  0.75547014  0.37094635  1
  O  O250  1  0.49791532  0.76552447  0.87817956  1
  O  O251  1  0.24586420  0.12771258  0.48872227  1
  O  O252  1  0.24793993  0.11859305  0.97038263  1
  O  O253  1  0.24805025  0.64244235  0.51243191  1
  O  O254  1  0.24343024  0.63004620  0.99940445  1
  O  O255  1  0.74472984  0.12386055  0.49000503  1
  O  O256  1  0.73986950  0.13042697  0.99019941  1
  O  O257  1  0.74473006  0.63085189  0.49596477  1
  O  O258  1  0.75700621  0.63566670  0.98860429  1
  O  O259  1  0.26004643  0.38304876  0.01088166  1
  O  O260  1  0.23704110  0.35204874  0.49423371  1
  O  O261  1  0.25819983  0.86640905  -0.00069053  1
  O  O262  1  0.25691211  0.87174728  0.51208392  1
  O  O263  1  0.74761517  0.35766827  -0.00256870  1
  O  O264  1  0.75265737  0.37833399  0.51063849  1
  O  O265  1  0.75906300  0.86848617  0.00497004  1
  O  O266  1  0.75466696  0.87098656  0.50813240  1
  O  O267  1  0.13589942  0.50272909  0.23795154  1
  O  O268  1  0.13391785  0.49658126  0.75276956  1
  O  O269  1  0.13242839  0.99267945  0.24362898  1
  O  O270  1  0.12092600  0.99503966  0.73946616  1
  O  O271  1  0.62788223  0.49081584  0.23862054  1
  O  O272  1  0.63742982  0.49843937  0.74843739  1
  O  O273  1  0.62709617  0.98483547  0.25399156  1
  O  O274  1  0.61996939  0.99193556  0.73877744  1
  O  O275  1  0.36678044  0.00490923  0.25232706  1
  O  O276  1  0.38545116  -0.00411150  0.76316580  1
  O  O277  1  0.36969835  0.50931675  0.24774485  1
  O  O278  1  0.36692372  0.50464854  0.76248522  1
  O  O279  1  0.87313002  0.00788320  0.25511945  1
  O  O280  1  0.87646121  0.00856070  0.76161128  1
  O  O281  1  0.87389946  0.51449739  0.24914551  1
  O  O282  1  0.86618895  0.50959300  0.75573639  1
  O  O283  1  0.11089446  0.37160681  0.36685432  1
  O  O284  1  0.11028838  0.37922022  0.86523374  1
  O  O285  1  0.11919485  0.87438045  0.36663122  1
  O  O286  1  0.11798721  0.87365461  0.87377929  1
  O  O287  1  0.61704281  0.36723517  0.36880348  1
  O  O288  1  0.62522867  0.35936795  0.87582921  1
  O  O289  1  0.62120689  0.86984411  0.36905814  1
  O  O290  1  0.61987298  0.88581679  0.86525985  1
  O  O291  1  0.36582788  0.13829128  0.12701419  1
  O  O292  1  0.38909593  0.12595085  0.62093231  1
  O  O293  1  0.38555484  0.62529860  0.13388165  1
  O  O294  1  0.38333358  0.63198804  0.63251251  1
  O  O295  1  0.86730774  0.13211406  0.13691345  1
  O  O296  1  0.88379513  0.12230985  0.63183629  1
  O  O297  1  0.88052546  0.63279350  0.12912017  1
  O  O298  1  0.88314200  0.62630226  0.63677142  1
  O  O299  1  0.26174954  0.26718738  0.12793017  1
  O  O300  1  0.25296335  0.23519003  0.61039753  1
  O  O301  1  0.24939818  0.75125049  0.11328416  1
  O  O302  1  0.25492394  0.76145384  0.62012376  1
  O  O303  1  0.75656307  0.25152364  0.11632728  1
  O  O304  1  0.74973084  0.26222457  0.62601302  1
  O  O305  1  0.75914940  0.75652313  0.11696474  1
  O  O306  1  0.75371576  0.76271303  0.61949334  1
  O  O307  1  0.25045644  0.23838854  0.37796054  1
  O  O308  1  0.23218937  0.26144539  0.89006477  1
  O  O309  1  0.24134323  0.75816051  0.38737639  1
  O  O310  1  0.24523777  0.74608425  0.88584159  1
  O  O311  1  0.74357533  0.23818241  0.37474413  1
  O  O312  1  0.74529131  0.24070478  0.88039687  1
  O  O313  1  0.74509204  0.74515268  0.38094084  1
  O  O314  1  0.75664720  0.74113239  0.88302679  1
  O  O315  1  0.02639709  0.15726690  0.00855064  1
  O  O316  1  0.01112357  0.12295076  0.50462011  1
  O  O317  1  0.00480255  0.61989734  0.00412190  1
  O  O318  1  -0.00333851  0.61927017  0.51090886  1
  O  O319  1  0.51667183  0.11846061  -0.00155324  1
  O  O320  1  0.50627472  0.11978979  0.50814550  1
  O  O321  1  0.49570373  0.62341105  0.01340444  1
  O  O322  1  0.50972122  0.63193782  0.51017296  1
  O  O323  1  0.50059768  0.37183558  0.48326292  1
  O  O324  1  0.48801520  0.37770259  0.99542673  1
  O  O325  1  0.49564484  0.87851213  0.49650147  1
  O  O326  1  0.49552475  0.88050462  0.99591611  1
  O  O327  1  1.00373918  0.38276318  0.49169082  1
  O  O328  1  1.00747734  0.38901555  0.98574389  1
  O  O329  1  0.99551184  0.87711888  0.49076413  1
  O  O330  1  0.98969912  0.86668214  0.99049262  1
  O  O331  1  0.50327442  0.48962840  0.37407500  1
  O  O332  1  0.48819215  0.49840976  0.87530663  1
  O  O333  1  0.49564938  0.99395838  0.38135793  1
  O  O334  1  0.49366793  0.98859288  0.88686089  1
  O  O335  1  1.00114077  0.49462830  0.38104255  1
  O  O336  1  0.99122256  0.49866264  0.88089631  1
  O  O337  1  0.99590112  0.98934065  0.37424940  1
  O  O338  1  0.99131785  0.98823353  0.87234419  1
  O  O339  1  0.01058201  0.00063922  0.12889239  1
  O  O340  1  0.01238627  0.00862705  0.62082611  1
  O  O341  1  -0.00993383  0.51067916  0.11287009  1
  O  O342  1  0.00302562  0.51008636  0.61749656  1
  O  O343  1  0.49717286  -0.00545594  0.11094691  1
  O  O344  1  0.50902250  0.00614063  0.62061780  1
  O  O345  1  0.50768771  0.50667338  0.12350923  1
  O  O346  1  0.50001304  0.51648730  0.63398340  1
  O  O347  1  0.24716938  0.38276656  0.23820889  1
  O  O348  1  0.23416699  0.38388203  0.75930385  1
  O  O349  1  0.24364763  0.88440437  0.25058797  1
  O  O350  1  0.24477167  0.86845278  0.73849774  1
  O  O351  1  0.73711139  0.37598087  0.24942142  1
  O  O352  1  0.74869498  0.38471163  0.74346267  1
  O  O353  1  0.74370362  0.87411041  0.24154943  1
  O  O354  1  0.74601074  0.87313143  0.73988007  1
  O  O355  1  0.25710183  0.11792008  0.25616899  1
  O  O356  1  0.24716679  0.13718989  0.78598498  1
  O  O357  1  0.26233272  0.61218954  0.23924429  1
  O  O358  1  0.25539791  0.62031396  0.75989822  1
  O  O359  1  0.75841367  0.12322752  0.25849728  1
  O  O360  1  0.75768401  0.12682420  0.76065586  1
  O  O361  1  0.75935926  0.62883811  0.25515765  1
  O  O362  1  0.75713505  0.62046539  0.75465305  1
  O  O363  1  0.36906024  0.11961412  0.36571761  1
  O  O364  1  0.38554811  0.10650393  0.87896148  1
  O  O365  1  0.37898207  0.62607069  0.35970375  1
  O  O366  1  0.37040383  0.61733420  0.87401004  1
  O  O367  1  0.86810538  0.12132420  0.36768011  1
  O  O368  1  0.87118950  0.11849705  0.86943936  1
  O  O369  1  0.87202375  0.62948437  0.36411990  1
  O  O370  1  0.87085084  0.61729219  0.86394815  1
  O  O371  1  0.13849325  0.36746165  0.11758365  1
  O  O372  1  0.11752642  0.38185529  0.64084719  1
  O  O373  1  0.12514815  0.88080043  0.13744079  1
  O  O374  1  0.13192541  0.88328509  0.63054100  1
  O  O375  1  0.62487221  0.38013052  0.13189119  1
  O  O376  1  0.63464806  0.37803118  0.62488528  1
  O  O377  1  0.63586575  0.86733600  0.13522827  1
  O  O378  1  0.63249700  0.88212823  0.63190424  1
  O  O379  1  0.11419519  0.24912724  0.24810143  1
  O  O380  1  0.12695359  0.26535603  0.74315790  1
  O  O381  1  0.12837975  0.76006603  0.25805307  1
  O  O382  1  0.12093361  0.75787335  0.75897719  1
  O  O383  1  0.62879245  0.25728405  0.25918338  1
  O  O384  1  0.61784710  0.24883552  0.76082363  1
  O  O385  1  0.61924709  0.75846921  0.25651617  1
  O  O386  1  0.62599663  0.76431961  0.74623876  1
  O  O387  1  0.37257692  0.24054313  0.23647773  1
  O  O388  1  0.38711743  0.25375360  0.75461663  1
  O  O389  1  0.37808612  0.73890249  0.24834501  1
  O  O390  1  0.37531923  0.74406129  0.74656962  1
  O  O391  1  0.88040642  0.24191843  0.24326329  1
  O  O392  1  0.87252380  0.23602582  0.74758859  1
  O  O393  1  0.87731330  0.74274755  0.23848679  1
  O  O394  1  0.88150550  0.74145412  0.75007601  1
  O  O395  1  0.33098922  0.49145786  0.48713689  1
  O  O396  1  0.37532069  0.49234626  0.99107894  1
  O  O397  1  0.38048441  0.99478290  0.49373484  1
  O  O398  1  0.38177840  0.99106438  0.99542680  1
  O  O399  1  0.89224561  0.49678209  0.49740376  1
  O  O400  1  0.88343909  0.50720661  0.98798451  1
  O  O401  1  0.87755118  0.99368341  0.49082922  1
  O  O402  1  0.87308817  0.98905248  0.99063082  1
  O  O403  1  0.12731603  -0.00873267  0.01873619  1
  O  O404  1  0.12777577  0.00963488  0.50843511  1
  O  O405  1  0.11583213  0.51313330  -0.00796881  1
  O  O406  1  0.11720547  0.49844225  0.50213238  1
  O  O407  1  0.62058976  0.01283837  -0.00291230  1
  O  O408  1  0.61930209  0.00411853  0.50920072  1
  O  O409  1  0.62480734  0.49183733  0.01365569  1
  O  O410  1  0.63024512  0.51513925  0.49955038  1
  O  O411  1  0.37223928  0.36482710  0.11891556  1
  O  O412  1  0.38025180  0.37135652  0.62118387  1
  O  O413  1  0.37300740  0.87050628  0.11298742  1
  O  O414  1  0.36991805  0.87326574  0.62174223  1
  O  O415  1  0.86963539  0.36137117  0.12959085  1
  O  O416  1  0.86514998  0.37436788  0.62743593  1
  O  O417  1  0.87086903  0.86792618  0.11934685  1
  O  O418  1  0.86863741  0.87960103  0.62080923  1
  O  O419  1  0.13477269  0.12203741  0.38098991  1
  O  O420  1  0.11340434  0.13885942  0.87585153  1
  O  O421  1  0.11849961  0.64129394  0.36750895  1
  O  O422  1  0.12858692  0.63272525  0.88499465  1
  O  O423  1  0.63172749  0.12923303  0.37741954  1
  O  O424  1  0.63300834  0.13073206  0.87768566  1
  O  O425  1  0.62931062  0.63063095  0.38027805  1
  O  O426  1  0.63780128  0.62094079  0.86987280  1
