# generated using pymatgen
data_V85Zn86O256
_symmetry_space_group_name_H-M   'P 1'
_cell_length_a   16.95284172
_cell_length_b   16.94196947
_cell_length_c   16.94768517
_cell_angle_alpha   89.86479364
_cell_angle_beta   89.97120401
_cell_angle_gamma   90.03954264
_symmetry_Int_Tables_number   1
_chemical_formula_structural   V85Zn86O256
_chemical_formula_sum   'V85 Zn86 O256'
_cell_volume   4867.60604652
_cell_formula_units_Z   1
loop_
 _symmetry_equiv_pos_site_id
 _symmetry_equiv_pos_as_xyz
  1  'x, y, z'
loop_
 _atom_site_type_symbol
 _atom_site_label
 _atom_site_symmetry_multiplicity
 _atom_site_fract_x
 _atom_site_fract_y
 _atom_site_fract_z
 _atom_site_occupancy
  V  V0  1  0.24765636  0.24828374  -0.00490158  1
  V  V1  1  0.75709131  0.62665720  0.37328666  1
  V  V2  1  0.25078335  0.88093010  0.63037058  1
  V  V3  1  0.12370546  0.49385343  0.12885418  1
  V  V4  1  0.62879299  0.25052390  0.88085921  1
  V  V5  1  0.37551591  -0.00501612  0.87717072  1
  V  V6  1  0.74547338  0.62919411  0.87353650  1
  V  V7  1  0.37635209  0.74734564  0.63541875  1
  V  V8  1  0.87585847  0.00083374  0.87244227  1
  V  V9  1  0.62562044  0.00094811  0.12911511  1
  V  V10  1  0.12321952  0.25807949  0.36075420  1
  V  V11  1  0.62851261  0.62652737  0.50165057  1
  V  V12  1  0.37564715  0.25008952  0.12614992  1
  V  V13  1  0.86263712  0.36389153  -0.00022185  1
  V  V14  1  0.37692649  0.12077588  0.74872800  1
  V  V15  1  0.24063148  0.12485131  0.38483013  1
  V  V16  1  -0.00555953  0.62222938  0.13127117  1
  V  V17  1  0.25140362  0.62555290  0.86413754  1
  V  V18  1  0.00181116  0.13157005  0.62110507  1
  V  V19  1  0.75535093  0.50458680  0.24896865  1
  V  V20  1  0.12963753  0.49849688  0.62299766  1
  V  V21  1  0.50959547  0.12393120  0.62526185  1
  V  V22  1  0.50565991  0.87045400  0.87715409  1
  V  V23  1  0.24759877  0.37376525  0.12538276  1
  V  V24  1  0.37341789  0.50361576  0.86985666  1
  V  V25  1  0.50019213  0.62437276  0.12380160  1
  V  V26  1  0.50950305  0.00315337  0.50534375  1
  V  V27  1  0.74434466  0.74975974  -0.00389005  1
  V  V28  1  0.24315923  0.48299091  0.75071385  1
  V  V29  1  0.62700072  0.24606352  0.38218078  1
  V  V30  1  0.86031951  0.24910952  0.13245118  1
  V  V31  1  0.63082221  0.37590503  0.24781985  1
  V  V32  1  0.76495435  0.12727193  0.37576195  1
  V  V33  1  0.63065958  0.75058719  0.37910008  1
  V  V34  1  0.24427081  0.74610117  0.49755259  1
  V  V35  1  0.49971093  0.12566542  0.12652089  1
  V  V36  1  0.87351378  0.87549258  0.49479643  1
  V  V37  1  0.87312227  0.25468631  0.60498073  1
  V  V38  1  0.12332550  -0.00260732  0.12737154  1
  V  V39  1  0.00042464  0.74937454  0.74371241  1
  V  V40  1  0.25151121  0.75602414  0.00048164  1
  V  V41  1  -0.00069459  0.00095276  -0.00194394  1
  V  V42  1  0.62698758  0.86867652  0.75213804  1
  V  V43  1  0.12388132  0.75072884  0.87288448  1
  V  V44  1  0.12528949  0.88460395  0.74951405  1
  V  V45  1  0.25137277  0.12003756  0.87048269  1
  V  V46  1  0.37353033  0.49999016  0.37772654  1
  V  V47  1  -0.00239025  0.13534155  0.13667069  1
  V  V48  1  0.49843277  0.37584189  0.37974231  1
  V  V49  1  0.87728457  0.13466603  0.74697686  1
  V  V50  1  0.75030603  0.37286499  0.60944742  1
  V  V51  1  0.37437085  0.37537952  -0.00099986  1
  V  V52  1  0.87585245  0.87532022  -0.00191759  1
  V  V53  1  0.49748765  -0.00314280  0.00192202  1
  V  V54  1  0.75038930  0.12949622  0.88037298  1
  V  V55  1  0.87618867  0.50030320  0.87440160  1
  V  V56  1  0.00599830  0.74712768  0.25375568  1
  V  V57  1  -0.00496797  0.37557635  0.36262150  1
  V  V58  1  0.50202100  0.87486732  0.37643960  1
  V  V59  1  -0.01332082  0.49616229  0.50831479  1
  V  V60  1  0.37442405  0.00215883  0.37748498  1
  V  V61  1  0.62787831  0.49921149  0.12393377  1
  V  V62  1  0.74672356  0.87749798  0.62060740  1
  V  V63  1  0.87880714  0.62485572  0.74403115  1
  V  V64  1  0.24619576  0.49367981  0.24995067  1
  V  V65  1  0.87285625  0.74985263  0.61935477  1
  V  V66  1  0.37366730  0.75632985  0.12189818  1
  V  V67  1  0.74488500  0.00234031  0.74374371  1
  V  V68  1  0.75126163  0.87591082  0.12584696  1
  V  V69  1  0.49870913  0.62664548  0.63157416  1
  V  V70  1  0.00707079  0.35894231  0.87088022  1
  V  V71  1  0.00512541  0.87316350  0.37403898  1
  V  V72  1  0.49922723  0.25005740  0.25050050  1
  V  V73  1  0.12502388  0.00498439  0.61897584  1
  V  V74  1  0.87446681  0.74507191  0.13019498  1
  V  V75  1  0.24291962  0.25779185  0.50720709  1
  V  V76  1  0.24868526  0.00075968  0.25184588  1
  V  V77  1  -0.00159496  0.49855215  0.00021273  1
  V  V78  1  0.50059294  0.37319238  0.87256916  1
  V  V79  1  0.12334380  0.62486930  -0.00106345  1
  V  V80  1  0.37637367  0.87589466  0.50379730  1
  V  V81  1  0.37361646  0.62550793  0.25094747  1
  V  V82  1  0.76779579  0.00478425  0.25360063  1
  V  V83  1  -0.00134534  0.00244616  0.49411733  1
  V  V84  1  0.12444533  0.12830571  -0.00506211  1
  Zn  Zn85  1  0.36740179  0.37908384  0.51347229  1
  Zn  Zn86  1  0.75080599  0.49640356  0.74648582  1
  Zn  Zn87  1  0.50105862  0.24993167  0.74753647  1
  Zn  Zn88  1  0.24118512  0.63123817  0.37166370  1
  Zn  Zn89  1  0.63139119  0.13062987  0.00500363  1
  Zn  Zn90  1  0.00012309  0.87745588  0.87323146  1
  Zn  Zn91  1  0.49973405  0.75192165  0.25128737  1
  Zn  Zn92  1  0.37230349  0.25569662  0.62727001  1
  Zn  Zn93  1  0.62821315  0.87444277  0.25317578  1
  Zn  Zn94  1  0.62447690  0.49723414  0.62559569  1
  Zn  Zn95  1  0.50227534  0.74545287  0.75924927  1
  Zn  Zn96  1  0.62124209  0.62810577  -0.00671842  1
  Zn  Zn97  1  0.25400502  0.87820907  0.12293241  1
  Zn  Zn98  1  0.63664727  0.12596761  0.50669048  1
  Zn  Zn99  1  0.49985208  0.50119833  -0.00192007  1
  Zn  Zn100  1  0.63334502  0.37394774  0.75034414  1
  Zn  Zn101  1  0.87230351  0.49414591  0.37563019  1
  Zn  Zn102  1  0.37392715  0.12706445  0.25314859  1
  Zn  Zn103  1  0.11373662  0.62867842  0.49929584  1
  Zn  Zn104  1  0.11439904  0.33925052  0.73650530  1
  Zn  Zn105  1  0.49731401  0.50212847  0.50453823  1
  Zn  Zn106  1  0.12979415  0.86760280  0.25586025  1
  Zn  Zn107  1  0.18743009  0.18493476  0.18634901  1
  Zn  Zn108  1  0.18746568  0.18544597  0.68976311  1
  Zn  Zn109  1  0.18649575  0.68256993  0.18474769  1
  Zn  Zn110  1  0.18216344  0.68585163  0.68077603  1
  Zn  Zn111  1  0.68622124  0.18564003  0.19446819  1
  Zn  Zn112  1  0.68963239  0.19547383  0.69165559  1
  Zn  Zn113  1  0.68567716  0.68846577  0.19091122  1
  Zn  Zn114  1  0.69053686  0.68932118  0.68678113  1
  Zn  Zn115  1  0.31156870  0.31181966  0.31622652  1
  Zn  Zn116  1  0.31349886  0.30877998  0.81115113  1
  Zn  Zn117  1  0.31462092  0.81501849  0.31325676  1
  Zn  Zn118  1  0.31259091  0.81573660  0.81427984  1
  Zn  Zn119  1  0.81262428  0.31036938  0.31416410  1
  Zn  Zn120  1  0.81378129  0.31395989  0.80822993  1
  Zn  Zn121  1  0.81481212  0.81346520  0.31249237  1
  Zn  Zn122  1  0.81292414  0.81354349  0.81024313  1
  Zn  Zn123  1  0.18263642  0.43718361  0.43593810  1
  Zn  Zn124  1  0.18539028  0.43700936  0.93824099  1
  Zn  Zn125  1  0.18626177  0.93339969  0.44079019  1
  Zn  Zn126  1  0.18551868  0.93965498  0.93729249  1
  Zn  Zn127  1  0.68426873  0.44178377  0.43639486  1
  Zn  Zn128  1  0.68631994  0.44142813  0.93701544  1
  Zn  Zn129  1  0.69151950  0.94132741  0.43609237  1
  Zn  Zn130  1  0.68780506  0.94106917  0.93730903  1
  Zn  Zn131  1  0.31426830  0.06271623  0.06232635  1
  Zn  Zn132  1  0.31586757  0.06533290  0.56290553  1
  Zn  Zn133  1  0.31048575  0.56491608  0.05847233  1
  Zn  Zn134  1  0.31245334  0.56234877  0.56948969  1
  Zn  Zn135  1  0.81601544  0.06395289  0.06496839  1
  Zn  Zn136  1  0.81687404  0.06150099  0.55984233  1
  Zn  Zn137  1  0.81097744  0.56053458  0.05938045  1
  Zn  Zn138  1  0.80965959  0.56255555  0.56041277  1
  Zn  Zn139  1  0.43817716  0.43651696  0.18927569  1
  Zn  Zn140  1  0.43630325  0.43992179  0.68850193  1
  Zn  Zn141  1  0.43737407  0.93945928  0.19152735  1
  Zn  Zn142  1  0.44070218  0.93928703  0.69083097  1
  Zn  Zn143  1  0.93479980  0.42892704  0.18492578  1
  Zn  Zn144  1  0.93807798  0.43211793  0.68788443  1
  Zn  Zn145  1  0.94176881  0.93440712  0.18528237  1
  Zn  Zn146  1  0.93672746  0.94063829  0.68492288  1
  Zn  Zn147  1  0.06265208  0.06369027  0.31575553  1
  Zn  Zn148  1  0.06225021  0.07407101  0.80779271  1
  Zn  Zn149  1  0.06225078  0.56292473  0.31928116  1
  Zn  Zn150  1  0.06227092  0.56117747  0.80947999  1
  Zn  Zn151  1  0.56524193  0.06396084  0.31437425  1
  Zn  Zn152  1  0.56497874  0.06173883  0.81253946  1
  Zn  Zn153  1  0.56349392  0.56345053  0.31255323  1
  Zn  Zn154  1  0.56499135  0.55615013  0.80745262  1
  Zn  Zn155  1  0.43208755  0.18805500  0.44116362  1
  Zn  Zn156  1  0.43975060  0.18565682  0.93926439  1
  Zn  Zn157  1  0.43646142  0.68878067  0.44389235  1
  Zn  Zn158  1  0.43394357  0.68717539  0.93864279  1
  Zn  Zn159  1  0.94422996  0.19044095  0.43502574  1
  Zn  Zn160  1  0.93496981  0.18429763  0.94084594  1
  Zn  Zn161  1  0.94030399  0.68498212  0.43782135  1
  Zn  Zn162  1  0.93621834  0.68860207  0.93666935  1
  Zn  Zn163  1  0.05814214  0.31356042  0.05739174  1
  Zn  Zn164  1  0.06494448  0.31824713  0.55399340  1
  Zn  Zn165  1  0.06199647  0.81169253  0.06246806  1
  Zn  Zn166  1  0.06116837  0.81632024  0.56303984  1
  Zn  Zn167  1  0.56389011  0.31469790  0.06076694  1
  Zn  Zn168  1  0.56039096  0.30956829  0.56461666  1
  Zn  Zn169  1  0.56252338  0.81405085  0.06456803  1
  Zn  Zn170  1  0.56464194  0.81116014  0.56405838  1
  O  O171  1  0.11647756  0.11760428  0.11748968  1
  O  O172  1  0.11624852  0.11215043  0.62804859  1
  O  O173  1  0.11505015  0.61425855  0.11891140  1
  O  O174  1  0.12382167  0.60822881  0.62029492  1
  O  O175  1  0.61939595  0.11754574  0.12587589  1
  O  O176  1  0.61558197  0.13298393  0.62416743  1
  O  O177  1  0.61293290  0.61882279  0.12805335  1
  O  O178  1  0.62064076  0.63001584  0.61582148  1
  O  O179  1  0.38367158  0.38472654  0.37303126  1
  O  O180  1  0.38078668  0.38084021  0.87981586  1
  O  O181  1  0.38417967  0.88058420  0.38279828  1
  O  O182  1  0.38593850  0.88759502  0.86782911  1
  O  O183  1  0.89032547  0.36968775  0.37300162  1
  O  O184  1  0.88259342  0.38046173  0.88277785  1
  O  O185  1  0.88491608  0.86879475  0.38644434  1
  O  O186  1  0.87634266  0.88270875  0.87959614  1
  O  O187  1  0.25042109  0.00491164  0.37208656  1
  O  O188  1  0.26288635  0.00928174  0.88666600  1
  O  O189  1  0.25898295  0.49689711  0.36540920  1
  O  O190  1  0.25176146  0.50665687  0.86945304  1
  O  O191  1  0.75007402  0.00831519  0.36039818  1
  O  O192  1  0.75602930  0.00832679  0.86499352  1
  O  O193  1  0.75082664  0.50757314  0.36701694  1
  O  O194  1  0.76375751  0.50843446  0.87513919  1
  O  O195  1  0.24288415  0.49597082  0.12929265  1
  O  O196  1  0.24048408  0.50009466  0.63652314  1
  O  O197  1  0.24272726  1.00116786  0.13254310  1
  O  O198  1  0.24149802  0.98960075  0.61565739  1
  O  O199  1  0.73632535  0.51043733  0.13300269  1
  O  O200  1  0.75337306  0.48414678  0.62434764  1
  O  O201  1  0.74569148  0.99886494  0.13454160  1
  O  O202  1  0.75879883  0.99111633  0.63397291  1
  O  O203  1  0.00350089  0.38121249  0.26246903  1
  O  O204  1  -0.00083527  0.37674512  0.76745044  1
  O  O205  1  0.00182689  0.86731239  0.25742218  1
  O  O206  1  0.00784212  0.86859571  0.74977421  1
  O  O207  1  0.50790295  0.37138090  0.25990150  1
  O  O208  1  0.50020983  0.37442023  0.76543373  1
  O  O209  1  0.50137178  0.87638545  0.26610800  1
  O  O210  1  0.51166436  0.87635477  0.75817884  1
  O  O211  1  0.49844641  0.13150836  0.24475194  1
  O  O212  1  0.49525234  0.12267970  0.74221835  1
  O  O213  1  0.48881064  0.62487217  0.24217161  1
  O  O214  1  0.51000184  0.63006517  0.73750428  1
  O  O215  1  1.00354594  0.12197935  0.23499583  1
  O  O216  1  0.98742137  0.11585195  0.73199997  1
  O  O217  1  1.00308875  0.62972086  0.23816358  1
  O  O218  1  0.98890034  0.63607259  0.75479914  1
  O  O219  1  0.36733526  0.25394266  0.00622121  1
  O  O220  1  0.35808502  0.25431211  0.49743227  1
  O  O221  1  0.36304860  0.74305307  0.01124650  1
  O  O222  1  0.36763823  0.75768839  0.51286731  1
  O  O223  1  0.87383032  0.25968508  0.00404541  1
  O  O224  1  0.87200584  0.24888068  0.50687595  1
  O  O225  1  0.86787484  0.75473006  0.00940876  1
  O  O226  1  0.88519287  0.75924784  0.51125028  1
  O  O227  1  0.13769902  0.25196855  0.48940673  1
  O  O228  1  0.13566468  0.23869431  1.00722865  1
  O  O229  1  0.14053999  0.75016636  0.51213152  1
  O  O230  1  0.13019814  0.74471064  0.99449821  1
  O  O231  1  0.62209357  0.24859752  0.48531805  1
  O  O232  1  0.62288460  0.24868730  0.98765953  1
  O  O233  1  0.62170267  0.74188823  0.48853716  1
  O  O234  1  0.64040187  0.74859776  1.00711466  1
  O  O235  1  0.49597908  0.24650285  0.12981411  1
  O  O236  1  0.49483323  0.23736981  0.62617576  1
  O  O237  1  0.49212689  0.74231689  0.12645149  1
  O  O238  1  0.49201468  0.74572347  0.62711690  1
  O  O239  1  0.99975355  0.23798817  0.12235775  1
  O  O240  1  0.98923022  0.24172248  0.61179421  1
  O  O241  1  0.99313342  0.74163134  0.12945026  1
  O  O242  1  0.99072976  0.75660992  0.63568772  1
  O  O243  1  0.01430828  0.26083921  0.37978424  1
  O  O244  1  -0.00322694  0.26033680  0.88102557  1
  O  O245  1  -0.00683411  0.75560024  0.36200886  1
  O  O246  1  0.00528245  0.75284055  0.86470895  1
  O  O247  1  0.50494387  0.25667209  0.37075079  1
  O  O248  1  0.50658290  0.25796498  0.87625948  1
  O  O249  1  0.50524801  0.76060948  0.37735526  1
  O  O250  1  0.49187881  0.76473923  0.87720864  1
  O  O251  1  0.25267675  0.13202954  0.48941120  1
  O  O252  1  0.24396075  0.13029866  0.99555610  1
  O  O253  1  0.25508987  0.64169870  0.50398237  1
  O  O254  1  0.24236712  0.63393892  0.99115600  1
  O  O255  1  0.75021591  0.11143208  0.48094850  1
  O  O256  1  0.75165812  0.11710892  0.98439981  1
  O  O257  1  0.73788772  0.62045003  0.48932411  1
  O  O258  1  0.75086704  0.63349019  0.99104332  1
  O  O259  1  0.25319633  0.36590383  0.00369770  1
  O  O260  1  0.24905380  0.36199899  0.49555920  1
  O  O261  1  0.24361544  0.86051825  0.00084136  1
  O  O262  1  0.25510843  0.86673387  0.51069031  1
  O  O263  1  0.76446852  0.37717115  -0.00670383  1
  O  O264  1  0.74870120  0.37773193  0.50949926  1
  O  O265  1  0.75528631  0.86931543  0.00470432  1
  O  O266  1  0.76113550  0.88442856  0.50786636  1
  O  O267  1  0.13577910  0.50707723  0.23894410  1
  O  O268  1  0.13031628  0.50198953  0.73953280  1
  O  O269  1  0.13211169  0.99989481  0.24254593  1
  O  O270  1  0.11746501  0.99076434  0.73940010  1
  O  O271  1  0.63026936  0.49423630  0.24413133  1
  O  O272  1  0.63238251  0.49272607  0.74289194  1
  O  O273  1  0.62933265  0.99847541  0.23904215  1
  O  O274  1  0.63876484  0.99222926  0.75226333  1
  O  O275  1  0.36427780  0.00122947  0.25756992  1
  O  O276  1  0.38140972  0.01037052  0.76285551  1
  O  O277  1  0.36748299  0.50733580  0.25520964  1
  O  O278  1  0.36050011  0.49369533  0.76373370  1
  O  O279  1  0.86617067  0.00009149  0.24365676  1
  O  O280  1  0.86640507  0.00813887  0.75258124  1
  O  O281  1  0.85770730  0.49014501  0.24640874  1
  O  O282  1  0.87821869  0.50936509  0.75697600  1
  O  O283  1  0.11935637  0.36451318  0.37121137  1
  O  O284  1  0.10750922  0.37793232  0.88074680  1
  O  O285  1  0.11062947  0.87340298  0.37596470  1
  O  O286  1  0.12531301  0.87153478  0.86451589  1
  O  O287  1  0.61702558  0.36956741  0.36813750  1
  O  O288  1  0.61688929  0.36988802  0.87806912  1
  O  O289  1  0.61920203  0.86838846  0.37829158  1
  O  O290  1  0.61693099  0.88208480  0.86684984  1
  O  O291  1  0.38144030  0.13166521  0.12805734  1
  O  O292  1  0.38215509  0.12458919  0.63604680  1
  O  O293  1  0.38083666  0.63028318  0.13142539  1
  O  O294  1  0.38635722  0.63517053  0.62156554  1
  O  O295  1  0.88846745  0.13777718  0.11711225  1
  O  O296  1  0.87896277  0.13640962  0.62696579  1
  O  O297  1  0.88450889  0.63207271  0.11773569  1
  O  O298  1  0.86541493  0.63525074  0.63442803  1
  O  O299  1  0.25481769  0.25295982  0.11688707  1
  O  O300  1  0.24886859  0.23970125  0.60936618  1
  O  O301  1  0.25566658  0.74974992  0.11775384  1
  O  O302  1  0.25711580  0.75892362  0.62029534  1
  O  O303  1  0.76110044  0.23810225  0.12414924  1
  O  O304  1  0.76292371  0.25770922  0.62386240  1
  O  O305  1  0.75723766  0.75298908  0.12047463  1
  O  O306  1  0.76315720  0.76367993  0.63013017  1
  O  O307  1  0.23999865  0.24481300  0.37990166  1
  O  O308  1  0.25819467  0.23702252  0.88897831  1
  O  O309  1  0.25698641  0.75399931  0.39368176  1
  O  O310  1  0.24642211  0.74428580  0.88025135  1
  O  O311  1  0.74124188  0.23484393  0.36440184  1
  O  O312  1  0.74330375  0.23956606  0.86754771  1
  O  O313  1  0.74006859  0.74253120  0.36687442  1
  O  O314  1  0.75979118  0.74200740  0.88488491  1
  O  O315  1  0.00913288  0.12060002  0.00564904  1
  O  O316  1  -0.00769110  0.11376771  0.50850341  1
  O  O317  1  0.00321272  0.62000373  0.00862399  1
  O  O318  1  -0.00056866  0.60279153  0.49086520  1
  O  O319  1  0.50433994  0.11384916  0.00738484  1
  O  O320  1  0.49898816  0.11807476  0.50825005  1
  O  O321  1  0.50100276  0.62393106  0.01038288  1
  O  O322  1  0.50883233  0.62588079  0.51001853  1
  O  O323  1  0.50017509  0.37769916  0.48693186  1
  O  O324  1  0.49269832  0.37816726  0.99019104  1
  O  O325  1  0.49760786  0.88262805  0.49520958  1
  O  O326  1  0.50849034  0.88722766  0.99248304  1
  O  O327  1  1.00661162  0.39139683  0.48572832  1
  O  O328  1  0.98977139  0.38023043  0.98945828  1
  O  O329  1  0.99390510  0.88018883  0.49305616  1
  O  O330  1  0.99475602  0.88214955  0.99797015  1
  O  O331  1  0.49003657  0.49345401  0.37294473  1
  O  O332  1  0.49008166  0.49459255  0.87531841  1
  O  O333  1  0.49572175  0.99409259  0.38283027  1
  O  O334  1  0.49606206  0.99454492  0.88410794  1
  O  O335  1  0.99501219  0.48866986  0.37818004  1
  O  O336  1  0.98867427  0.50029251  0.88067586  1
  O  O337  1  1.00401760  0.99188355  0.38451278  1
  O  O338  1  0.99405132  1.00387545  0.88002722  1
  O  O339  1  0.00560936  0.01003221  0.11934358  1
  O  O340  1  0.00597731  0.00599999  0.61503224  1
  O  O341  1  0.00397226  0.50377308  0.12221958  1
  O  O342  1  0.00372149  0.49507376  0.61338351  1
  O  O343  1  0.50587166  0.00255291  0.12118498  1
  O  O344  1  0.49574056  0.00914352  0.61550351  1
  O  O345  1  0.50593604  0.50880005  0.12512242  1
  O  O346  1  0.50079194  0.51261618  0.62468261  1
  O  O347  1  0.25668496  0.38682023  0.24210358  1
  O  O348  1  0.23643739  0.38083901  0.76324451  1
  O  O349  1  0.24768269  0.88700359  0.25025875  1
  O  O350  1  0.23865054  0.87058703  0.74012264  1
  O  O351  1  0.73556390  0.38368901  0.25876527  1
  O  O352  1  0.75328682  0.37684303  0.73694677  1
  O  O353  1  0.75100967  0.88888819  0.24638680  1
  O  O354  1  0.74639441  0.88300448  0.74348285  1
  O  O355  1  0.24948179  0.11361288  0.25887518  1
  O  O356  1  0.26069407  0.12421651  0.76340019  1
  O  O357  1  0.25930863  0.61528915  0.24835080  1
  O  O358  1  0.24373103  0.62150635  0.76190889  1
  O  O359  1  0.74956250  0.11170109  0.25828768  1
  O  O360  1  0.75740778  0.11869565  0.75424605  1
  O  O361  1  0.74238075  0.61537619  0.26053826  1
  O  O362  1  0.76229852  0.62658576  0.75746635  1
  O  O363  1  0.36294557  0.11898030  0.37338191  1
  O  O364  1  0.37170559  0.11607512  0.87127434  1
  O  O365  1  0.37318766  0.61834951  0.36679445  1
  O  O366  1  0.36425514  0.61455850  0.88018350  1
  O  O367  1  0.86376912  0.13506781  0.37304470  1
  O  O368  1  0.86962536  0.12186596  0.86614573  1
  O  O369  1  0.85968034  0.62415322  0.37996988  1
  O  O370  1  0.86906049  0.61860872  0.86782642  1
  O  O371  1  0.12862018  0.38727179  0.11642425  1
  O  O372  1  0.11586817  0.38958827  0.63160565  1
  O  O373  1  0.12452307  0.88890252  0.12607312  1
  O  O374  1  0.13109737  0.88322016  0.63172340  1
  O  O375  1  0.61596197  0.38659916  0.13614657  1
  O  O376  1  0.63980639  0.36913409  0.62446502  1
  O  O377  1  0.63244248  0.88361478  0.12868581  1
  O  O378  1  0.63852055  0.87082928  0.63168723  1
  O  O379  1  0.13074532  0.25028062  0.26118223  1
  O  O380  1  0.11971796  0.23215340  0.76059909  1
  O  O381  1  0.11169019  0.75122722  0.23921990  1
  O  O382  1  0.11729326  0.75811123  0.75107910  1
  O  O383  1  0.61933817  0.25857918  0.25708960  1
  O  O384  1  0.62069162  0.25397483  0.76523926  1
  O  O385  1  0.61913093  0.75357189  0.26227232  1
  O  O386  1  0.62721225  0.76446579  0.75103811  1
  O  O387  1  0.38056497  0.25068142  0.24419706  1
  O  O388  1  0.37853938  0.23417315  0.75248688  1
  O  O389  1  0.37335335  0.73997387  0.24315909  1
  O  O390  1  0.37724644  0.75571395  0.73911254  1
  O  O391  1  0.87380702  0.25937700  0.23048298  1
  O  O392  1  0.87453429  0.23693201  0.74332685  1
  O  O393  1  0.88371277  0.75463568  0.23564428  1
  O  O394  1  0.88242406  0.74552394  0.74262484  1
  O  O395  1  0.37296248  0.50051270  0.48838038  1
  O  O396  1  0.37131887  0.49359871  0.98844803  1
  O  O397  1  0.38354947  0.99474712  0.49567779  1
  O  O398  1  0.38743270  1.00349997  0.99346821  1
  O  O399  1  0.88378660  0.49734132  0.49946238  1
  O  O400  1  0.87859793  0.49018965  0.99397972  1
  O  O401  1  0.88825980  0.98673817  0.50618702  1
  O  O402  1  0.87954664  0.99510875  0.99462356  1
  O  O403  1  0.12168996  0.00828930  0.00916833  1
  O  O404  1  0.11339316  -0.00807494  0.51033014  1
  O  O405  1  0.11957638  0.50568269  0.00883982  1
  O  O406  1  0.12509316  0.49804031  0.51507068  1
  O  O407  1  0.62016480  0.00281441  0.01403978  1
  O  O408  1  0.61272138  0.00371052  0.49440832  1
  O  O409  1  0.62292224  0.50449077  0.01112614  1
  O  O410  1  0.61916178  0.51229846  0.50278877  1
  O  O411  1  0.36949498  0.37083843  0.11906148  1
  O  O412  1  0.37899312  0.37003498  0.62550388  1
  O  O413  1  0.37522060  0.86070999  0.13245615  1
  O  O414  1  0.36818163  0.87187033  0.62454366  1
  O  O415  1  0.87936466  0.36163937  0.10918338  1
  O  O416  1  0.86955316  0.36080489  0.62494140  1
  O  O417  1  0.87095994  0.86655347  0.11814862  1
  O  O418  1  0.86914072  0.86897387  0.61775150  1
  O  O419  1  0.13170895  0.13777925  0.37238582  1
  O  O420  1  0.13595711  0.11363686  0.88732215  1
  O  O421  1  0.13167738  0.61783966  0.38588410  1
  O  O422  1  0.13117586  0.63047411  0.87886058  1
  O  O423  1  0.63175952  0.13378370  0.37602666  1
  O  O424  1  0.63364487  0.13172956  0.87632220  1
  O  O425  1  0.62850422  0.63224111  0.38156941  1
  O  O426  1  0.64099071  0.61740697  0.87400314  1
