# generated using pymatgen
data_V85Zn86O256
_symmetry_space_group_name_H-M   'P 1'
_cell_length_a   17.00049185
_cell_length_b   16.97241260
_cell_length_c   16.99729005
_cell_angle_alpha   89.94806744
_cell_angle_beta   90.00453971
_cell_angle_gamma   90.00663826
_symmetry_Int_Tables_number   1
_chemical_formula_structural   V85Zn86O256
_chemical_formula_sum   'V85 Zn86 O256'
_cell_volume   4904.38516466
_cell_formula_units_Z   1
loop_
 _symmetry_equiv_pos_site_id
 _symmetry_equiv_pos_as_xyz
  1  'x, y, z'
loop_
 _atom_site_type_symbol
 _atom_site_label
 _atom_site_symmetry_multiplicity
 _atom_site_fract_x
 _atom_site_fract_y
 _atom_site_fract_z
 _atom_site_occupancy
  V  V0  1  0.74646446  0.37817114  0.62780868  1
  V  V1  1  0.86751774  0.86894336  0.49891859  1
  V  V2  1  0.87574417  0.24914040  0.12582550  1
  V  V3  1  0.25188388  0.62148076  0.37843826  1
  V  V4  1  0.75342263  0.62758638  0.38051005  1
  V  V5  1  0.12662453  0.62766770  0.50076386  1
  V  V6  1  0.00956328  0.25739529  0.75848055  1
  V  V7  1  0.74712358  0.37921807  0.12645577  1
  V  V8  1  0.24333442  0.37791555  0.63116138  1
  V  V9  1  0.12911959  0.74977845  0.37751311  1
  V  V10  1  0.87409350  0.12310607  0.25050906  1
  V  V11  1  0.49527918  0.38688890  0.38162531  1
  V  V12  1  0.36487418  0.25481750  0.12608599  1
  V  V13  1  0.38056110  0.62718302  0.75141194  1
  V  V14  1  0.50565367  0.87544966  0.87221659  1
  V  V15  1  0.12763775  0.76347592  0.87588875  1
  V  V16  1  0.12886766  0.49602567  0.12505969  1
  V  V17  1  0.74788350  0.24689062  0.00101315  1
  V  V18  1  0.00184162  0.11975052  0.12461434  1
  V  V19  1  0.49806567  -0.00078499  -0.00030027  1
  V  V20  1  0.49975454  0.25115809  0.25058957  1
  V  V21  1  0.87025115  0.74871866  0.62326466  1
  V  V22  1  -0.00116120  0.87333143  0.37401372  1
  V  V23  1  0.62428323  0.12439058  0.50051125  1
  V  V24  1  0.75125005  0.49977074  0.25554003  1
  V  V25  1  0.88395509  0.38318592  -0.01106518  1
  V  V26  1  0.74665599  -0.00383872  0.24963844  1
  V  V27  1  0.25595766  0.63393114  0.88360946  1
  V  V28  1  0.87766636  0.62084268  0.75848581  1
  V  V29  1  0.50368096  0.87400785  0.37191675  1
  V  V30  1  0.50742191  0.75319338  0.74813589  1
  V  V31  1  0.37418364  0.12513558  0.25197747  1
  V  V32  1  0.25031525  0.49599692  0.24896903  1
  V  V33  1  0.87266178  -0.00240552  0.37445060  1
  V  V34  1  0.36961244  0.86807850  0.50122983  1
  V  V35  1  -0.00005849  0.61900404  0.11910495  1
  V  V36  1  0.12121983  0.11925551  0.50785099  1
  V  V37  1  0.24920172  0.12208148  0.37540292  1
  V  V38  1  0.37457676  0.11902698  0.75048679  1
  V  V39  1  0.37389508  -0.00071278  0.37583080  1
  V  V40  1  0.00008456  0.62467641  0.62496660  1
  V  V41  1  0.62942049  0.75170958  0.37822547  1
  V  V42  1  0.75526957  0.50105474  0.75950880  1
  V  V43  1  0.00150211  -0.00139564  0.50566923  1
  V  V44  1  0.13166385  0.87611470  0.24239127  1
  V  V45  1  0.23927717  0.87167061  0.62766468  1
  V  V46  1  0.49957483  0.25578389  0.75470651  1
  V  V47  1  0.00139643  -0.00291211  -0.00745838  1
  V  V48  1  -0.00173653  0.37624564  0.37204270  1
  V  V49  1  0.74570628  0.87310040  0.63083968  1
  V  V50  1  0.12705652  0.62676069  0.00023542  1
  V  V51  1  0.62178650  0.62256415  0.50505468  1
  V  V52  1  0.12282290  0.24946883  0.37440103  1
  V  V53  1  0.50027132  0.12442672  0.62459540  1
  V  V54  1  0.36455920  0.75398046  0.12101012  1
  V  V55  1  -0.00361566  0.50109276  0.49586478  1
  V  V56  1  0.37481971  0.25271494  0.62149131  1
  V  V57  1  0.63181258  0.74579206  0.88620884  1
  V  V58  1  0.75560629  0.12166076  0.86775325  1
  V  V59  1  0.49935577  0.12560178  0.12585978  1
  V  V60  1  0.62412430  0.38061110  0.24814439  1
  V  V61  1  0.74938847  0.25018811  0.50041716  1
  V  V62  1  0.36354046  0.87332424  0.00211591  1
  V  V63  1  0.86871632  0.74663426  0.11701669  1
  V  V64  1  0.87729942  0.24132325  0.63201121  1
  V  V65  1  0.50650871  0.61847845  0.12098844  1
  V  V66  1  0.37522242  0.62185172  0.25460671  1
  V  V67  1  0.37626615  0.37641204  0.00587458  1
  V  V68  1  0.37621085  0.74831952  0.62701107  1
  V  V69  1  0.87452994  0.87558176  -0.00641518  1
  V  V70  1  0.38410259  0.49622921  0.87936070  1
  V  V71  1  0.62054227  0.25459140  0.87501861  1
  V  V72  1  0.87313771  0.37842459  0.49605935  1
  V  V73  1  0.74867041  0.12367562  0.37473631  1
  V  V74  1  0.62489929  -0.00523475  0.63365301  1
  V  V75  1  0.00576379  0.76075168  0.75511885  1
  V  V76  1  0.23085213  -0.00033534  0.74437366  1
  V  V77  1  -0.00076107  0.74922783  0.24774640  1
  V  V78  1  0.50492742  0.75256904  0.24844292  1
  V  V79  1  0.87662195  0.61954398  0.25374645  1
  V  V80  1  0.24905461  0.24830973  0.50096175  1
  V  V81  1  0.74754101  0.87231984  0.12398061  1
  V  V82  1  0.49941280  -0.00126258  0.50074408  1
  V  V83  1  0.62406528  0.25058499  0.37601553  1
  V  V84  1  0.62316938  -0.00561840  0.13046316  1
  Zn  Zn85  1  0.51544143  0.49171515  -0.00227687  1
  Zn  Zn86  1  0.75936682  0.62474341  0.88841056  1
  Zn  Zn87  1  0.13027697  0.37227983  0.24538252  1
  Zn  Zn88  1  0.13576263  -0.00474550  0.11814350  1
  Zn  Zn89  1  0.75936673  0.00358728  0.74655707  1
  Zn  Zn90  1  0.37218264  -0.00311718  0.87340530  1
  Zn  Zn91  1  0.12994114  0.13115111  -0.00187955  1
  Zn  Zn92  1  0.24741829  0.25470748  -0.00433099  1
  Zn  Zn93  1  0.61757227  0.38352736  0.75530520  1
  Zn  Zn94  1  0.00095618  0.24911896  0.24920494  1
  Zn  Zn95  1  0.24611360  0.49663470  0.75963959  1
  Zn  Zn96  1  0.12553157  0.25154636  0.87483900  1
  Zn  Zn97  1  0.36278899  0.39667408  0.49207564  1
  Zn  Zn98  1  0.25497784  -0.00531318  0.24381169  1
  Zn  Zn99  1  0.11892204  0.48984786  0.63104406  1
  Zn  Zn100  1  0.48510643  0.51310963  0.51939944  1
  Zn  Zn101  1  0.24774154  0.12901959  0.87663014  1
  Zn  Zn102  1  0.62291337  0.12407552  0.00014949  1
  Zn  Zn103  1  0.64535970  0.61743751  0.01441496  1
  Zn  Zn104  1  -0.00529525  0.11405078  0.63510808  1
  Zn  Zn105  1  0.61910005  0.50801134  0.63233675  1
  Zn  Zn106  1  0.88245733  -0.00098697  0.86596467  1
  Zn  Zn107  1  0.18686701  0.18239283  0.18824586  1
  Zn  Zn108  1  0.18463102  0.18933719  0.69132426  1
  Zn  Zn109  1  0.18680423  0.68573698  0.19101384  1
  Zn  Zn110  1  0.18775244  0.67650030  0.69431650  1
  Zn  Zn111  1  0.68456748  0.18609924  0.18809873  1
  Zn  Zn112  1  0.68567109  0.18947955  0.68747174  1
  Zn  Zn113  1  0.68832752  0.68906295  0.19204138  1
  Zn  Zn114  1  0.69038373  0.68715701  0.69349607  1
  Zn  Zn115  1  0.31308269  0.31146512  0.31497924  1
  Zn  Zn116  1  0.31392910  0.31267894  0.81289435  1
  Zn  Zn117  1  0.31411392  0.80731186  0.31244840  1
  Zn  Zn118  1  0.31351211  0.81669688  0.81109411  1
  Zn  Zn119  1  0.81267037  0.31081987  0.31297375  1
  Zn  Zn120  1  0.81175235  0.31119319  0.81200579  1
  Zn  Zn121  1  0.81245172  0.81002530  0.30610335  1
  Zn  Zn122  1  0.81288941  0.81199686  0.80875021  1
  Zn  Zn123  1  0.18459058  0.43939344  0.44029120  1
  Zn  Zn124  1  0.19823196  0.44729562  0.94595478  1
  Zn  Zn125  1  0.18742939  0.93587067  0.43724786  1
  Zn  Zn126  1  0.18606907  0.94698278  0.93120865  1
  Zn  Zn127  1  0.68539158  0.44107879  0.43668491  1
  Zn  Zn128  1  0.69120442  0.43745009  0.93999794  1
  Zn  Zn129  1  0.68587586  0.93697836  0.44204189  1
  Zn  Zn130  1  0.68641916  0.93569355  0.94081819  1
  Zn  Zn131  1  0.30981408  0.06496556  0.06395214  1
  Zn  Zn132  1  0.30971720  0.05897235  0.56442452  1
  Zn  Zn133  1  0.31474135  0.56570963  0.06453092  1
  Zn  Zn134  1  0.31278882  0.56646350  0.56284113  1
  Zn  Zn135  1  0.81331853  0.05990821  0.06016175  1
  Zn  Zn136  1  0.81077080  0.05801541  0.56046646  1
  Zn  Zn137  1  0.81229197  0.55837664  0.06150416  1
  Zn  Zn138  1  0.81029912  0.56204678  0.56596490  1
  Zn  Zn139  1  0.43634658  0.43720279  0.18969466  1
  Zn  Zn140  1  0.43259128  0.43947063  0.68893183  1
  Zn  Zn141  1  0.43411286  0.93669490  0.18687130  1
  Zn  Zn142  1  0.43694822  0.93362675  0.68608796  1
  Zn  Zn143  1  0.93740603  0.43714055  0.18419641  1
  Zn  Zn144  1  0.93498918  0.43606481  0.68543848  1
  Zn  Zn145  1  0.93712916  0.93511920  0.18471004  1
  Zn  Zn146  1  0.93367798  0.93613744  0.68959777  1
  Zn  Zn147  1  0.06060511  0.05973208  0.31464981  1
  Zn  Zn148  1  0.05802583  0.07589203  0.81162789  1
  Zn  Zn149  1  0.06379311  0.56117683  0.31112582  1
  Zn  Zn150  1  0.07289879  0.56766944  0.80716505  1
  Zn  Zn151  1  0.56110173  0.06177263  0.31209971  1
  Zn  Zn152  1  0.56433739  0.06826156  0.81518255  1
  Zn  Zn153  1  0.56564232  0.56622639  0.31210784  1
  Zn  Zn154  1  0.56668685  0.56663280  0.81271210  1
  Zn  Zn155  1  0.43847063  0.19005902  0.43678033  1
  Zn  Zn156  1  0.43289864  0.18748331  0.93876572  1
  Zn  Zn157  1  0.43838611  0.68798837  0.43863123  1
  Zn  Zn158  1  0.44295301  0.69102995  0.93958849  1
  Zn  Zn159  1  0.93623777  0.18729043  0.44069304  1
  Zn  Zn160  1  0.93871321  0.18993982  0.93713294  1
  Zn  Zn161  1  0.93936070  0.68900759  0.43584909  1
  Zn  Zn162  1  0.94324544  0.68919395  0.93811078  1
  Zn  Zn163  1  0.06372770  0.31378177  0.05932271  1
  Zn  Zn164  1  0.05997897  0.30943766  0.56158902  1
  Zn  Zn165  1  0.05858787  0.80973777  0.05946630  1
  Zn  Zn166  1  0.05667614  0.80950183  0.56243731  1
  Zn  Zn167  1  0.55929055  0.31384112  0.06200708  1
  Zn  Zn168  1  0.56065858  0.31543677  0.56399976  1
  Zn  Zn169  1  0.55913316  0.81175506  0.06147833  1
  Zn  Zn170  1  0.56166036  0.80901657  0.56010997  1
  O  O171  1  0.11071289  0.12392673  0.12371700  1
  O  O172  1  0.12129992  0.13200657  0.60940412  1
  O  O173  1  0.11779680  0.62481554  0.11938302  1
  O  O174  1  0.11711597  0.64154866  0.60764832  1
  O  O175  1  0.61779619  0.11517807  0.12346914  1
  O  O176  1  0.62043043  0.11748269  0.61930268  1
  O  O177  1  0.60998327  0.63272258  0.12994107  1
  O  O178  1  0.63536732  0.63139045  0.60693058  1
  O  O179  1  0.39167874  0.36865531  0.37771782  1
  O  O180  1  0.37416858  0.39243870  0.87917029  1
  O  O181  1  0.38090938  0.87560869  0.38301081  1
  O  O182  1  0.38707151  0.87406911  0.88376700  1
  O  O183  1  0.88367291  0.36759318  0.38605675  1
  O  O184  1  0.86820521  0.36753161  0.89093918  1
  O  O185  1  0.87728645  0.87498951  0.38066699  1
  O  O186  1  0.86557885  0.87463663  0.88997011  1
  O  O187  1  0.25703193  0.00391212  0.37249807  1
  O  O188  1  0.25363596  -0.00009837  0.85367094  1
  O  O189  1  0.23991717  0.51416432  0.36666566  1
  O  O190  1  0.26474748  0.51619967  0.87674721  1
  O  O191  1  0.75267947  0.00287060  0.37078424  1
  O  O192  1  0.74306720  0.01518500  0.87718668  1
  O  O193  1  0.74893284  0.50934040  0.36354696  1
  O  O194  1  0.75175535  0.50091564  0.86185836  1
  O  O195  1  0.24086007  0.51121196  0.13690464  1
  O  O196  1  0.25380887  0.48110864  0.61929405  1
  O  O197  1  0.24683707  1.00297782  0.13208771  1
  O  O198  1  0.25181973  0.98703949  0.63452844  1
  O  O199  1  0.75463235  0.48639980  0.13927479  1
  O  O200  1  0.74665238  0.49214431  0.63335164  1
  O  O201  1  0.74176999  0.99484325  0.12915753  1
  O  O202  1  0.74089840  0.99224685  0.62386077  1
  O  O203  1  -0.00015173  0.37400319  0.26203037  1
  O  O204  1  -0.00761159  0.35612940  0.73815724  1
  O  O205  1  0.00570359  0.86867430  0.25517800  1
  O  O206  1  0.00052419  0.85879828  0.74434350  1
  O  O207  1  0.50740730  0.37208372  0.25826487  1
  O  O208  1  0.49737701  0.35902605  0.74772627  1
  O  O209  1  0.49203248  0.86593092  0.26246151  1
  O  O210  1  0.49413138  0.86718039  0.76213381  1
  O  O211  1  0.49403669  0.13116500  0.24723750  1
  O  O212  1  0.49279247  0.13282693  0.74347654  1
  O  O213  1  0.49305341  0.63271072  0.24630423  1
  O  O214  1  0.48790019  0.63645520  0.75668385  1
  O  O215  1  0.99247664  0.12365643  0.24244588  1
  O  O216  1  1.00059446  0.14558508  0.74288991  1
  O  O217  1  0.99319618  0.62861606  0.24468875  1
  O  O218  1  0.99294716  0.62926849  0.74430048  1
  O  O219  1  0.37656507  0.25866549  0.01049410  1
  O  O220  1  0.36859084  0.24502884  0.51153876  1
  O  O221  1  0.38018258  0.75659787  0.01421493  1
  O  O222  1  0.38101765  0.75851797  0.51071084  1
  O  O223  1  0.86557987  0.25380467  0.01070477  1
  O  O224  1  0.86859026  0.25924842  0.50644260  1
  O  O225  1  0.88530143  0.75861679  0.01118554  1
  O  O226  1  0.88442613  0.75825254  0.51113650  1
  O  O227  1  0.12708891  0.24057486  0.49054625  1
  O  O228  1  0.12871690  0.25285520  0.99390265  1
  O  O229  1  0.11331527  0.74185913  0.48493736  1
  O  O230  1  0.11649406  0.74220712  0.98482167  1
  O  O231  1  0.62956196  0.24420886  0.49669062  1
  O  O232  1  0.63269996  0.25045936  0.99539074  1
  O  O233  1  0.62144468  0.73901939  0.48685657  1
  O  O234  1  0.61998346  0.74506459  0.98895489  1
  O  O235  1  0.49427324  0.24457604  0.13277761  1
  O  O236  1  0.49280187  0.24519851  0.63073427  1
  O  O237  1  0.49455179  0.74421242  0.13509088  1
  O  O238  1  0.48873691  0.75948205  0.63555490  1
  O  O239  1  0.98934666  0.24035483  0.12642909  1
  O  O240  1  0.98417150  0.24848195  0.62369190  1
  O  O241  1  0.99126225  0.73905824  0.12918243  1
  O  O242  1  0.99124741  0.74535408  0.63555917  1
  O  O243  1  0.00667531  0.25694668  0.37571973  1
  O  O244  1  -0.00016901  0.25125463  0.86227650  1
  O  O245  1  0.00751414  0.75360637  0.36670003  1
  O  O246  1  0.01078186  0.74808502  0.86294243  1
  O  O247  1  0.50635619  0.25791130  0.36988267  1
  O  O248  1  0.50843149  0.24047180  0.86654554  1
  O  O249  1  0.50622759  0.75621332  0.36798915  1
  O  O250  1  0.50941405  0.75675878  0.86927936  1
  O  O251  1  0.24095862  0.12653436  0.49566897  1
  O  O252  1  0.24986780  0.13077979  0.99555951  1
  O  O253  1  0.23610288  0.62163026  0.49167641  1
  O  O254  1  0.24431285  0.62965570  0.99295898  1
  O  O255  1  0.74389704  0.12907832  0.49333597  1
  O  O256  1  0.74733482  0.13536022  0.99716784  1
  O  O257  1  0.74545896  0.62046883  0.48639331  1
  O  O258  1  0.75687505  0.63204544  1.00121978  1
  O  O259  1  0.26942979  0.37596998  -0.00219350  1
  O  O260  1  0.25004686  0.36601316  0.50551866  1
  O  O261  1  0.26577662  0.88563194  -0.00917408  1
  O  O262  1  0.26088004  0.88109510  0.51248437  1
  O  O263  1  0.75590563  0.36423986  0.01062948  1
  O  O264  1  0.75503600  0.37257024  0.50433803  1
  O  O265  1  0.76033255  0.88322400  0.01513616  1
  O  O266  1  0.76214215  0.87707572  0.50744226  1
  O  O267  1  0.13383979  0.50141538  0.24209007  1
  O  O268  1  0.14735712  0.54170975  0.72679202  1
  O  O269  1  0.12225949  0.98244406  0.25216803  1
  O  O270  1  0.13301037  1.00550394  0.74787181  1
  O  O271  1  0.63480345  0.48906734  0.25406938  1
  O  O272  1  0.63672369  0.50045866  0.75010378  1
  O  O273  1  0.62867179  1.00267610  0.23860788  1
  O  O274  1  0.62500465  1.00549656  0.73541547  1
  O  O275  1  0.37695093  0.00623354  0.25874493  1
  O  O276  1  0.37736470  0.01110680  0.74799235  1
  O  O277  1  0.36645343  0.51454692  0.24370607  1
  O  O278  1  0.37209397  0.50901474  0.76316136  1
  O  O279  1  0.86854860  0.00328368  0.25545347  1
  O  O280  1  0.87307397  0.00030329  0.75471104  1
  O  O281  1  0.86811244  0.51162602  0.24592550  1
  O  O282  1  0.86924535  0.51135732  0.74205215  1
  O  O283  1  0.11534018  0.36481746  0.37757643  1
  O  O284  1  0.11331792  0.41499122  0.86658799  1
  O  O285  1  0.11940079  0.86617182  0.36910826  1
  O  O286  1  0.12753503  0.86168455  0.87788045  1
  O  O287  1  0.61770873  0.37044365  0.36761668  1
  O  O288  1  0.63511236  0.35834238  0.87229816  1
  O  O289  1  0.61301212  0.86707187  0.38464956  1
  O  O290  1  0.61372612  0.86442500  0.88357427  1
  O  O291  1  0.38226793  0.13408614  0.13291173  1
  O  O292  1  0.37949586  0.13184849  0.63058990  1
  O  O293  1  0.38500476  0.63727885  0.13311057  1
  O  O294  1  0.36489438  0.63807585  0.63737465  1
  O  O295  1  0.87942760  0.13081431  0.12976931  1
  O  O296  1  0.87212405  0.13878004  0.61532812  1
  O  O297  1  0.88174850  0.62899862  0.13218156  1
  O  O298  1  0.87949108  0.63298923  0.63047620  1
  O  O299  1  0.26282007  0.24629394  0.12768796  1
  O  O300  1  0.25650168  0.25696931  0.62193592  1
  O  O301  1  0.26649328  0.74328875  0.13042855  1
  O  O302  1  0.26228082  0.76445901  0.63899469  1
  O  O303  1  0.75593968  0.25477367  0.12068161  1
  O  O304  1  0.75825229  0.25606718  0.62057385  1
  O  O305  1  0.75949945  0.75762792  0.13231161  1
  O  O306  1  0.76333595  0.75599969  0.63199208  1
  O  O307  1  0.24137509  0.24413914  0.38088546  1
  O  O308  1  0.24501016  0.25071330  0.87356713  1
  O  O309  1  0.23781583  0.73801460  0.36865128  1
  O  O310  1  0.23641325  0.74704109  0.86831806  1
  O  O311  1  0.74402768  0.24423276  0.38019057  1
  O  O312  1  0.74344064  0.23986755  0.88276350  1
  O  O313  1  0.73972064  0.74125774  0.36402295  1
  O  O314  1  0.73271271  0.75390055  0.86733068  1
  O  O315  1  -0.00500473  0.11358134  0.00966025  1
  O  O316  1  0.00490421  0.11458149  0.49945498  1
  O  O317  1  0.00978669  0.62710565  0.01026230  1
  O  O318  1  0.00351474  0.61744432  0.50146681  1
  O  O319  1  0.49756571  0.11438951  0.00628119  1
  O  O320  1  0.50434036  0.11956254  0.50494575  1
  O  O321  1  0.49860374  0.62530448  0.01744828  1
  O  O322  1  0.51732772  0.62399582  0.49088324  1
  O  O323  1  0.50397026  0.37865691  0.48599233  1
  O  O324  1  0.48585687  0.37950900  1.00505474  1
  O  O325  1  0.49018445  0.87806183  0.49115776  1
  O  O326  1  0.49199253  0.88254887  0.99382990  1
  O  O327  1  0.99316156  0.38136377  0.49351346  1
  O  O328  1  0.98148029  0.36822486  1.00548804  1
  O  O329  1  0.99040950  0.88009182  0.49464434  1
  O  O330  1  0.99011693  0.88917718  1.00732441  1
  O  O331  1  0.50456658  0.48677322  0.37059367  1
  O  O332  1  0.48573059  0.51075407  0.87630041  1
  O  O333  1  0.49551289  0.99169978  0.37984031  1
  O  O334  1  0.50304918  0.99374719  0.88384027  1
  O  O335  1  1.00701489  0.49033294  0.38562363  1
  O  O336  1  1.05064359  0.46239204  0.86502850  1
  O  O337  1  0.99096459  0.99291301  0.38281447  1
  O  O338  1  0.99978080  1.00717354  0.89006016  1
  O  O339  1  -0.00069571  0.00770136  0.11717790  1
  O  O340  1  -0.00762693  -0.00238344  0.60956965  1
  O  O341  1  0.01046014  0.51319462  0.13405712  1
  O  O342  1  0.00092092  0.50509422  0.61382608  1
  O  O343  1  0.50511494  0.00223226  0.12015021  1
  O  O344  1  0.50656654  0.00218978  0.61979596  1
  O  O345  1  0.49540739  0.51684743  0.12952300  1
  O  O346  1  0.50831632  0.49015266  0.62645747  1
  O  O347  1  0.25000509  0.39118832  0.26121268  1
  O  O348  1  0.25476510  0.37707133  0.73466576  1
  O  O349  1  0.23445719  0.87150796  0.25598055  1
  O  O350  1  0.25343225  0.88820538  0.73884108  1
  O  O351  1  0.74431869  0.38010881  0.24784718  1
  O  O352  1  0.75372297  0.38376495  0.74141194  1
  O  O353  1  0.75680702  0.88236647  0.23485728  1
  O  O354  1  0.75315522  0.87837892  0.73382322  1
  O  O355  1  0.25693155  0.12408314  0.26023429  1
  O  O356  1  0.25707886  0.11082529  0.74013838  1
  O  O357  1  0.25651198  0.61880656  0.25842057  1
  O  O358  1  0.26934815  0.63391761  0.76636685  1
  O  O359  1  0.75392374  0.11819968  0.25584078  1
  O  O360  1  0.74568509  0.12700981  0.76483970  1
  O  O361  1  0.75646641  0.61739005  0.25585263  1
  O  O362  1  0.76135407  0.61791256  0.75273310  1
  O  O363  1  0.37012763  0.12006383  0.37245546  1
  O  O364  1  0.37229425  0.12322518  0.86079584  1
  O  O365  1  0.36476365  0.63831865  0.36423991  1
  O  O366  1  0.37211545  0.62391897  0.87470191  1
  O  O367  1  0.86810075  0.11911316  0.37145822  1
  O  O368  1  0.85732455  0.12542515  0.88324974  1
  O  O369  1  0.86743988  0.63556008  0.36289037  1
  O  O370  1  0.87747162  0.63376323  0.86213051  1
  O  O371  1  0.11782866  0.39121171  0.12744984  1
  O  O372  1  0.13899253  0.37137135  0.61893064  1
  O  O373  1  0.11846959  0.86974908  0.14018549  1
  O  O374  1  0.14111079  0.86510612  0.61653820  1
  O  O375  1  0.63549215  0.36631137  0.13743318  1
  O  O376  1  0.64019131  0.36978819  0.62846582  1
  O  O377  1  0.63282242  0.88357624  0.11865019  1
  O  O378  1  0.63454452  0.88232826  0.61295624  1
  O  O379  1  0.12380609  0.25176753  0.26170764  1
  O  O380  1  0.11431032  0.25609797  0.75149736  1
  O  O381  1  0.11938008  0.75719450  0.25723580  1
  O  O382  1  0.11372237  0.74243682  0.76072999  1
  O  O383  1  0.62116026  0.25912948  0.25620712  1
  O  O384  1  0.61489438  0.25011882  0.75686198  1
  O  O385  1  0.61296400  0.74486479  0.26265775  1
  O  O386  1  0.61213896  0.74373130  0.75697137  1
  O  O387  1  0.37985426  0.24591835  0.24503088  1
  O  O388  1  0.38022412  0.24118030  0.74064443  1
  O  O389  1  0.38358880  0.74369385  0.24090279  1
  O  O390  1  0.38549976  0.74707160  0.74653722  1
  O  O391  1  0.87380437  0.24298354  0.24064478  1
  O  O392  1  0.87486979  0.25094985  0.73409547  1
  O  O393  1  0.87934909  0.73973321  0.23798349  1
  O  O394  1  0.88626629  0.74373249  0.74340518  1
  O  O395  1  0.37638370  0.50824472  0.49297663  1
  O  O396  1  0.37826288  0.49818180  0.99162129  1
  O  O397  1  0.38066207  0.99089423  0.49600610  1
  O  O398  1  0.38659444  0.99296553  1.00021226  1
  O  O399  1  0.88422262  0.49020859  0.50565499  1
  O  O400  1  0.87177956  0.48184887  1.00499433  1
  O  O401  1  0.88030938  0.98944874  0.49314407  1
  O  O402  1  0.88429604  0.99298137  0.99744125  1
  O  O403  1  0.11012487  -0.00186488  0.00216080  1
  O  O404  1  0.11300859  0.00729860  0.49067938  1
  O  O405  1  0.13362647  0.51646605  0.01332578  1
  O  O406  1  0.11447545  0.51056303  0.50517427  1
  O  O407  1  0.61314857  0.00037219  0.01123874  1
  O  O408  1  0.61827080  0.00601603  0.50797869  1
  O  O409  1  0.62533762  0.50644242  -0.00478520  1
  O  O410  1  0.62636600  0.51546212  0.50158396  1
  O  O411  1  0.37897803  0.36541110  0.12167013  1
  O  O412  1  0.36610519  0.36363591  0.62028469  1
  O  O413  1  0.37919557  0.86133085  0.11955998  1
  O  O414  1  0.36914833  0.86803254  0.61738809  1
  O  O415  1  0.86562343  0.36459165  0.12494233  1
  O  O416  1  0.86446891  0.36617375  0.61344073  1
  O  O417  1  0.86880070  0.86555398  0.11793646  1
  O  O418  1  0.86725689  0.86705685  0.61664612  1
  O  O419  1  0.12740070  0.13221781  0.38137265  1
  O  O420  1  0.12954942  0.12928471  0.87983570  1
  O  O421  1  0.12924563  0.63170269  0.38030711  1
  O  O422  1  0.13592320  0.63050761  0.88492459  1
  O  O423  1  0.62884338  0.12942286  0.38016633  1
  O  O424  1  0.63407213  0.13577639  0.88058504  1
  O  O425  1  0.63484881  0.63173652  0.38126610  1
  O  O426  1  0.62806212  0.63983642  0.87735912  1
