# generated using pymatgen
data_V85Zn86O256
_symmetry_space_group_name_H-M   'P 1'
_cell_length_a   16.96602810
_cell_length_b   16.96935321
_cell_length_c   16.96051701
_cell_angle_alpha   89.94127746
_cell_angle_beta   90.06792898
_cell_angle_gamma   90.03863642
_symmetry_Int_Tables_number   1
_chemical_formula_structural   V85Zn86O256
_chemical_formula_sum   'V85 Zn86 O256'
_cell_volume   4882.96854081
_cell_formula_units_Z   1
loop_
 _symmetry_equiv_pos_site_id
 _symmetry_equiv_pos_as_xyz
  1  'x, y, z'
loop_
 _atom_site_type_symbol
 _atom_site_label
 _atom_site_symmetry_multiplicity
 _atom_site_fract_x
 _atom_site_fract_y
 _atom_site_fract_z
 _atom_site_occupancy
  V  V0  1  0.50734703  0.00565681  0.00149349  1
  V  V1  1  0.62835136  0.86910137  0.75503395  1
  V  V2  1  0.24679994  0.12496551  0.87654236  1
  V  V3  1  0.24857691  0.37283201  0.12484814  1
  V  V4  1  0.12858688  0.62562873  0.00040411  1
  V  V5  1  0.75367193  0.25119965  0.00894934  1
  V  V6  1  0.75361575  0.75268133  0.49666913  1
  V  V7  1  0.75186371  0.12666541  0.87371781  1
  V  V8  1  0.11991564  0.24922056  0.87603068  1
  V  V9  1  0.38365203  0.87291723  0.49700046  1
  V  V10  1  0.87541843  0.37239359  0.00768684  1
  V  V11  1  0.24868157  0.49950618  0.25040293  1
  V  V12  1  0.24265602  0.62742979  0.37703483  1
  V  V13  1  0.12710375  0.87482834  0.74955576  1
  V  V14  1  -0.00224457  0.12614047  0.61992893  1
  V  V15  1  0.24419378  0.12176050  0.38045328  1
  V  V16  1  0.24600264  0.24681169  0.50118446  1
  V  V17  1  -0.00542233  0.87472585  0.87835827  1
  V  V18  1  0.60892918  0.75437188  0.36821333  1
  V  V19  1  0.50155317  0.87858899  0.88007100  1
  V  V20  1  0.61831433  0.37974439  0.24575069  1
  V  V21  1  0.74888344  0.62815443  0.37460395  1
  V  V22  1  -0.00517197  -0.00501627  0.49883093  1
  V  V23  1  0.49423309  0.25697445  0.25732838  1
  V  V24  1  0.37769875  0.63646985  0.24371506  1
  V  V25  1  0.37228688  0.24910075  0.12515748  1
  V  V26  1  0.24930492  0.49937991  0.75149899  1
  V  V27  1  -0.00387297  0.50248235  0.50338841  1
  V  V28  1  0.37673990  -0.00042475  0.87837914  1
  V  V29  1  0.63339463  0.63266177  0.00146558  1
  V  V30  1  0.00069620  0.62485986  0.12320443  1
  V  V31  1  0.74708785  0.49298356  0.75022581  1
  V  V32  1  0.50767838  0.12527684  0.12591175  1
  V  V33  1  0.24515334  0.74849756  0.49816070  1
  V  V34  1  0.87826988  0.74698993  0.62062568  1
  V  V35  1  0.12272739  0.37348891  0.25072396  1
  V  V36  1  0.00724694  0.74830321  0.25398119  1
  V  V37  1  0.75341030  0.00016277  0.74859711  1
  V  V38  1  0.49860220  0.49732702  0.49998998  1
  V  V39  1  -0.00507971  0.24810811  0.74555521  1
  V  V40  1  0.24834616  0.37355828  0.62657296  1
  V  V41  1  0.37486485  0.24851384  0.62827191  1
  V  V42  1  -0.01029419  0.24652750  0.24722274  1
  V  V43  1  0.12503929  0.24623407  0.37765132  1
  V  V44  1  0.87586029  0.62470301  0.24844669  1
  V  V45  1  0.87678318  0.49383912  0.87417358  1
  V  V46  1  0.63153240  0.12764388  0.49436117  1
  V  V47  1  0.25193095  0.00014127  0.74986236  1
  V  V48  1  0.00259215  -0.00065021  -0.00296860  1
  V  V49  1  0.25406700  0.62503601  0.87808539  1
  V  V50  1  0.50167341  0.12290267  0.62342721  1
  V  V51  1  0.87248095  0.75792108  0.11459583  1
  V  V52  1  0.37241068  0.12414804  0.25079186  1
  V  V53  1  0.00103919  0.12897435  0.11686095  1
  V  V54  1  0.12787602  0.74906365  0.87728578  1
  V  V55  1  0.50450214  0.37868837  0.86888094  1
  V  V56  1  0.50081407  0.62401475  0.62947142  1
  V  V57  1  0.74689952  0.89627222  0.12438095  1
  V  V58  1  0.37490256  0.62477133  0.75388336  1
  V  V59  1  0.11928880  0.50566819  0.62436860  1
  V  V60  1  0.50518551  0.74870182  0.76418538  1
  V  V61  1  0.74354737  0.49922521  0.24552840  1
  V  V62  1  0.30617157  0.81848907  0.05943427  1
  V  V63  1  0.75494370  0.87319102  0.62250493  1
  V  V64  1  0.00191569  0.74452921  0.74392744  1
  V  V65  1  0.37483929  0.37476289  0.49919089  1
  V  V66  1  0.37908627  -0.00439159  0.37623713  1
  V  V67  1  0.86900679  -0.00735914  0.36492360  1
  V  V68  1  0.12752165  0.87442321  0.24468735  1
  V  V69  1  0.12633853  0.00414275  0.61665882  1
  V  V70  1  0.75450244  0.36590682  0.61569764  1
  V  V71  1  0.37774051  0.75041359  0.62835271  1
  V  V72  1  0.62003650  0.26257660  0.38345955  1
  V  V73  1  0.50946011  0.50153221  0.01603303  1
  V  V74  1  0.25242601  0.87498438  0.62610474  1
  V  V75  1  0.00400230  0.86991806  0.37806269  1
  V  V76  1  0.87341981  0.49663228  0.38008250  1
  V  V77  1  0.00076602  0.49360830  -0.00462297  1
  V  V78  1  0.11811218  0.37434693  0.75460833  1
  V  V79  1  0.87863510  0.62027389  0.74533703  1
  V  V80  1  0.37639644  0.49595819  0.37576218  1
  V  V81  1  0.62503578  0.49521637  0.62985697  1
  V  V82  1  0.62605783  0.25394664  0.87087955  1
  V  V83  1  0.24733893  -0.00399378  0.24399509  1
  V  V84  1  0.24586113  0.24550755  0.00060702  1
  Zn  Zn85  1  0.11880394  0.62944365  0.50139320  1
  Zn  Zn86  1  0.63499520  0.87101290  0.24935204  1
  Zn  Zn87  1  0.87252018  0.13041730  0.74208023  1
  Zn  Zn88  1  0.37714667  0.37722843  0.00123892  1
  Zn  Zn89  1  0.63233247  0.12618468  0.00920304  1
  Zn  Zn90  1  0.78379011  0.16285173  0.39362643  1
  Zn  Zn91  1  0.62222099  0.62586553  0.50038642  1
  Zn  Zn92  1  0.13147449  0.00104583  0.11273350  1
  Zn  Zn93  1  0.50368086  -0.00585296  0.49919162  1
  Zn  Zn94  1  0.37620154  0.49818060  0.88006338  1
  Zn  Zn95  1  0.75152403  0.76768263  -0.01395035  1
  Zn  Zn96  1  0.51596842  0.64779106  0.14328701  1
  Zn  Zn97  1  0.87232261  0.34032125  0.50053741  1
  Zn  Zn98  1  0.74472648  0.63064065  0.87150078  1
  Zn  Zn99  1  0.74809952  0.37339437  0.12819550  1
  Zn  Zn100  1  0.87444947  -0.00307365  0.87628984  1
  Zn  Zn101  1  -0.00370441  0.37082739  0.37777594  1
  Zn  Zn102  1  0.50550747  0.25319440  0.74853811  1
  Zn  Zn103  1  0.38010236  0.12537387  0.75117320  1
  Zn  Zn104  1  0.86099922  0.11373671  0.23958664  1
  Zn  Zn105  1  0.12413720  0.49903136  0.12483740  1
  Zn  Zn106  1  0.62668133  -0.00119144  0.61996399  1
  Zn  Zn107  1  0.18256137  0.18258611  0.18874389  1
  Zn  Zn108  1  0.18567336  0.18487538  0.69042106  1
  Zn  Zn109  1  0.19274664  0.68872661  0.18457760  1
  Zn  Zn110  1  0.18999013  0.68756920  0.68771510  1
  Zn  Zn111  1  0.68939156  0.18741086  0.20245932  1
  Zn  Zn112  1  0.68438811  0.18711522  0.68658290  1
  Zn  Zn113  1  0.68840534  0.68907602  0.18454911  1
  Zn  Zn114  1  0.68917629  0.68287123  0.68843059  1
  Zn  Zn115  1  0.30978923  0.31246736  0.31366945  1
  Zn  Zn116  1  0.31352149  0.31453308  0.81496445  1
  Zn  Zn117  1  0.31136796  0.81320372  0.31292575  1
  Zn  Zn118  1  0.31703995  0.81150630  0.82160405  1
  Zn  Zn119  1  0.80832093  0.31191149  0.31778193  1
  Zn  Zn120  1  0.81179995  0.31527594  0.81413414  1
  Zn  Zn121  1  0.81829755  0.81596895  0.30496522  1
  Zn  Zn122  1  0.81532575  0.80932973  0.80912044  1
  Zn  Zn123  1  0.18697115  0.43677141  0.43885024  1
  Zn  Zn124  1  0.18718753  0.43521926  0.93820729  1
  Zn  Zn125  1  0.18753799  0.93111650  0.43379252  1
  Zn  Zn126  1  0.18315556  0.93956616  0.93659650  1
  Zn  Zn127  1  0.68312225  0.43667228  0.43726424  1
  Zn  Zn128  1  0.68811800  0.43973928  0.93916664  1
  Zn  Zn129  1  0.68407589  0.93591278  0.43735128  1
  Zn  Zn130  1  0.68916442  0.93970022  0.94068948  1
  Zn  Zn131  1  0.31757384  0.06140576  0.06073397  1
  Zn  Zn132  1  0.31409172  0.06137092  0.56109202  1
  Zn  Zn133  1  0.31563164  0.55868074  0.06289797  1
  Zn  Zn134  1  0.31097274  0.56277854  0.56549203  1
  Zn  Zn135  1  0.82266188  0.06455260  0.05752432  1
  Zn  Zn136  1  0.81602737  0.06071755  0.55746558  1
  Zn  Zn137  1  0.81484358  0.56242123  0.06420249  1
  Zn  Zn138  1  0.80974607  0.56232022  0.56315199  1
  Zn  Zn139  1  0.43230373  0.43936684  0.18829397  1
  Zn  Zn140  1  0.43538694  0.43787095  0.68925361  1
  Zn  Zn141  1  0.43500649  0.93633945  0.18084596  1
  Zn  Zn142  1  0.43915570  0.93770351  0.68910026  1
  Zn  Zn143  1  0.93643486  0.43842309  0.18839350  1
  Zn  Zn144  1  0.93436184  0.43093516  0.68202374  1
  Zn  Zn145  1  0.94306933  0.93620733  0.18285817  1
  Zn  Zn146  1  0.93921034  0.93500980  0.68844913  1
  Zn  Zn147  1  0.05815766  0.06085869  0.30819702  1
  Zn  Zn148  1  0.06318654  0.06295696  0.80852581  1
  Zn  Zn149  1  0.06001917  0.55987975  0.31530377  1
  Zn  Zn150  1  0.06228179  0.56110089  0.81394971  1
  Zn  Zn151  1  0.56105743  0.06943749  0.31582692  1
  Zn  Zn152  1  0.56882016  0.06376280  0.80968640  1
  Zn  Zn153  1  0.56082529  0.56485898  0.31488953  1
  Zn  Zn154  1  0.56506150  0.56276796  0.81875999  1
  Zn  Zn155  1  0.43542179  0.18343924  0.43979924  1
  Zn  Zn156  1  0.43611920  0.18937221  0.93907760  1
  Zn  Zn157  1  0.43077113  0.68165158  0.43845542  1
  Zn  Zn158  1  0.44742178  0.70775853  0.99031867  1
  Zn  Zn159  1  0.94913129  0.17716456  0.43677506  1
  Zn  Zn160  1  0.93555188  0.18770139  0.93577444  1
  Zn  Zn161  1  0.93763904  0.68436973  0.43678905  1
  Zn  Zn162  1  0.93772489  0.68283233  0.93186886  1
  Zn  Zn163  1  0.06207458  0.31041145  0.06267257  1
  Zn  Zn164  1  0.05953951  0.31734591  0.56198237  1
  Zn  Zn165  1  0.06485357  0.81341129  0.06298232  1
  Zn  Zn166  1  0.06430758  0.81555019  0.56355628  1
  Zn  Zn167  1  0.56316181  0.31120531  0.06064891  1
  Zn  Zn168  1  0.56165573  0.31572306  0.56675899  1
  Zn  Zn169  1  0.56979582  0.81509356  0.06474719  1
  Zn  Zn170  1  0.56796468  0.80682706  0.56548516  1
  O  O171  1  0.10751551  0.11738761  0.13383421  1
  O  O172  1  0.11696529  0.11093830  0.63182009  1
  O  O173  1  0.12029476  0.62370693  0.11494817  1
  O  O174  1  0.13095621  0.60933249  0.62523920  1
  O  O175  1  0.61117675  0.13349223  0.13189465  1
  O  O176  1  0.61778234  0.12619445  0.61383050  1
  O  O177  1  0.62522685  0.62616672  0.11239364  1
  O  O178  1  0.61973452  0.61450611  0.62326670  1
  O  O179  1  0.36603807  0.38762827  0.38213175  1
  O  O180  1  0.38904635  0.37388005  0.87944020  1
  O  O181  1  0.36971802  0.88329023  0.38533505  1
  O  O182  1  0.38902308  0.88890678  0.86734390  1
  O  O183  1  0.87098935  0.39157901  0.37610772  1
  O  O184  1  0.87116033  0.38787083  0.88554268  1
  O  O185  1  0.89276651  0.88057436  0.36916389  1
  O  O186  1  0.89165556  0.87485833  0.86598612  1
  O  O187  1  0.25523422  0.00610820  0.37000795  1
  O  O188  1  0.25695776  0.00663056  0.87137075  1
  O  O189  1  0.25695237  0.50669481  0.37276358  1
  O  O190  1  0.24888603  0.50784928  0.86953064  1
  O  O191  1  0.77040069  -0.01638457  0.37980721  1
  O  O192  1  0.75056318  0.00835763  0.86644602  1
  O  O193  1  0.75328953  0.51051630  0.37109651  1
  O  O194  1  0.75827303  0.49969754  0.86503583  1
  O  O195  1  0.24643271  0.49136382  0.13196713  1
  O  O196  1  0.24222451  0.49312749  0.63139549  1
  O  O197  1  0.24965563  1.01145871  0.14017298  1
  O  O198  1  0.24488019  0.99595458  0.62882587  1
  O  O199  1  0.75446151  0.50119053  0.14364272  1
  O  O200  1  0.74281210  0.49469769  0.63060146  1
  O  O201  1  0.75666589  0.99563216  0.12327190  1
  O  O202  1  0.75260493  0.98952217  0.62973579  1
  O  O203  1  0.00907464  0.36847255  0.25005348  1
  O  O204  1  0.01127232  0.36523567  0.74203823  1
  O  O205  1  0.00780394  0.86594896  0.25595934  1
  O  O206  1  0.00752298  0.86455231  0.75559981  1
  O  O207  1  0.50226172  0.36575205  0.24459766  1
  O  O208  1  0.49812652  0.37448159  0.76446780  1
  O  O209  1  0.52306675  0.91887786  0.25433978  1
  O  O210  1  0.50962002  0.86857372  0.75613203  1
  O  O211  1  0.49144039  0.13638474  0.24384818  1
  O  O212  1  0.50222966  0.12910808  0.73751304  1
  O  O213  1  0.48338747  0.61838399  0.25019487  1
  O  O214  1  0.49652053  0.63162202  0.75126984  1
  O  O215  1  0.99436239  0.13350932  0.24353553  1
  O  O216  1  0.99795957  0.13112150  0.74028196  1
  O  O217  1  0.99770568  0.62968940  0.24550607  1
  O  O218  1  0.99308073  0.63444953  0.75440300  1
  O  O219  1  0.36239859  0.25180788  0.00657587  1
  O  O220  1  0.36873874  0.25411313  0.50963629  1
  O  O221  1  0.35194345  0.76383917  -0.01583489  1
  O  O222  1  0.36806576  0.75516282  0.50739832  1
  O  O223  1  0.86677988  0.26286528  -0.00936314  1
  O  O224  1  0.86036787  0.24309274  0.44650604  1
  O  O225  1  0.88308541  0.74374013  0.01352076  1
  O  O226  1  0.86693400  0.74165526  0.51005227  1
  O  O227  1  0.12958205  0.25871791  0.48582403  1
  O  O228  1  0.13494610  0.25639969  0.98897511  1
  O  O229  1  0.14058639  0.74706656  0.51112282  1
  O  O230  1  0.11502212  0.73731683  0.98792795  1
  O  O231  1  0.61010326  0.24637534  0.48868937  1
  O  O232  1  0.63565514  0.24818844  0.98991153  1
  O  O233  1  0.63582267  0.74627544  0.49010965  1
  O  O234  1  0.63334528  0.73592291  0.99861453  1
  O  O235  1  0.49181957  0.24406648  0.13235674  1
  O  O236  1  0.49120624  0.24445397  0.62634066  1
  O  O237  1  0.48963418  0.74367985  0.09201700  1
  O  O238  1  0.49693594  0.74370203  0.63727082  1
  O  O239  1  1.00595143  0.23769660  0.13197918  1
  O  O240  1  1.01127712  0.23794827  0.63201958  1
  O  O241  1  0.99264058  0.74544391  0.13205623  1
  O  O242  1  0.99251823  0.75669548  0.63396616  1
  O  O243  1  0.01256932  0.24907984  0.36484677  1
  O  O244  1  0.01377062  0.23903130  0.86490906  1
  O  O245  1  -0.00658085  0.75407281  0.36356965  1
  O  O246  1  0.00826198  0.75372559  0.86486499  1
  O  O247  1  0.49807912  0.24741754  0.36414067  1
  O  O248  1  0.50715988  0.26049933  0.87778610  1
  O  O249  1  0.51123191  0.74282511  0.38276494  1
  O  O250  1  0.49555242  0.76162059  0.86743516  1
  O  O251  1  0.25346255  0.12981260  0.48879378  1
  O  O252  1  0.25462421  0.13421392  0.98968049  1
  O  O253  1  0.25134629  0.63190725  0.49443510  1
  O  O254  1  0.23716375  0.61439560  0.99154065  1
  O  O255  1  0.73674570  0.12135542  0.49717656  1
  O  O256  1  0.75302487  0.13271454  0.99080233  1
  O  O257  1  0.74851776  0.63345256  0.49039099  1
  O  O258  1  0.73870437  0.61560514  0.99980439  1
  O  O259  1  0.25087808  0.36481674  0.00603767  1
  O  O260  1  0.25494244  0.36771045  0.50703869  1
  O  O261  1  0.24447032  0.88431212  0.01138802  1
  O  O262  1  0.25855026  0.86585701  0.50517581  1
  O  O263  1  0.75617969  0.36887992  0.00344911  1
  O  O264  1  0.74967674  0.37983088  0.51172571  1
  O  O265  1  0.75104636  0.87889967  0.01494748  1
  O  O266  1  0.74537981  0.86319094  0.51167190  1
  O  O267  1  0.12862543  0.48926946  0.25067920  1
  O  O268  1  0.12653918  0.49222582  0.74543743  1
  O  O269  1  0.13351433  0.99175562  0.25219269  1
  O  O270  1  0.13222183  0.99307707  0.74162007  1
  O  O271  1  0.63104669  0.49096109  0.26211912  1
  O  O272  1  0.63545053  0.50677346  0.74192062  1
  O  O273  1  0.58418474  0.98277045  0.24471519  1
  O  O274  1  0.63824472  0.99095666  0.74493339  1
  O  O275  1  0.36524689  0.00296936  0.25845148  1
  O  O276  1  0.37048995  0.00274758  0.75907885  1
  O  O277  1  0.36717545  0.50359999  0.26030004  1
  O  O278  1  0.36792168  0.50692401  0.75414267  1
  O  O279  1  0.88238693  -0.00449965  0.26115448  1
  O  O280  1  0.86240035  -0.00105389  0.75085464  1
  O  O281  1  0.86695271  0.50481703  0.25975505  1
  O  O282  1  0.87278587  0.50282376  0.75371065  1
  O  O283  1  0.12697701  0.36606055  0.36460947  1
  O  O284  1  0.13012580  0.36431660  0.86361191  1
  O  O285  1  0.11427578  0.87487682  0.36284735  1
  O  O286  1  0.11965133  0.86498399  0.86829223  1
  O  O287  1  0.61290254  0.36880288  0.37022632  1
  O  O288  1  0.61341613  0.36844708  0.88076084  1
  O  O289  1  0.63004457  0.85678784  0.37412293  1
  O  O290  1  0.61839687  0.88244087  0.86196745  1
  O  O291  1  0.38130591  0.13164102  0.13205201  1
  O  O292  1  0.38275792  0.13287407  0.62384788  1
  O  O293  1  0.36841802  0.62204792  0.14309816  1
  O  O294  1  0.38004490  0.62938195  0.63483570  1
  O  O295  1  0.89357822  0.12010926  0.12905157  1
  O  O296  1  0.89113820  0.11941360  0.62391177  1
  O  O297  1  0.88267776  0.63151295  0.13009655  1
  O  O298  1  0.87171202  0.63278770  0.63514387  1
  O  O299  1  0.25058675  0.25004200  0.11842412  1
  O  O300  1  0.25487649  0.25178332  0.62144965  1
  O  O301  1  0.24939362  0.75638821  0.11703386  1
  O  O302  1  0.25877547  0.75444858  0.62109427  1
  O  O303  1  0.74413582  0.24621558  0.11111636  1
  O  O304  1  0.73930570  0.26804811  0.62907196  1
  O  O305  1  0.76820716  0.74684591  0.11996515  1
  O  O306  1  0.75688102  0.75279537  0.61803538  1
  O  O307  1  0.24422146  0.24105797  0.37942069  1
  O  O308  1  0.24411839  0.24364270  0.88055306  1
  O  O309  1  0.25654199  0.73997587  0.38760945  1
  O  O310  1  0.23525465  0.74034642  0.86531731  1
  O  O311  1  0.72105663  0.26343121  0.37740739  1
  O  O312  1  0.74475195  0.24610678  0.88074004  1
  O  O313  1  0.75520605  0.74293554  0.38053760  1
  O  O314  1  0.76496719  0.74180404  0.87875476  1
  O  O315  1  -0.00104739  0.12459747  0.01121520  1
  O  O316  1  0.00619083  0.10954539  0.50879947  1
  O  O317  1  0.00888407  0.61455376  0.00186847  1
  O  O318  1  0.00365962  0.60999389  0.49391767  1
  O  O319  1  0.50324524  0.12443966  0.00880073  1
  O  O320  1  0.50616324  0.12372611  0.51081007  1
  O  O321  1  0.51178144  0.60959884  -0.00371085  1
  O  O322  1  0.49617535  0.61380355  0.51088672  1
  O  O323  1  0.49092158  0.38994348  0.50923761  1
  O  O324  1  0.50012204  0.38537202  0.99516608  1
  O  O325  1  0.48743897  0.87234497  0.50923873  1
  O  O326  1  0.51229769  0.88788075  0.98504397  1
  O  O327  1  0.98938420  0.38332409  0.49716473  1
  O  O328  1  0.99262658  0.38497790  1.00661462  1
  O  O329  1  1.00762541  0.88029437  0.48973450  1
  O  O330  1  1.00848610  0.88194462  0.98697853  1
  O  O331  1  0.48724973  0.50896598  0.38814483  1
  O  O332  1  0.50121046  0.48639885  0.88085423  1
  O  O333  1  0.48034031  1.01318115  0.38182711  1
  O  O334  1  0.49542120  0.99888255  0.87749484  1
  O  O335  1  0.98997324  0.49608195  0.38220922  1
  O  O336  1  0.99188851  0.50276262  0.88534828  1
  O  O337  1  0.99877835  0.98994983  0.38200919  1
  O  O338  1  1.00249347  0.99102217  0.87535183  1
  O  O339  1  0.00277822  0.00721350  0.11455162  1
  O  O340  1  0.00732194  0.00096260  0.61889328  1
  O  O341  1  0.00060739  0.50701028  0.11524244  1
  O  O342  1  0.00773136  0.49343825  0.61664827  1
  O  O343  1  0.48843045  0.01479913  0.11007740  1
  O  O344  1  0.50271187  0.00971260  0.62376070  1
  O  O345  1  0.49706859  0.50161551  0.11641895  1
  O  O346  1  0.50592329  0.50397949  0.62283623  1
  O  O347  1  0.24076863  0.37773132  0.24554717  1
  O  O348  1  0.24086531  0.37897830  0.74634205  1
  O  O349  1  0.24008791  0.88439416  0.25833330  1
  O  O350  1  0.24773840  0.87935265  0.74678906  1
  O  O351  1  0.73868422  0.38340265  0.25243890  1
  O  O352  1  0.75794726  0.38742893  0.73789314  1
  O  O353  1  0.75244054  0.87178025  0.23105410  1
  O  O354  1  0.74536178  0.87889812  0.74379561  1
  O  O355  1  0.25337590  0.11777538  0.26043491  1
  O  O356  1  0.25416996  0.11885734  0.75894901  1
  O  O357  1  0.25602011  0.62038161  0.25832870  1
  O  O358  1  0.25370937  0.61936240  0.75859335  1
  O  O359  1  0.76088544  0.14692395  0.27627240  1
  O  O360  1  0.75070610  0.11700536  0.75268968  1
  O  O361  1  0.75358133  0.61957463  0.25850234  1
  O  O362  1  0.76159923  0.61295228  0.74878326  1
  O  O363  1  0.36282008  0.11830183  0.37107914  1
  O  O364  1  0.36652330  0.11996573  0.87155519  1
  O  O365  1  0.36413375  0.61444399  0.36802376  1
  O  O366  1  0.36004616  0.62520965  0.87208041  1
  O  O367  1  0.88324799  0.09854888  0.37480505  1
  O  O368  1  0.86117416  0.12624546  0.86796685  1
  O  O369  1  0.86634729  0.61791970  0.36870338  1
  O  O370  1  0.87514880  0.61096708  0.86290036  1
  O  O371  1  0.12986541  0.37350724  0.13580135  1
  O  O372  1  0.13027444  0.38243431  0.63448560  1
  O  O373  1  0.11663733  0.88200000  0.13986393  1
  O  O374  1  0.13306699  0.88269770  0.63138162  1
  O  O375  1  0.62697624  0.36718870  0.14193488  1
  O  O376  1  0.63312171  0.38879058  0.62226942  1
  O  O377  1  0.64304689  0.87376376  0.12687630  1
  O  O378  1  0.63699995  0.87398682  0.63493981  1
  O  O379  1  0.12040200  0.25757217  0.25792159  1
  O  O380  1  0.11917818  0.25676717  0.75612923  1
  O  O381  1  0.11401619  0.75510900  0.24330299  1
  O  O382  1  0.11803427  0.75201424  0.75429001  1
  O  O383  1  0.61171016  0.25967882  0.26336835  1
  O  O384  1  0.62519766  0.24848633  0.76593014  1
  O  O385  1  0.62422464  0.74722585  0.26367668  1
  O  O386  1  0.61743896  0.75693206  0.74627083  1
  O  O387  1  0.37686235  0.24568334  0.24646459  1
  O  O388  1  0.37492649  0.24986376  0.73698705  1
  O  O389  1  0.37256073  0.73506750  0.25791705  1
  O  O390  1  0.38495815  0.74544710  0.74848671  1
  O  O391  1  0.89007374  0.26022224  0.25500797  1
  O  O392  1  0.89148699  0.25347696  0.75628356  1
  O  O393  1  0.88657066  0.74322960  0.23896560  1
  O  O394  1  0.88360030  0.73923100  0.74095283  1
  O  O395  1  0.37855710  0.49583600  0.49607782  1
  O  O396  1  0.38978465  0.49917765  0.99789049  1
  O  O397  1  0.37298321  0.98833550  0.49397014  1
  O  O398  1  0.38725653  1.00766318  0.98490340  1
  O  O399  1  0.88077854  0.50705780  0.49157413  1
  O  O400  1  0.88142774  0.49492767  0.99313738  1
  O  O401  1  0.88962215  0.99444192  0.49306955  1
  O  O402  1  0.89494721  1.00513639  0.99085558  1
  O  O403  1  0.11085727  0.00482131  -0.00401486  1
  O  O404  1  0.12061034  -0.00907388  0.51155306  1
  O  O405  1  0.11631150  0.50560643  -0.00074178  1
  O  O406  1  0.11600955  0.49632836  0.50888121  1
  O  O407  1  0.61214212  0.01008279  -0.00699624  1
  O  O408  1  0.62105838  0.00955844  0.49843570  1
  O  O409  1  0.61395560  0.50024480  0.00430535  1
  O  O410  1  0.61419742  0.50339042  0.50707705  1
  O  O411  1  0.36487497  0.36608583  0.12627449  1
  O  O412  1  0.36881100  0.36702256  0.62122101  1
  O  O413  1  0.37137240  0.87121989  0.11808235  1
  O  O414  1  0.37068486  0.87048700  0.61958503  1
  O  O415  1  0.86945000  0.38145056  0.11242075  1
  O  O416  1  0.86076331  0.37330847  0.61640904  1
  O  O417  1  0.86962628  0.86273668  0.12625983  1
  O  O418  1  0.86441653  0.86016611  0.63414498  1
  O  O419  1  0.13437362  0.13388859  0.36673277  1
  O  O420  1  0.13841271  0.13420455  0.86648282  1
  O  O421  1  0.13898651  0.61765034  0.37821356  1
  O  O422  1  0.13155560  0.63013942  0.88020072  1
  O  O423  1  0.61672760  0.14146113  0.38412519  1
  O  O424  1  0.63859468  0.13292684  0.87544913  1
  O  O425  1  0.63453873  0.63581456  0.37578663  1
  O  O426  1  0.62908389  0.61671057  0.89304584  1
