# generated using pymatgen
data_V85Zn86O256
_symmetry_space_group_name_H-M   'P 1'
_cell_length_a   16.96652008
_cell_length_b   16.95284474
_cell_length_c   16.97501006
_cell_angle_alpha   90.05475752
_cell_angle_beta   89.87577476
_cell_angle_gamma   89.92273064
_symmetry_Int_Tables_number   1
_chemical_formula_structural   V85Zn86O256
_chemical_formula_sum   'V85 Zn86 O256'
_cell_volume   4882.51723471
_cell_formula_units_Z   1
loop_
 _symmetry_equiv_pos_site_id
 _symmetry_equiv_pos_as_xyz
  1  'x, y, z'
loop_
 _atom_site_type_symbol
 _atom_site_label
 _atom_site_symmetry_multiplicity
 _atom_site_fract_x
 _atom_site_fract_y
 _atom_site_fract_z
 _atom_site_occupancy
  V  V0  1  0.62417000  0.24947084  0.37323784  1
  V  V1  1  0.12019852  0.37642562  0.25289993  1
  V  V2  1  0.62099677  0.12428444  0.50140244  1
  V  V3  1  0.62484510  0.37398913  0.24739334  1
  V  V4  1  0.75037825  0.74462695  0.49121123  1
  V  V5  1  0.37554278  0.24240720  0.62900436  1
  V  V6  1  0.75108585  0.00771428  0.75321369  1
  V  V7  1  -0.00106611  0.49162698  0.49508621  1
  V  V8  1  0.74969165  0.25052257  0.49523826  1
  V  V9  1  0.75385151  0.51396763  0.25178054  1
  V  V10  1  0.26020278  0.37265530  0.12650421  1
  V  V11  1  0.49897282  0.50633994  0.50450478  1
  V  V12  1  -0.00547949  0.87617163  0.88246567  1
  V  V13  1  -0.00419986  0.62607675  0.13094454  1
  V  V14  1  0.12881147  0.62314987  0.00025686  1
  V  V15  1  0.75299343  0.37634977  0.62259991  1
  V  V16  1  0.37119965  0.62517311  0.75527192  1
  V  V17  1  0.49511869  0.24900226  0.24315844  1
  V  V18  1  0.36967284  0.50009504  0.37197519  1
  V  V19  1  0.62890214  0.00095690  0.12484408  1
  V  V20  1  0.63054969  0.24647258  0.87299164  1
  V  V21  1  0.25416516  -0.00011905  0.25439427  1
  V  V22  1  0.26001326  0.11582147  0.87661055  1
  V  V23  1  0.25361324  0.74942637  -0.00849359  1
  V  V24  1  0.24795486  0.87470209  0.62780946  1
  V  V25  1  0.87108407  0.62279643  0.75856845  1
  V  V26  1  0.63076632  0.62886833  -0.00765510  1
  V  V27  1  0.12043401  0.01014866  0.62305159  1
  V  V28  1  0.13023174  0.49994344  0.13151882  1
  V  V29  1  0.49869591  0.12216064  0.12166443  1
  V  V30  1  0.26558767  0.25500869  0.00229921  1
  V  V31  1  0.24583594  0.24576990  0.49988569  1
  V  V32  1  -0.00027690  0.37944921  0.87849463  1
  V  V33  1  0.00302354  0.01343618  0.50428504  1
  V  V34  1  0.24689231  0.12411715  0.37574682  1
  V  V35  1  0.49491635  0.49658045  -0.00034452  1
  V  V36  1  -0.00774890  0.74692345  0.25142881  1
  V  V37  1  0.75558949  0.87367593  0.11528235  1
  V  V38  1  0.24937946  0.62190928  0.37498512  1
  V  V39  1  0.37851023  0.89075689  0.00025600  1
  V  V40  1  0.24527723  0.37386876  0.63134120  1
  V  V41  1  0.88252277  0.24540637  0.12207138  1
  V  V42  1  0.12498003  0.62373474  0.50352899  1
  V  V43  1  0.49930663  0.88699816  0.88164430  1
  V  V44  1  0.11877060  0.25344172  0.37524155  1
  V  V45  1  0.74943831  0.50355325  0.75478357  1
  V  V46  1  0.87547977  0.12476832  0.24737676  1
  V  V47  1  0.36933660  0.50108093  0.87864310  1
  V  V48  1  0.49389722  0.37241081  0.87708049  1
  V  V49  1  0.24914035  0.74773793  0.50124522  1
  V  V50  1  0.12416680  0.74904228  0.37575590  1
  V  V51  1  0.63012202  0.87934243  0.25321933  1
  V  V52  1  0.75470440  0.25113490  -0.00336405  1
  V  V53  1  0.74976590  0.87433782  0.62561083  1
  V  V54  1  0.62107808  0.50387567  0.62417544  1
  V  V55  1  0.11722394  0.13278686  0.00528473  1
  V  V56  1  0.75786524  0.37503085  0.11982291  1
  V  V57  1  0.37460213  0.37416378  0.50025192  1
  V  V58  1  0.37768387  0.74236202  0.62570211  1
  V  V59  1  0.37645847  0.74917623  0.12396473  1
  V  V60  1  0.62350113  0.50105559  0.12344629  1
  V  V61  1  -0.00234365  0.00153642  0.00658506  1
  V  V62  1  0.62900611  0.62353401  0.49234210  1
  V  V63  1  0.87284314  0.00719463  0.87826667  1
  V  V64  1  0.87573775  0.87474108  0.50006464  1
  V  V65  1  0.62520829  0.87341142  0.75008135  1
  V  V66  1  0.37782153  0.87891388  0.49626545  1
  V  V67  1  0.87543894  0.74960785  0.62484440  1
  V  V68  1  0.12298326  0.88195683  0.75062056  1
  V  V69  1  0.37559716  0.12407414  0.25054277  1
  V  V70  1  0.24617265  0.49626630  0.75308688  1
  V  V71  1  0.62664817  0.12191182  -0.00165027  1
  V  V72  1  0.01044788  0.25120421  0.74703397  1
  V  V73  1  0.49974286  0.74442433  0.75091213  1
  V  V74  1  0.87670902  0.24220393  0.62557739  1
  V  V75  1  0.37070413  0.62356267  0.24960069  1
  V  V76  1  0.00188681  0.62161976  0.62717713  1
  V  V77  1  0.87061417  0.00159681  0.37157545  1
  V  V78  1  0.49825826  0.37395141  0.37382826  1
  V  V79  1  0.49622704  0.24334019  0.74959705  1
  V  V80  1  0.24966664  0.87807638  0.12471424  1
  V  V81  1  0.12929788  0.74811322  0.87560237  1
  V  V82  1  -0.00052340  0.74905870  0.75199938  1
  V  V83  1  0.12582524  0.87615726  0.25009317  1
  V  V84  1  0.00083706  0.87550891  0.37658344  1
  Zn  Zn85  1  0.88428601  0.36956839  0.48645563  1
  Zn  Zn86  1  0.50024704  0.75111351  0.25263013  1
  Zn  Zn87  1  0.49462683  0.11923073  0.62714353  1
  Zn  Zn88  1  0.86352548  0.49135311  0.88701847  1
  Zn  Zn89  1  0.63061257  0.74460587  0.87156079  1
  Zn  Zn90  1  0.62256090  0.00080105  0.62428651  1
  Zn  Zn91  1  0.11904302  0.00735894  0.13006653  1
  Zn  Zn92  1  0.27930454  0.01829458  0.74530118  1
  Zn  Zn93  1  0.87383831  0.50370962  0.36837690  1
  Zn  Zn94  1  0.88249373  0.12357143  0.74765513  1
  Zn  Zn95  1  0.49155953  0.87965750  0.36635757  1
  Zn  Zn96  1  0.49582533  0.00372301  0.49457786  1
  Zn  Zn97  1  0.87711156  0.75207025  0.11969202  1
  Zn  Zn98  1  0.13005297  0.25580688  0.87144249  1
  Zn  Zn99  1  0.62462678  0.37546570  0.74935303  1
  Zn  Zn100  1  0.62382049  0.74553828  0.36859922  1
  Zn  Zn101  1  -0.00859692  0.49300274  0.00672405  1
  Zn  Zn102  1  0.77150205  0.74981078  -0.01582742  1
  Zn  Zn103  1  0.74506518  0.11850249  0.36633783  1
  Zn  Zn104  1  -0.00116646  0.24999308  0.24954506  1
  Zn  Zn105  1  0.12195052  0.49200724  0.63285483  1
  Zn  Zn106  1  0.49785027  0.62498865  0.12470183  1
  Zn  Zn107  1  0.18704143  0.19194653  0.18749918  1
  Zn  Zn108  1  0.19159681  0.18688955  0.69129086  1
  Zn  Zn109  1  0.18844576  0.68977561  0.18742244  1
  Zn  Zn110  1  0.18949348  0.68644630  0.69222657  1
  Zn  Zn111  1  0.69145743  0.18732232  0.18626477  1
  Zn  Zn112  1  0.68553210  0.18913704  0.68466240  1
  Zn  Zn113  1  0.68555904  0.69368806  0.17986581  1
  Zn  Zn114  1  0.68754078  0.68575831  0.68246602  1
  Zn  Zn115  1  0.30947457  0.31214004  0.30992126  1
  Zn  Zn116  1  0.31288343  0.31069296  0.81552671  1
  Zn  Zn117  1  0.30980936  0.80904286  0.31225040  1
  Zn  Zn118  1  0.32770146  0.84196130  0.79999121  1
  Zn  Zn119  1  0.81654479  0.32033269  0.30826221  1
  Zn  Zn120  1  0.81734125  0.31519179  0.80933758  1
  Zn  Zn121  1  0.81030787  0.81679283  0.30940387  1
  Zn  Zn122  1  0.81251799  0.81362467  0.81440664  1
  Zn  Zn123  1  0.18490095  0.43527839  0.44272417  1
  Zn  Zn124  1  0.18179346  0.43372872  0.93810118  1
  Zn  Zn125  1  0.18638414  0.93851021  0.43971419  1
  Zn  Zn126  1  0.18427281  0.93932345  0.94142388  1
  Zn  Zn127  1  0.68841491  0.43605239  0.43332864  1
  Zn  Zn128  1  0.68154773  0.43320280  0.93803985  1
  Zn  Zn129  1  0.68781803  0.93704028  0.43937324  1
  Zn  Zn130  1  0.68671039  0.93744130  0.93557672  1
  Zn  Zn131  1  0.30754792  0.06945161  0.06802059  1
  Zn  Zn132  1  0.30602598  0.06069504  0.56185550  1
  Zn  Zn133  1  0.30940198  0.56144800  0.06206247  1
  Zn  Zn134  1  0.31218103  0.56086277  0.56525385  1
  Zn  Zn135  1  0.81123571  0.06435424  0.06179450  1
  Zn  Zn136  1  0.80977967  0.06045400  0.56030144  1
  Zn  Zn137  1  0.81243412  0.56531345  0.06483119  1
  Zn  Zn138  1  0.81457661  0.56348701  0.56404801  1
  Zn  Zn139  1  0.43744389  0.43810098  0.18843899  1
  Zn  Zn140  1  0.43453798  0.43160766  0.69030574  1
  Zn  Zn141  1  0.44053311  0.93990253  0.18597978  1
  Zn  Zn142  1  0.44277219  0.93815858  0.68299510  1
  Zn  Zn143  1  0.93847190  0.43732109  0.18653206  1
  Zn  Zn144  1  0.93547305  0.43259657  0.69051167  1
  Zn  Zn145  1  0.93663796  0.93760070  0.19052126  1
  Zn  Zn146  1  0.93763071  0.93928519  0.68836899  1
  Zn  Zn147  1  0.05989864  0.06560414  0.31403806  1
  Zn  Zn148  1  0.06548654  0.06901987  0.81869163  1
  Zn  Zn149  1  0.06246906  0.56207082  0.31339447  1
  Zn  Zn150  1  0.06211883  0.56255999  0.81559379  1
  Zn  Zn151  1  0.55976386  0.05707076  0.31624175  1
  Zn  Zn152  1  0.56361812  0.06285739  0.81225349  1
  Zn  Zn153  1  0.55839693  0.56209266  0.31115079  1
  Zn  Zn154  1  0.55916381  0.56114180  0.81114180  1
  Zn  Zn155  1  0.43421290  0.18642108  0.43439075  1
  Zn  Zn156  1  0.44026180  0.18388889  0.93741216  1
  Zn  Zn157  1  0.44132255  0.69174698  0.43507068  1
  Zn  Zn158  1  0.44207168  0.68698149  0.93550333  1
  Zn  Zn159  1  0.93407680  0.18600312  0.43522266  1
  Zn  Zn160  1  0.93762243  0.19042998  0.93147698  1
  Zn  Zn161  1  0.93401081  0.68031720  0.43535128  1
  Zn  Zn162  1  0.94085743  0.68203212  0.94348485  1
  Zn  Zn163  1  0.06492861  0.31747119  0.06113951  1
  Zn  Zn164  1  0.06419471  0.30598152  0.56550685  1
  Zn  Zn165  1  0.06305395  0.81295981  0.06418068  1
  Zn  Zn166  1  0.06115138  0.81480577  0.56295211  1
  Zn  Zn167  1  0.56423946  0.31139148  0.06035838  1
  Zn  Zn168  1  0.56203237  0.31501735  0.56304640  1
  Zn  Zn169  1  0.56300544  0.81521421  0.06423122  1
  Zn  Zn170  1  0.56259602  0.80786093  0.56439110  1
  O  O171  1  0.13053263  0.12591633  0.11026639  1
  O  O172  1  0.13476040  0.10848711  0.63041794  1
  O  O173  1  0.12498179  0.61740111  0.12119650  1
  O  O174  1  0.11537910  0.62663005  0.62331267  1
  O  O175  1  0.62049907  0.11919097  0.12039516  1
  O  O176  1  0.62077317  0.12653083  0.61284323  1
  O  O177  1  0.61888207  0.61371356  0.11644856  1
  O  O178  1  0.62671853  0.61066838  0.61331697  1
  O  O179  1  0.37702306  0.38166287  0.37811663  1
  O  O180  1  0.38678625  0.38363196  0.87193516  1
  O  O181  1  0.36767950  0.86570074  0.39373412  1
  O  O182  1  0.39185890  0.86474982  0.89039277  1
  O  O183  1  0.87009035  0.39024423  0.37674143  1
  O  O184  1  0.88987998  0.37683567  0.87092415  1
  O  O185  1  0.88064232  0.88237298  0.37908663  1
  O  O186  1  0.89009112  0.88494716  0.86782751  1
  O  O187  1  0.24220154  0.00956765  0.36486303  1
  O  O188  1  0.24587702  0.01342785  0.87860518  1
  O  O189  1  0.26315991  0.50440210  0.38590495  1
  O  O190  1  0.26178786  0.48776356  0.86939341  1
  O  O191  1  0.76665612  -0.00074715  0.38260275  1
  O  O192  1  0.76183548  -0.01094384  0.86530728  1
  O  O193  1  0.74024441  0.49891163  0.35327726  1
  O  O194  1  0.74521014  0.48911464  0.85838767  1
  O  O195  1  0.24042967  0.48485127  0.11570183  1
  O  O196  1  0.25208336  0.49008952  0.63444460  1
  O  O197  1  0.24616710  0.99610419  0.13763561  1
  O  O198  1  0.24175253  0.98913841  0.62923842  1
  O  O199  1  0.74003907  0.49325918  0.12828082  1
  O  O200  1  0.74272054  0.49324307  0.62901897  1
  O  O201  1  0.73833659  0.99032943  0.11921834  1
  O  O202  1  0.74897554  0.99113059  0.63359835  1
  O  O203  1  0.01504624  0.37268870  0.24559955  1
  O  O204  1  -0.00278734  0.36162951  0.75711931  1
  O  O205  1  0.00684496  0.86816416  0.25645335  1
  O  O206  1  0.00772076  0.86892460  0.75743699  1
  O  O207  1  0.50352352  0.36734065  0.25275103  1
  O  O208  1  0.50250677  0.36484669  0.75908064  1
  O  O209  1  0.51351132  0.87367591  0.24534425  1
  O  O210  1  0.50915387  0.86626404  0.76020176  1
  O  O211  1  0.49447649  0.13027578  0.24449908  1
  O  O212  1  0.50377388  0.13844204  0.74834134  1
  O  O213  1  0.48545051  0.62820898  0.24723158  1
  O  O214  1  0.48749848  0.63356028  0.75349939  1
  O  O215  1  0.98428704  0.13096308  0.25620224  1
  O  O216  1  0.99988765  0.14392958  0.75829260  1
  O  O217  1  1.01288550  0.63678248  0.24216272  1
  O  O218  1  0.99446580  0.62857865  0.74313484  1
  O  O219  1  0.36410323  0.24984889  0.00051208  1
  O  O220  1  0.36662587  0.25500545  0.50612189  1
  O  O221  1  0.36816965  0.75055902  0.00619690  1
  O  O222  1  0.36901694  0.75148151  0.50894856  1
  O  O223  1  0.86202915  0.23932122  0.00547753  1
  O  O224  1  0.86686393  0.25179738  0.50526709  1
  O  O225  1  0.88140707  0.75067201  0.00619305  1
  O  O226  1  0.86902174  0.75335280  0.50452837  1
  O  O227  1  0.13924710  0.25563607  0.49331790  1
  O  O228  1  0.12762660  0.23943013  1.00014551  1
  O  O229  1  0.12882422  0.74451170  0.49589421  1
  O  O230  1  0.13466880  0.74675554  0.99461945  1
  O  O231  1  0.63028425  0.24542928  0.49449038  1
  O  O232  1  0.63249332  0.24439761  0.99200519  1
  O  O233  1  0.63302292  0.73990731  0.50227556  1
  O  O234  1  0.61416135  0.73177785  1.00193618  1
  O  O235  1  0.50924617  0.24107989  0.13617446  1
  O  O236  1  0.49144914  0.25265494  0.63255154  1
  O  O237  1  0.48434964  0.74857376  0.12271549  1
  O  O238  1  0.48792425  0.75744465  0.63877957  1
  O  O239  1  0.98465171  0.25739849  0.12031317  1
  O  O240  1  0.99069166  0.25618657  0.63676219  1
  O  O241  1  1.00471357  0.74397015  0.13595810  1
  O  O242  1  0.99595281  0.74202103  0.63052057  1
  O  O243  1  0.01629132  0.24841481  0.38240339  1
  O  O244  1  0.00020330  0.26007059  0.86385041  1
  O  O245  1  0.00545543  0.75454926  0.36962441  1
  O  O246  1  0.01010163  0.75863625  0.87274701  1
  O  O247  1  0.50381710  0.25461672  0.36473667  1
  O  O248  1  0.50412566  0.25505448  0.86936595  1
  O  O249  1  0.50554843  0.76108003  0.37219523  1
  O  O250  1  0.50508077  0.75531919  0.86354905  1
  O  O251  1  0.25661952  0.13470270  0.48873372  1
  O  O252  1  0.24328897  0.13696263  0.99611739  1
  O  O253  1  0.24479833  0.62833528  0.49697667  1
  O  O254  1  0.23981339  0.63666934  1.00464863  1
  O  O255  1  0.74124432  0.13779085  0.49845710  1
  O  O256  1  0.73652892  0.13784904  1.00548625  1
  O  O257  1  0.74244977  0.63314202  0.50542162  1
  O  O258  1  0.73235477  0.62780856  1.00769723  1
  O  O259  1  0.24378866  0.36156036  0.00928164  1
  O  O260  1  0.25641197  0.36630317  0.50877955  1
  O  O261  1  0.25836316  0.86880611  0.00388937  1
  O  O262  1  0.25387601  0.86812385  0.50995870  1
  O  O263  1  0.74222810  0.36485263  0.00953649  1
  O  O264  1  0.74664693  0.36619086  0.50776866  1
  O  O265  1  0.74086367  0.87213604  0.01272342  1
  O  O266  1  0.75500422  0.86642943  0.50665288  1
  O  O267  1  0.12520157  0.49338410  0.24098477  1
  O  O268  1  0.14253728  0.50982755  0.75119356  1
  O  O269  1  0.13194100  0.99524815  0.24974461  1
  O  O270  1  0.11842509  0.98914511  0.74445961  1
  O  O271  1  0.62615404  0.49559960  0.23898346  1
  O  O272  1  0.62970966  0.50113357  0.74001457  1
  O  O273  1  0.62352858  0.98942113  0.23964422  1
  O  O274  1  0.63198780  0.98914359  0.75082323  1
  O  O275  1  0.36399318  0.00769562  0.24690457  1
  O  O276  1  0.36160040  -0.05227244  0.75639649  1
  O  O277  1  0.38026443  0.50826086  0.26262367  1
  O  O278  1  0.37034272  0.50632195  0.75736066  1
  O  O279  1  0.88265650  0.00807209  0.26285375  1
  O  O280  1  0.86823399  0.00220361  0.75598424  1
  O  O281  1  0.85546954  0.49689916  0.24048878  1
  O  O282  1  0.86432418  0.50739972  0.74803817  1
  O  O283  1  0.13850387  0.36614594  0.36356939  1
  O  O284  1  0.11040149  0.37149472  0.87439374  1
  O  O285  1  0.12125375  0.86882841  0.37070947  1
  O  O286  1  0.11801089  0.86973772  0.86823147  1
  O  O287  1  0.61676008  0.36947913  0.36792429  1
  O  O288  1  0.61243125  0.36392705  0.87293035  1
  O  O289  1  0.63131878  0.87674017  0.35834146  1
  O  O290  1  0.61339442  0.87304972  0.86819376  1
  O  O291  1  0.38589342  0.12163849  0.13706493  1
  O  O292  1  0.37291350  0.13765682  0.62033543  1
  O  O293  1  0.37165520  0.63065497  0.13270991  1
  O  O294  1  0.37078960  0.63581109  0.63405760  1
  O  O295  1  0.86942673  0.13474238  0.13273831  1
  O  O296  1  0.86807271  0.13833965  0.62382381  1
  O  O297  1  0.89378409  0.62556215  0.12668548  1
  O  O298  1  0.88545469  0.62988161  0.63315642  1
  O  O299  1  0.24756267  0.25973697  0.11291915  1
  O  O300  1  0.25633010  0.25350971  0.62008607  1
  O  O301  1  0.25857402  0.75694295  0.11563697  1
  O  O302  1  0.25511776  0.75549442  0.62159284  1
  O  O303  1  0.75533938  0.25831204  0.11595856  1
  O  O304  1  0.75438704  0.25791355  0.61680716  1
  O  O305  1  0.75278101  0.76347757  0.11895065  1
  O  O306  1  0.75645984  0.75495333  0.61650842  1
  O  O307  1  0.24492613  0.24455613  0.38235209  1
  O  O308  1  0.24944056  0.24634315  0.88863606  1
  O  O309  1  0.24325528  0.74193681  0.38175512  1
  O  O310  1  0.24060509  0.76149534  0.88459309  1
  O  O311  1  0.74371025  0.25493492  0.38448073  1
  O  O312  1  0.73912653  0.26016996  0.88097013  1
  O  O313  1  0.74748287  0.75702289  0.38838789  1
  O  O314  1  0.74217584  0.75570951  0.87663509  1
  O  O315  1  0.01210928  0.12022215  -0.00633409  1
  O  O316  1  -0.00217049  0.11234174  0.49785197  1
  O  O317  1  0.01885127  0.62945770  0.01426801  1
  O  O318  1  0.00548747  0.61671571  0.51181292  1
  O  O319  1  0.51189422  0.13624861  0.01279541  1
  O  O320  1  0.50931918  0.12869428  0.49999815  1
  O  O321  1  0.50633550  0.61084386  0.00179457  1
  O  O322  1  0.50648429  0.61203442  0.49770744  1
  O  O323  1  0.49461177  0.38217494  0.49279854  1
  O  O324  1  0.50661726  0.38572917  0.99100016  1
  O  O325  1  0.48227811  0.86989514  0.50541302  1
  O  O326  1  0.49708754  0.87466975  0.98909092  1
  O  O327  1  1.00363289  0.38888858  0.51123034  1
  O  O328  1  1.00128177  0.37515140  0.98541288  1
  O  O329  1  0.99278728  0.87775562  0.49385180  1
  O  O330  1  1.01174615  0.88601400  0.98968522  1
  O  O331  1  0.48999727  0.49407732  0.38350908  1
  O  O332  1  0.49228248  0.49133242  0.87994254  1
  O  O333  1  0.49898987  0.99132566  0.38226690  1
  O  O334  1  0.50042634  0.98567687  0.87029569  1
  O  O335  1  1.00824688  0.50015302  0.39404101  1
  O  O336  1  0.99963241  0.48747851  0.87254796  1
  O  O337  1  0.99478886  0.99442384  0.38482824  1
  O  O338  1  0.99478860  0.99447888  0.88311693  1
  O  O339  1  0.00007013  -0.00713108  0.11171688  1
  O  O340  1  0.00815757  -0.00661742  0.61644091  1
  O  O341  1  0.01203252  0.50793697  0.12615618  1
  O  O342  1  0.00261476  0.50861102  0.62504548  1
  O  O343  1  0.51207997  0.01291826  0.12731699  1
  O  O344  1  0.50361220  0.00266689  0.61550641  1
  O  O345  1  0.50682216  0.49653811  0.11643188  1
  O  O346  1  0.50793018  0.48803452  0.61473298  1
  O  O347  1  0.23951954  0.36463202  0.23295010  1
  O  O348  1  0.25902449  0.38350132  0.74203004  1
  O  O349  1  0.24728618  0.88253301  0.24699126  1
  O  O350  1  0.23128447  0.86343577  0.73928214  1
  O  O351  1  0.74056272  0.38021418  0.23597883  1
  O  O352  1  0.74853395  0.38323115  0.73718982  1
  O  O353  1  0.73612188  0.87098942  0.23607393  1
  O  O354  1  0.74118557  0.88013163  0.74451814  1
  O  O355  1  0.25697815  0.12052105  0.25312084  1
  O  O356  1  0.24862430  0.12591973  0.76939384  1
  O  O357  1  0.26182772  0.62995652  0.25777974  1
  O  O358  1  0.26319926  0.61563593  0.74840478  1
  O  O359  1  0.76526763  0.13067829  0.25209300  1
  O  O360  1  0.74565956  0.10965686  0.74550217  1
  O  O361  1  0.74170511  0.61218023  0.23742986  1
  O  O362  1  0.75920820  0.61527771  0.74062396  1
  O  O363  1  0.36212321  0.12986998  0.36162915  1
  O  O364  1  0.35990468  0.12451753  0.88505792  1
  O  O365  1  0.37049880  0.61914222  0.36999488  1
  O  O366  1  0.37830448  0.61322250  0.86762374  1
  O  O367  1  0.87013023  0.11764183  0.36921064  1
  O  O368  1  0.87783683  0.11112788  0.87040118  1
  O  O369  1  0.88257608  0.61342287  0.36769047  1
  O  O370  1  0.88530033  0.62330377  0.85885991  1
  O  O371  1  0.13050011  0.38310927  0.13159050  1
  O  O372  1  0.14183023  0.37274409  0.62310468  1
  O  O373  1  0.13388189  0.87624512  0.13242943  1
  O  O374  1  0.13063243  0.87914453  0.63194028  1
  O  O375  1  0.63056414  0.38390165  0.12668750  1
  O  O376  1  0.63449858  0.38473823  0.62431991  1
  O  O377  1  0.63043109  0.88299917  0.12983070  1
  O  O378  1  0.62941783  0.87434001  0.63530978  1
  O  O379  1  0.12145175  0.25686485  0.25734833  1
  O  O380  1  0.11401291  0.25015044  0.74795701  1
  O  O381  1  0.12109798  0.75707290  0.25733163  1
  O  O382  1  0.11908789  0.75439554  0.75895156  1
  O  O383  1  0.61714778  0.25347402  0.25387268  1
  O  O384  1  0.61823079  0.25155178  0.75768389  1
  O  O385  1  0.62162337  0.76252502  0.24695878  1
  O  O386  1  0.61727776  0.75518703  0.74577292  1
  O  O387  1  0.38660221  0.24187685  0.25289503  1
  O  O388  1  0.38355193  0.25470949  0.74053010  1
  O  O389  1  0.37348008  0.74377734  0.23952915  1
  O  O390  1  0.37903657  0.74519951  0.74594535  1
  O  O391  1  0.87719191  0.24603678  0.24026176  1
  O  O392  1  0.87850989  0.24578162  0.73968501  1
  O  O393  1  0.88965688  0.75850065  0.24636477  1
  O  O394  1  0.88014712  0.74323123  0.74472621  1
  O  O395  1  0.38232996  0.49628986  0.49504504  1
  O  O396  1  0.38344002  0.50646914  0.99122281  1
  O  O397  1  0.36969051  0.98123872  0.50722409  1
  O  O398  1  0.37001896  0.98912115  1.00927419  1
  O  O399  1  0.89265155  0.49945007  0.50634674  1
  O  O400  1  0.88225590  0.51829656  0.99354990  1
  O  O401  1  0.88309868  0.99443373  0.49501826  1
  O  O402  1  0.88543999  1.00819347  0.99160162  1
  O  O403  1  0.11701154  0.01319426  0.00257410  1
  O  O404  1  0.11537688  -0.00698618  0.51069686  1
  O  O405  1  0.12402866  0.50975449  0.00834279  1
  O  O406  1  0.11676940  0.50502102  0.50882997  1
  O  O407  1  0.62875714  0.01336580  0.00556594  1
  O  O408  1  0.62883056  0.01349150  0.50140565  1
  O  O409  1  0.61783381  0.50685310  0.00563854  1
  O  O410  1  0.61893685  0.50404476  0.50372010  1
  O  O411  1  0.35910795  0.38079504  0.12870357  1
  O  O412  1  0.36662739  0.36463784  0.61961367  1
  O  O413  1  0.37140291  0.86787733  0.11818895  1
  O  O414  1  0.36336098  0.86086080  0.61516430  1
  O  O415  1  0.86355419  0.36620954  0.12723965  1
  O  O416  1  0.86425481  0.36618623  0.62003970  1
  O  O417  1  0.85718475  0.88037462  0.13008113  1
  O  O418  1  0.87069606  0.86854684  0.62065889  1
  O  O419  1  0.13912983  0.13745336  0.36606308  1
  O  O420  1  0.13654358  0.13127124  0.88934222  1
  O  O421  1  0.13060462  0.62879271  0.38279496  1
  O  O422  1  0.11844509  0.63885841  0.88528242  1
  O  O423  1  0.62701033  0.13133128  0.38168179  1
  O  O424  1  0.61664118  0.13692585  0.88452904  1
  O  O425  1  0.62048805  0.62430571  0.38795968  1
  O  O426  1  0.61996453  0.62119519  0.88882136  1
