# generated using pymatgen
data_V85Zn86O256
_symmetry_space_group_name_H-M   'P 1'
_cell_length_a   16.95607233
_cell_length_b   16.95341946
_cell_length_c   16.94590384
_cell_angle_alpha   89.95972562
_cell_angle_beta   90.05677378
_cell_angle_gamma   89.89627129
_symmetry_Int_Tables_number   1
_chemical_formula_structural   V85Zn86O256
_chemical_formula_sum   'V85 Zn86 O256'
_cell_volume   4871.31566481
_cell_formula_units_Z   1
loop_
 _symmetry_equiv_pos_site_id
 _symmetry_equiv_pos_as_xyz
  1  'x, y, z'
loop_
 _atom_site_type_symbol
 _atom_site_label
 _atom_site_symmetry_multiplicity
 _atom_site_fract_x
 _atom_site_fract_y
 _atom_site_fract_z
 _atom_site_occupancy
  V  V0  1  0.75579823  0.12634674  0.36596249  1
  V  V1  1  0.25703345  0.12149839  0.37407481  1
  V  V2  1  -0.00269423  0.62941852  0.12563670  1
  V  V3  1  0.51176246  0.50596069  0.00095282  1
  V  V4  1  0.74732103  0.24881611  0.49737969  1
  V  V5  1  -0.00484623  0.12847168  0.13317460  1
  V  V6  1  0.62063646  0.74974425  0.87722963  1
  V  V7  1  0.24175482  0.61980861  0.38090443  1
  V  V8  1  0.12291738  0.12930408  -0.00402549  1
  V  V9  1  0.25021807  0.24826516  0.50267886  1
  V  V10  1  0.37516917  0.37612681  -0.00042574  1
  V  V11  1  0.87056438  0.62530281  0.25436811  1
  V  V12  1  0.87379536  0.49587956  0.87796214  1
  V  V13  1  0.62116455  0.12203619  0.50039153  1
  V  V14  1  0.49407273  0.00362960  0.00180544  1
  V  V15  1  0.49369275  0.87821455  0.37136225  1
  V  V16  1  0.12460877  -0.00389725  0.13153825  1
  V  V17  1  0.75248763  0.87219576  0.62152826  1
  V  V18  1  0.87633919  0.62657091  0.74833710  1
  V  V19  1  0.87378209  0.00056711  0.87524901  1
  V  V20  1  0.25337874  0.74596289  0.50482200  1
  V  V21  1  0.12685877  0.12637888  0.50248677  1
  V  V22  1  -0.00404070  0.49775015  -0.00015409  1
  V  V23  1  0.50483272  0.49418932  0.50636282  1
  V  V24  1  0.86951579  0.87506755  0.00650214  1
  V  V25  1  0.49356921  0.88141493  0.87514310  1
  V  V26  1  0.12716373  0.37155253  0.75552545  1
  V  V27  1  0.00394043  0.25039127  0.75263817  1
  V  V28  1  0.62434907  0.36902742  0.75258396  1
  V  V29  1  0.37499781  0.50261280  0.87544664  1
  V  V30  1  0.74377763  0.50124685  0.74511847  1
  V  V31  1  0.86812899  0.50093246  0.37447541  1
  V  V32  1  0.87673904  0.12562950  0.74974586  1
  V  V33  1  0.61705691  0.37988952  0.24375928  1
  V  V34  1  0.12199063  0.37458958  0.24247986  1
  V  V35  1  0.74745057  0.75434367  0.00233334  1
  V  V36  1  0.25775920  0.86834595  0.62740960  1
  V  V37  1  0.24648621  0.49990194  0.74724827  1
  V  V38  1  0.00019576  0.87302924  0.87531458  1
  V  V39  1  0.50428596  0.36956533  0.87424040  1
  V  V40  1  0.87054398  0.37949206  0.49717498  1
  V  V41  1  0.24587016  0.63637237  0.87733769  1
  V  V42  1  0.38111834  0.12329656  0.75143130  1
  V  V43  1  0.50807199  0.63185267  0.62048303  1
  V  V44  1  0.36624795  0.62111700  0.24834462  1
  V  V45  1  0.00155007  0.12741774  0.62542116  1
  V  V46  1  0.25465395  -0.00090944  0.75583016  1
  V  V47  1  0.87235122  0.25469323  0.11793717  1
  V  V48  1  0.87587579  0.25061754  0.62307534  1
  V  V49  1  0.61751633  0.24752154  0.36440518  1
  V  V50  1  0.37235704  0.49857869  0.37390365  1
  V  V51  1  0.75130184  0.00073518  0.74826599  1
  V  V52  1  0.25521037  -0.00929744  0.25353403  1
  V  V53  1  0.62501308  0.13192783  -0.00247637  1
  V  V54  1  0.12570970  0.86992281  0.75692715  1
  V  V55  1  0.25309291  0.12442472  0.87654946  1
  V  V56  1  0.02163099  0.38875594  0.40420228  1
  V  V57  1  0.75243683  -0.00975020  0.24406036  1
  V  V58  1  0.75283526  0.38711012  0.12238056  1
  V  V59  1  0.24498524  0.25165977  -0.00450698  1
  V  V60  1  0.62002278  0.00335534  0.62056703  1
  V  V61  1  -0.00163844  0.00174558  0.00140090  1
  V  V62  1  0.25103354  0.37677971  0.62831369  1
  V  V63  1  0.24972290  0.37782183  0.12661277  1
  V  V64  1  -0.00691607  0.25478001  0.25189346  1
  V  V65  1  0.36721724  0.87168143  0.00370601  1
  V  V66  1  0.01351821  0.60982406  0.61793943  1
  V  V67  1  0.37544353  0.63064412  0.74158853  1
  V  V68  1  0.62476590  0.87570598  0.74895528  1
  V  V69  1  0.37988676  0.24327424  0.13097166  1
  V  V70  1  0.38372936  0.24577616  0.62979455  1
  V  V71  1  0.00421654  0.74799433  0.75344289  1
  V  V72  1  0.12728476  0.50268353  0.12653141  1
  V  V73  1  0.74332535  0.37929915  0.62414241  1
  V  V74  1  0.00194863  0.00068696  0.50021785  1
  V  V75  1  0.12743851  0.63703169  -0.00431527  1
  V  V76  1  0.87828611  0.00652712  0.37229788  1
  V  V77  1  0.00837413  0.87722224  0.36989391  1
  V  V78  1  0.00206023  0.37165639  0.87717664  1
  V  V79  1  0.75067428  0.74309238  0.49124352  1
  V  V80  1  0.12547601  -0.00103924  0.62724470  1
  V  V81  1  0.50978096  0.62212174  0.12342300  1
  V  V82  1  0.74604952  0.13419717  0.87460425  1
  V  V83  1  0.12371475  0.74962782  0.37672791  1
  V  V84  1  0.74270142  0.62626257  0.87778575  1
  Zn  Zn85  1  0.62260708  0.74237205  0.36909416  1
  Zn  Zn86  1  0.38724385  0.12251662  0.26075683  1
  Zn  Zn87  1  0.87914316  0.87382237  0.50022759  1
  Zn  Zn88  1  0.86720022  0.75497287  0.13158393  1
  Zn  Zn89  1  0.23994013  0.86529003  0.12604128  1
  Zn  Zn90  1  0.00284029  0.75559909  0.24940899  1
  Zn  Zn91  1  0.51347690  0.12914760  0.13757247  1
  Zn  Zn92  1  0.74753952  0.25897502  -0.00448784  1
  Zn  Zn93  1  0.48865114  0.00310578  0.49512101  1
  Zn  Zn94  1  0.63821745  0.61464126  0.49202426  1
  Zn  Zn95  1  0.88025913  0.74996295  0.62261757  1
  Zn  Zn96  1  0.12785228  0.24819445  0.36767012  1
  Zn  Zn97  1  0.49551339  0.75649393  0.74167224  1
  Zn  Zn98  1  0.73951222  0.50973044  0.25144670  1
  Zn  Zn99  1  0.49407548  0.37121394  0.36707945  1
  Zn  Zn100  1  0.62640227  0.86711629  0.24309095  1
  Zn  Zn101  1  0.37617443  0.37209384  0.49908651  1
  Zn  Zn102  1  0.49876311  0.74870356  0.24887586  1
  Zn  Zn103  1  0.36447739  0.74219268  0.12096499  1
  Zn  Zn104  1  0.37515161  0.87691007  0.49753688  1
  Zn  Zn105  1  0.50805393  0.23982369  0.75279134  1
  Zn  Zn106  1  0.63017200  -0.00753957  0.11970518  1
  Zn  Zn107  1  0.18828352  0.18542899  0.18650065  1
  Zn  Zn108  1  0.18954158  0.18903773  0.68964198  1
  Zn  Zn109  1  0.18839329  0.68870072  0.19267922  1
  Zn  Zn110  1  0.18623308  0.68539696  0.68810540  1
  Zn  Zn111  1  0.68864853  0.18792224  0.18386014  1
  Zn  Zn112  1  0.68900638  0.18803925  0.68500081  1
  Zn  Zn113  1  0.68477518  0.68895690  0.18702566  1
  Zn  Zn114  1  0.68420306  0.68926705  0.68505969  1
  Zn  Zn115  1  0.31050289  0.31234307  0.31152833  1
  Zn  Zn116  1  0.31645426  0.31016918  0.81451871  1
  Zn  Zn117  1  0.31489427  0.80536651  0.31473915  1
  Zn  Zn118  1  0.31536963  0.81286290  0.81496986  1
  Zn  Zn119  1  0.80807806  0.31831632  0.30965709  1
  Zn  Zn120  1  0.81596833  0.31350340  0.80987396  1
  Zn  Zn121  1  0.82267830  0.81476243  0.31626985  1
  Zn  Zn122  1  0.81319698  0.81254962  0.81328448  1
  Zn  Zn123  1  0.19201563  0.43311471  0.43735200  1
  Zn  Zn124  1  0.18516278  0.44447061  0.93841931  1
  Zn  Zn125  1  0.19017469  0.93557671  0.43943579  1
  Zn  Zn126  1  0.18446635  0.94105175  0.93865843  1
  Zn  Zn127  1  0.68407557  0.43596029  0.42979197  1
  Zn  Zn128  1  0.68725586  0.43807234  0.93621039  1
  Zn  Zn129  1  0.68294794  0.93163104  0.43092513  1
  Zn  Zn130  1  0.68381153  0.94054366  0.93722292  1
  Zn  Zn131  1  0.31181681  0.05710507  0.06485102  1
  Zn  Zn132  1  0.31412709  0.06050851  0.56759750  1
  Zn  Zn133  1  0.31128929  0.56340943  0.05881020  1
  Zn  Zn134  1  0.31747863  0.56229185  0.55989165  1
  Zn  Zn135  1  0.81287438  0.06798569  0.06160566  1
  Zn  Zn136  1  0.81145979  0.06256752  0.55823946  1
  Zn  Zn137  1  0.81054614  0.56799975  0.06208398  1
  Zn  Zn138  1  0.82177624  0.56217863  0.56304758  1
  Zn  Zn139  1  0.43559633  0.44134981  0.18578113  1
  Zn  Zn140  1  0.43682249  0.43827732  0.68768105  1
  Zn  Zn141  1  0.43940234  0.94032901  0.18544841  1
  Zn  Zn142  1  0.43730953  0.94066795  0.68511174  1
  Zn  Zn143  1  0.93491082  0.44099221  0.18885225  1
  Zn  Zn144  1  0.93462747  0.43673861  0.68818765  1
  Zn  Zn145  1  0.93618707  0.94123951  0.19004510  1
  Zn  Zn146  1  0.93817918  0.93781573  0.68707576  1
  Zn  Zn147  1  0.06887355  0.06506249  0.31333550  1
  Zn  Zn148  1  0.06480121  0.06078672  0.81419714  1
  Zn  Zn149  1  0.06053074  0.56285702  0.31289752  1
  Zn  Zn150  1  0.06446071  0.56124122  0.81188606  1
  Zn  Zn151  1  0.56588282  0.05796877  0.31144330  1
  Zn  Zn152  1  0.56681157  0.05875011  0.81559858  1
  Zn  Zn153  1  0.55753666  0.56428718  0.31541147  1
  Zn  Zn154  1  0.56063940  0.56050553  0.80875729  1
  Zn  Zn155  1  0.43851194  0.18789469  0.44041239  1
  Zn  Zn156  1  0.43456435  0.18758261  0.94094501  1
  Zn  Zn157  1  0.43623451  0.68932529  0.43613069  1
  Zn  Zn158  1  0.43604136  0.68968629  0.93758912  1
  Zn  Zn159  1  0.94114453  0.19575485  0.43585032  1
  Zn  Zn160  1  0.93418153  0.18910438  0.93889678  1
  Zn  Zn161  1  0.93824198  0.68702489  0.44069855  1
  Zn  Zn162  1  0.93514266  0.68749819  0.93719899  1
  Zn  Zn163  1  0.05946951  0.31251245  0.06205316  1
  Zn  Zn164  1  0.06939359  0.32525061  0.56478837  1
  Zn  Zn165  1  0.05899008  0.81382716  0.06143341  1
  Zn  Zn166  1  0.06736797  0.80787168  0.56315939  1
  Zn  Zn167  1  0.56308691  0.31610699  0.06179258  1
  Zn  Zn168  1  0.56436789  0.31049439  0.56093542  1
  Zn  Zn169  1  0.55772021  0.81222401  0.06636366  1
  Zn  Zn170  1  0.56576418  0.81351410  0.55417243  1
  O  O171  1  0.11600729  0.11923413  0.11609292  1
  O  O172  1  0.12151102  0.11989115  0.62326418  1
  O  O173  1  0.11784034  0.61819878  0.11933840  1
  O  O174  1  0.11304349  0.62019996  0.63205284  1
  O  O175  1  0.62903289  0.11867391  0.11283899  1
  O  O176  1  0.63566725  0.11599328  0.61326307  1
  O  O177  1  0.60826435  0.62243259  0.12739831  1
  O  O178  1  0.61171883  0.62208505  0.62142010  1
  O  O179  1  0.37434754  0.38171954  0.37569074  1
  O  O180  1  0.38222342  0.38522540  0.87764019  1
  O  O181  1  0.38779368  0.87244387  0.37452721  1
  O  O182  1  0.38564263  0.87313586  0.88315576  1
  O  O183  1  0.87584598  0.38236783  0.38283409  1
  O  O184  1  0.88437277  0.38838527  0.86728084  1
  O  O185  1  0.88829757  0.88848208  0.38069306  1
  O  O186  1  0.88045139  0.88178165  0.88160797  1
  O  O187  1  0.24259743  0.00720651  0.36229133  1
  O  O188  1  0.24503869  0.00981940  0.86448952  1
  O  O189  1  0.25947802  0.50715955  0.38835548  1
  O  O190  1  0.25967233  0.50370770  0.86710474  1
  O  O191  1  0.75985316  0.00669403  0.36905973  1
  O  O192  1  0.75504886  0.00915409  0.86749857  1
  O  O193  1  0.76314871  0.49704135  0.37186457  1
  O  O194  1  0.75556792  0.50655152  0.86865609  1
  O  O195  1  0.23877188  0.48829065  0.11514971  1
  O  O196  1  0.26202936  0.48958309  0.63682961  1
  O  O197  1  0.24044634  0.99783515  0.13505967  1
  O  O198  1  0.24314208  0.99113377  0.63779617  1
  O  O199  1  0.75343676  0.49024944  0.12485632  1
  O  O200  1  0.75850826  0.49130945  0.63484307  1
  O  O201  1  0.76000312  1.00712885  0.14237102  1
  O  O202  1  0.74527175  0.99207451  0.62838324  1
  O  O203  1  0.00984041  0.36813462  0.24065658  1
  O  O204  1  0.00808114  0.37226185  0.75653784  1
  O  O205  1  -0.00336537  0.87584084  0.26415596  1
  O  O206  1  0.00659384  0.86886105  0.75389776  1
  O  O207  1  0.51268592  0.37645647  0.24536004  1
  O  O208  1  0.50974677  0.37969827  0.75745754  1
  O  O209  1  0.49684966  0.87375290  0.25968638  1
  O  O210  1  0.50400956  0.87638950  0.75721205  1
  O  O211  1  0.49885862  0.12136405  0.24909527  1
  O  O212  1  0.48628058  0.12292511  0.76344814  1
  O  O213  1  0.48799572  0.61748101  0.23504217  1
  O  O214  1  0.49417443  0.62151421  0.73540894  1
  O  O215  1  1.00872241  0.13922120  0.24227007  1
  O  O216  1  0.99699352  0.12951900  0.74668834  1
  O  O217  1  0.99201977  0.62333644  0.23879961  1
  O  O218  1  0.99446627  0.62975616  0.74858295  1
  O  O219  1  0.36393139  0.25702192  0.00742301  1
  O  O220  1  0.36639718  0.24851193  0.51117255  1
  O  O221  1  0.37657803  0.76743056  -0.00141804  1
  O  O222  1  0.35767547  0.75456918  0.49540200  1
  O  O223  1  0.87343228  0.25289726  0.01301572  1
  O  O224  1  0.86216675  0.25337614  0.50359252  1
  O  O225  1  0.86599750  0.75944239  -0.00259392  1
  O  O226  1  0.86479715  0.75330777  0.50501585  1
  O  O227  1  0.13874089  0.24533701  0.50571008  1
  O  O228  1  0.13298521  0.24055556  1.00829738  1
  O  O229  1  0.13672459  0.75116484  0.48895095  1
  O  O230  1  0.11719396  0.73612300  1.00055974  1
  O  O231  1  0.63088778  0.24294022  0.49257139  1
  O  O232  1  0.62546381  0.23708577  1.00351861  1
  O  O233  1  0.64359798  0.74689097  0.50064459  1
  O  O234  1  0.63241545  0.75809766  0.98465527  1
  O  O235  1  0.48248451  0.24998028  0.11547645  1
  O  O236  1  0.48773361  0.25541153  0.62863887  1
  O  O237  1  0.48950296  0.73152300  0.12211698  1
  O  O238  1  0.50309513  0.73631159  0.62164167  1
  O  O239  1  0.99269301  0.24720353  0.13088217  1
  O  O240  1  0.99707903  0.24648974  0.63171506  1
  O  O241  1  0.99812890  0.73872848  0.12648240  1
  O  O242  1  1.00060354  0.74287220  0.63928150  1
  O  O243  1  0.00681955  0.26944106  0.37052239  1
  O  O244  1  -0.00919993  0.26379987  0.87046771  1
  O  O245  1  0.00660593  0.76019105  0.38004445  1
  O  O246  1  -0.00646941  0.75565842  0.86212394  1
  O  O247  1  0.51295717  0.25353541  0.38132196  1
  O  O248  1  0.49064356  0.26684269  0.87398611  1
  O  O249  1  0.50029699  0.76013539  0.37335474  1
  O  O250  1  0.50797474  0.75843626  0.87382591  1
  O  O251  1  0.24664910  0.13084723  0.49724002  1
  O  O252  1  0.24319221  0.13000709  0.99528251  1
  O  O253  1  0.25482930  0.63153779  0.49227391  1
  O  O254  1  0.23947474  0.61743140  0.98894240  1
  O  O255  1  0.74275488  0.13016875  0.48934641  1
  O  O256  1  0.74343635  0.12678655  0.99004113  1
  O  O257  1  0.75453008  0.63859810  0.51087455  1
  O  O258  1  0.75575995  0.63445510  0.98375848  1
  O  O259  1  0.25147577  0.36972500  0.00481341  1
  O  O260  1  0.25380755  0.36522447  0.51182953  1
  O  O261  1  0.26465358  0.88692557  -0.00180270  1
  O  O262  1  0.24893543  0.86812392  0.51324667  1
  O  O263  1  0.73852745  0.37471453  0.01652974  1
  O  O264  1  0.75243845  0.37073187  0.50562554  1
  O  O265  1  0.75935356  0.86800961  -0.01007459  1
  O  O266  1  0.75092839  0.86672630  0.50855524  1
  O  O267  1  0.11642135  0.49177911  0.23332421  1
  O  O268  1  0.13937015  0.48957813  0.75610250  1
  O  O269  1  0.13672042  1.00796170  0.23973254  1
  O  O270  1  0.13276315  0.99210420  0.74712933  1
  O  O271  1  0.62497373  0.48425865  0.25721732  1
  O  O272  1  0.63812269  0.49084598  0.75336919  1
  O  O273  1  0.64601446  0.99711437  0.25021121  1
  O  O274  1  0.63217295  0.99643323  0.74086266  1
  O  O275  1  0.35702237  0.00730342  0.23915640  1
  O  O276  1  0.36281898  0.00894567  0.74442439  1
  O  O277  1  0.37780950  0.50583403  0.26352203  1
  O  O278  1  0.36863337  0.50686675  0.75897925  1
  O  O279  1  0.86854201  0.00148541  0.26325314  1
  O  O280  1  0.87158088  0.00672062  0.75455236  1
  O  O281  1  0.87238931  0.50761861  0.25776413  1
  O  O282  1  0.86537937  0.50681699  0.75902412  1
  O  O283  1  0.12812781  0.37328201  0.35166736  1
  O  O284  1  0.11383767  0.38165786  0.86822056  1
  O  O285  1  0.11722239  0.86732254  0.37956108  1
  O  O286  1  0.11709625  0.88272460  0.86487886  1
  O  O287  1  0.62456732  0.36448790  0.36116486  1
  O  O288  1  0.61615771  0.37907139  0.86578228  1
  O  O289  1  0.61549987  0.86549434  0.36737644  1
  O  O290  1  0.61712182  0.86924067  0.86825914  1
  O  O291  1  0.37071136  0.14010502  0.12178494  1
  O  O292  1  0.36730100  0.13509228  0.64012225  1
  O  O293  1  0.37042271  0.61893211  0.13710119  1
  O  O294  1  0.38409863  0.61968613  0.63544436  1
  O  O295  1  0.88892286  0.13535449  0.12145281  1
  O  O296  1  0.88062248  0.13016509  0.62933586  1
  O  O297  1  0.88442815  0.62605611  0.13096578  1
  O  O298  1  0.88384006  0.62454839  0.63999349  1
  O  O299  1  0.25603830  0.25767534  0.11394931  1
  O  O300  1  0.25875361  0.25602726  0.62117214  1
  O  O301  1  0.25097353  0.75421294  0.12938488  1
  O  O302  1  0.24017784  0.75702468  0.61760173  1
  O  O303  1  0.76076292  0.25753846  0.12510390  1
  O  O304  1  0.75542437  0.25909029  0.61865460  1
  O  O305  1  0.74981288  0.74090219  0.10562166  1
  O  O306  1  0.75225192  0.76029563  0.62174334  1
  O  O307  1  0.24880603  0.24444845  0.38671201  1
  O  O308  1  0.25219307  0.24380098  0.88785561  1
  O  O309  1  0.24233628  0.74102139  0.38282733  1
  O  O310  1  0.25058288  0.73527723  0.86928884  1
  O  O311  1  0.74354456  0.24450727  0.37786201  1
  O  O312  1  0.75980545  0.23931178  0.87652855  1
  O  O313  1  0.75541974  0.75474099  0.39005148  1
  O  O314  1  0.74218256  0.74402103  0.87810028  1
  O  O315  1  0.00605508  0.12297063  0.00705340  1
  O  O316  1  0.00677211  0.12360475  0.50554898  1
  O  O317  1  0.00462585  0.61750529  0.00470578  1
  O  O318  1  -0.00517642  0.62787587  0.52038205  1
  O  O319  1  0.50753554  0.11820636  -0.00512016  1
  O  O320  1  0.51710510  0.12134481  0.49287551  1
  O  O321  1  0.48884907  0.61775491  0.01202527  1
  O  O322  1  0.49387817  0.61486780  0.51189782  1
  O  O323  1  0.49750783  0.38476730  0.50029430  1
  O  O324  1  0.49623605  0.38507778  0.99278085  1
  O  O325  1  0.49846071  0.87549773  0.48812683  1
  O  O326  1  0.49130047  0.88378652  0.99319137  1
  O  O327  1  0.97182595  0.35291389  0.50309079  1
  O  O328  1  1.00560137  0.38770296  0.99189696  1
  O  O329  1  1.00284777  0.88413476  0.49477174  1
  O  O330  1  0.99102613  0.88154262  0.99372038  1
  O  O331  1  0.48810146  0.49735895  0.38714827  1
  O  O332  1  0.49091067  0.49628510  0.87940859  1
  O  O333  1  0.50882308  0.98325678  0.37751886  1
  O  O334  1  0.50599982  0.98846015  0.88432980  1
  O  O335  1  0.99201883  0.48360720  0.36746670  1
  O  O336  1  0.99255290  0.49408238  0.88019446  1
  O  O337  1  0.99865010  0.99812136  0.37879543  1
  O  O338  1  0.99373822  0.99595410  0.88150953  1
  O  O339  1  0.00376803  0.01075719  0.12351593  1
  O  O340  1  0.00546656  0.00743838  0.62158925  1
  O  O341  1  0.00372637  0.50763305  0.11627474  1
  O  O342  1  -0.00274956  0.51028145  0.63161002  1
  O  O343  1  0.50113696  0.00741090  0.11162838  1
  O  O344  1  0.51787010  -0.00551777  0.62288793  1
  O  O345  1  0.49208619  0.51009125  0.11269471  1
  O  O346  1  0.49482789  0.50467946  0.61166078  1
  O  O347  1  0.23808542  0.36658174  0.23408029  1
  O  O348  1  0.24684124  0.37973030  0.74972477  1
  O  O349  1  0.25443940  0.88847935  0.25310571  1
  O  O350  1  0.24377015  0.87976189  0.75037923  1
  O  O351  1  0.74051866  0.38002452  0.23764192  1
  O  O352  1  0.74478399  0.38119631  0.74434281  1
  O  O353  1  0.75708104  0.88798613  0.25383769  1
  O  O354  1  0.74582964  0.88036421  0.74336054  1
  O  O355  1  0.25130660  0.12187525  0.26093334  1
  O  O356  1  0.25420638  0.11909701  0.75859196  1
  O  O357  1  0.25669233  0.62332834  0.26607653  1
  O  O358  1  0.25577825  0.61686264  0.75488828  1
  O  O359  1  0.74848630  0.11920507  0.26237500  1
  O  O360  1  0.75650639  0.12226800  0.75521672  1
  O  O361  1  0.76584103  0.62441840  0.23993970  1
  O  O362  1  0.75572028  0.61974078  0.75492272  1
  O  O363  1  0.36153693  0.12928108  0.37861447  1
  O  O364  1  0.36059495  0.12959622  0.86876495  1
  O  O365  1  0.36760693  0.61590403  0.36952096  1
  O  O366  1  0.36887431  0.61685479  0.86949927  1
  O  O367  1  0.86907258  0.11917519  0.38180532  1
  O  O368  1  0.86889920  0.11966267  0.86993130  1
  O  O369  1  0.88801017  0.61302231  0.36547551  1
  O  O370  1  0.86715161  0.61750905  0.86512240  1
  O  O371  1  0.13023008  0.38230394  0.12484348  1
  O  O372  1  0.14186240  0.37348941  0.64125898  1
  O  O373  1  0.12153584  0.89153539  0.11687383  1
  O  O374  1  0.13191771  0.87956217  0.63860684  1
  O  O375  1  0.63524192  0.36788041  0.13703702  1
  O  O376  1  0.63755551  0.37261535  0.63128507  1
  O  O377  1  0.62102136  0.87936094  0.12870338  1
  O  O378  1  0.63474205  0.88196762  0.62837887  1
  O  O379  1  0.11462967  0.25841152  0.24380285  1
  O  O380  1  0.12065102  0.26151329  0.75011353  1
  O  O381  1  0.12025236  0.74266017  0.27006786  1
  O  O382  1  0.11789267  0.76058644  0.75002326  1
  O  O383  1  0.63084969  0.25888887  0.25738811  1
  O  O384  1  0.62386525  0.26285682  0.74527882  1
  O  O385  1  0.61802544  0.75019370  0.25063345  1
  O  O386  1  0.62204034  0.75771330  0.75851995  1
  O  O387  1  0.36860757  0.24944321  0.23362520  1
  O  O388  1  0.37753869  0.24097078  0.74586784  1
  O  O389  1  0.37800810  0.73134285  0.25070730  1
  O  O390  1  0.37936168  0.73491626  0.75673018  1
  O  O391  1  0.88766322  0.25884301  0.24319025  1
  O  O392  1  0.88272152  0.24520335  0.74260554  1
  O  O393  1  0.88067282  0.74104896  0.24946791  1
  O  O394  1  0.88204563  0.74091593  0.74979546  1
  O  O395  1  0.38467713  0.49519688  0.49225068  1
  O  O396  1  0.37836910  0.49476623  0.98913610  1
  O  O397  1  0.37824041  0.99063713  0.51346239  1
  O  O398  1  0.38494249  0.99289616  1.00106852  1
  O  O399  1  0.87175238  0.48863178  0.49147709  1
  O  O400  1  0.88398614  0.50922278  0.98842973  1
  O  O401  1  0.88360087  1.00100238  0.49041327  1
  O  O402  1  0.87848500  0.99448823  0.99578499  1
  O  O403  1  0.11845795  0.01089241  0.00834290  1
  O  O404  1  0.12225935  0.00694007  0.50737635  1
  O  O405  1  0.11396506  0.50778557  0.00888353  1
  O  O406  1  0.09033230  0.41734185  0.48293814  1
  O  O407  1  0.61688853  0.01081729  -0.00100950  1
  O  O408  1  0.63087037  0.00765855  0.50585650  1
  O  O409  1  0.61082463  0.50388747  -0.00874515  1
  O  O410  1  0.60916936  0.49781831  0.49381247  1
  O  O411  1  0.36608995  0.36966608  0.12036130  1
  O  O412  1  0.36513869  0.36443947  0.63041910  1
  O  O413  1  0.37537203  0.87431826  0.11032001  1
  O  O414  1  0.35924018  0.87068040  0.63640380  1
  O  O415  1  0.86077811  0.37130790  0.12925216  1
  O  O416  1  0.86320172  0.37027549  0.61998733  1
  O  O417  1  0.88237125  0.87378314  0.11090348  1
  O  O418  1  0.86508569  0.87523958  0.62403707  1
  O  O419  1  0.13579417  0.12970257  0.38420375  1
  O  O420  1  0.13388051  0.12160997  0.88740297  1
  O  O421  1  0.13360828  0.62626763  0.37577092  1
  O  O422  1  0.13391587  0.61582894  0.88369583  1
  O  O423  1  0.63593168  0.13087810  0.38068414  1
  O  O424  1  0.63754010  0.12250223  0.88019524  1
  O  O425  1  0.62100705  0.62826051  0.38032247  1
  O  O426  1  0.63371773  0.63449745  0.86417123  1
