# generated using pymatgen
data_V85Zn86O256
_symmetry_space_group_name_H-M   'P 1'
_cell_length_a   16.94728260
_cell_length_b   16.95555900
_cell_length_c   16.95152406
_cell_angle_alpha   89.97335598
_cell_angle_beta   90.00075746
_cell_angle_gamma   89.94266586
_symmetry_Int_Tables_number   1
_chemical_formula_structural   V85Zn86O256
_chemical_formula_sum   'V85 Zn86 O256'
_cell_volume   4871.02849191
_cell_formula_units_Z   1
loop_
 _symmetry_equiv_pos_site_id
 _symmetry_equiv_pos_as_xyz
  1  'x, y, z'
loop_
 _atom_site_type_symbol
 _atom_site_label
 _atom_site_symmetry_multiplicity
 _atom_site_fract_x
 _atom_site_fract_y
 _atom_site_fract_z
 _atom_site_occupancy
  V  V0  1  0.37417280  0.11236588  0.74858467  1
  V  V1  1  0.49876030  0.49871088  0.00102505  1
  V  V2  1  0.49996469  0.49616938  0.49741429  1
  V  V3  1  0.62476337  0.87547316  0.75097341  1
  V  V4  1  0.61751340  0.01021919  0.62718482  1
  V  V5  1  0.12831740  0.24915170  0.87434777  1
  V  V6  1  0.37344416  0.87860457  -0.00572618  1
  V  V7  1  0.51028614  0.37037174  0.37192606  1
  V  V8  1  0.12584076  0.23945843  0.37549474  1
  V  V9  1  0.00490542  0.49864633  0.00405566  1
  V  V10  1  0.49647250  0.12556881  0.12571970  1
  V  V11  1  0.37789207  0.24491557  0.62606701  1
  V  V12  1  0.49434314  -0.00067270  -0.00440743  1
  V  V13  1  0.87712800  0.89110986  0.49948680  1
  V  V14  1  0.75091032  0.49779045  0.75030054  1
  V  V15  1  0.37260589  0.24928171  0.12693998  1
  V  V16  1  0.50959761  0.25225603  0.25385424  1
  V  V17  1  0.62500548  0.62505422  0.00134071  1
  V  V18  1  0.49998148  -0.00772776  0.49838880  1
  V  V19  1  0.75389740  0.62945887  0.37089749  1
  V  V20  1  0.87682547  0.75161494  0.62267237  1
  V  V21  1  0.00091441  0.37461977  0.87457141  1
  V  V22  1  -0.00042015  0.62156118  0.12871962  1
  V  V23  1  0.62511485  0.49702502  0.12751278  1
  V  V24  1  0.37551306  0.74938638  0.12638058  1
  V  V25  1  0.75131300  0.87714233  0.62564799  1
  V  V26  1  0.37307772  0.37238882  -0.00017557  1
  V  V27  1  0.49815913  0.37244662  0.87231789  1
  V  V28  1  0.62998884  0.13097999  0.49246716  1
  V  V29  1  0.24897729  0.74919670  0.00049650  1
  V  V30  1  0.62578891  0.24851802  0.87455971  1
  V  V31  1  0.62880270  0.62588364  0.49874284  1
  V  V32  1  0.12549472  0.62316955  0.00339506  1
  V  V33  1  0.75109274  0.62565281  0.87570929  1
  V  V34  1  0.13392723  0.62608458  0.49672327  1
  V  V35  1  0.13023923  0.74611641  0.37614258  1
  V  V36  1  0.12390400  0.37350533  0.24705690  1
  V  V37  1  0.75153444  0.24651127  -0.00332997  1
  V  V38  1  0.87293921  0.12556755  0.75588838  1
  V  V39  1  0.24527789  0.37859723  0.12344655  1
  V  V40  1  0.62660587  0.12354484  -0.00380497  1
  V  V41  1  0.00186450  0.11782139  0.60726627  1
  V  V42  1  0.74754090  0.50140601  0.24993510  1
  V  V43  1  0.50231082  0.75419890  0.25612145  1
  V  V44  1  0.87713266  0.00252421  0.88267254  1
  V  V45  1  0.00238915  0.37160432  0.37074893  1
  V  V46  1  0.62751106  -0.00143338  0.12754580  1
  V  V47  1  0.12313371  0.87908913  0.24884350  1
  V  V48  1  0.38100840  -0.01696730  0.37870931  1
  V  V49  1  0.24719469  0.23387000  0.49567392  1
  V  V50  1  0.24949006  0.00312341  0.25717255  1
  V  V51  1  0.37486898  0.62498021  0.74788548  1
  V  V52  1  0.24281597  0.50004926  0.74351685  1
  V  V53  1  0.00757876  0.50119230  0.50317758  1
  V  V54  1  0.37121799  0.12679318  0.26142662  1
  V  V55  1  0.87843950  0.50737933  0.36955598  1
  V  V56  1  0.00811703  0.62351261  0.62542746  1
  V  V57  1  0.87403521  0.74721104  0.12673481  1
  V  V58  1  0.88532189  0.24601381  0.13463811  1
  V  V59  1  -0.00574142  0.74474280  0.25311380  1
  V  V60  1  0.49924067  0.62478213  0.12672040  1
  V  V61  1  0.87092289  0.25246177  0.62217070  1
  V  V62  1  0.00317034  0.24745490  0.74813261  1
  V  V63  1  0.74917708  0.00395817  0.75723694  1
  V  V64  1  0.87036958  0.37637463  0.50111485  1
  V  V65  1  0.25165855  0.10995598  0.86935814  1
  V  V66  1  0.87658901  0.37448599  -0.00064988  1
  V  V67  1  0.24846901  0.50419308  0.25593477  1
  V  V68  1  0.62155267  0.87884551  0.25947769  1
  V  V69  1  0.00163355  0.87894847  0.88046572  1
  V  V70  1  0.75107756  0.75188888  0.00249477  1
  V  V71  1  0.49884045  0.74886910  0.75030706  1
  V  V72  1  0.24956145  0.62495763  0.87491939  1
  V  V73  1  -0.00507348  0.88559408  0.38072429  1
  V  V74  1  0.24250325  0.37667512  0.62055513  1
  V  V75  1  0.00116360  0.11065383  0.13161301  1
  V  V76  1  0.76180212  0.01125091  0.26347121  1
  V  V77  1  0.11725966  0.11245821  0.00203866  1
  V  V78  1  0.87615176  0.62674000  0.74912322  1
  V  V79  1  0.62516500  0.75161400  0.87635882  1
  V  V80  1  0.74556429  0.37284260  0.12936753  1
  V  V81  1  0.24560394  0.88079287  0.12674607  1
  V  V82  1  0.62619773  0.49895196  0.62610414  1
  V  V83  1  0.25900370  0.87360393  0.62268606  1
  V  V84  1  0.12962817  -0.00168535  0.61585046  1
  Zn  Zn85  1  0.74770524  0.37064687  0.62061823  1
  Zn  Zn86  1  0.00438109  0.75436693  0.74934885  1
  Zn  Zn87  1  0.49988017  0.62533123  0.62231612  1
  Zn  Zn88  1  0.87796074  0.88154128  0.00497145  1
  Zn  Zn89  1  0.26407411  0.75553517  0.49072543  1
  Zn  Zn90  1  0.24954894  0.24653374  -0.00020425  1
  Zn  Zn91  1  0.50065496  0.24429552  0.74289506  1
  Zn  Zn92  1  0.49367799  0.87843705  0.87294185  1
  Zn  Zn93  1  0.12327300  0.75199730  0.87226201  1
  Zn  Zn94  1  0.38075488  0.75524642  0.61406028  1
  Zn  Zn95  1  0.12811205  0.88215729  0.75032223  1
  Zn  Zn96  1  0.37433835  0.36966750  0.49679589  1
  Zn  Zn97  1  0.75125990  0.75416616  0.49714612  1
  Zn  Zn98  1  0.75333774  0.87650181  0.12800954  1
  Zn  Zn99  1  0.65255953  0.24608909  0.37364071  1
  Zn  Zn100  1  0.37334915  0.49697573  0.87350905  1
  Zn  Zn101  1  0.62408084  0.37176202  0.74814785  1
  Zn  Zn102  1  0.87655387  0.50166714  0.87577819  1
  Zn  Zn103  1  0.36892105  0.62713341  0.25468340  1
  Zn  Zn104  1  0.62294435  0.75788231  0.37990692  1
  Zn  Zn105  1  0.37291501  0.49947436  0.37574985  1
  Zn  Zn106  1  0.12143669  0.38184053  0.74348339  1
  Zn  Zn107  1  0.18454431  0.18813476  0.18790382  1
  Zn  Zn108  1  0.18811247  0.18139017  0.68299312  1
  Zn  Zn109  1  0.18316105  0.69036873  0.18660415  1
  Zn  Zn110  1  0.18843469  0.69605578  0.68788976  1
  Zn  Zn111  1  0.68968682  0.18521804  0.18382620  1
  Zn  Zn112  1  0.68774722  0.18611134  0.68726672  1
  Zn  Zn113  1  0.68567483  0.68721481  0.19012074  1
  Zn  Zn114  1  0.68924751  0.68807984  0.68710108  1
  Zn  Zn115  1  0.31559390  0.31630405  0.31529288  1
  Zn  Zn116  1  0.31040247  0.30979141  0.80734330  1
  Zn  Zn117  1  0.31454336  0.81160388  0.31136848  1
  Zn  Zn118  1  0.30675510  0.81387806  0.80735471  1
  Zn  Zn119  1  0.82001327  0.31953650  0.30889804  1
  Zn  Zn120  1  0.81363838  0.31331218  0.81225688  1
  Zn  Zn121  1  0.80964850  0.82113294  0.31085673  1
  Zn  Zn122  1  0.81565354  0.81503134  0.81334759  1
  Zn  Zn123  1  0.18754329  0.43259863  0.43728568  1
  Zn  Zn124  1  0.18764347  0.43795464  0.93385917  1
  Zn  Zn125  1  0.18624305  0.93958488  0.44085218  1
  Zn  Zn126  1  0.18604373  0.93661175  0.93970418  1
  Zn  Zn127  1  0.68591065  0.43775099  0.43262683  1
  Zn  Zn128  1  0.68698742  0.43577468  0.93878889  1
  Zn  Zn129  1  0.69105848  0.94493168  0.44123758  1
  Zn  Zn130  1  0.68833929  0.93493316  0.93921358  1
  Zn  Zn131  1  0.30793577  0.06441209  0.06365260  1
  Zn  Zn132  1  0.31360062  0.05782455  0.56169545  1
  Zn  Zn133  1  0.31313910  0.55939141  0.06643603  1
  Zn  Zn134  1  0.31515954  0.56329545  0.56421298  1
  Zn  Zn135  1  0.81238178  0.06612839  0.06942970  1
  Zn  Zn136  1  0.80937374  0.06756643  0.56821652  1
  Zn  Zn137  1  0.81579505  0.56310144  0.06301304  1
  Zn  Zn138  1  0.81581094  0.56196612  0.56106358  1
  Zn  Zn139  1  0.43519351  0.43439178  0.18886858  1
  Zn  Zn140  1  0.43229965  0.43373336  0.68483761  1
  Zn  Zn141  1  0.43625268  0.93757339  0.18614832  1
  Zn  Zn142  1  0.43866092  0.93689980  0.68683996  1
  Zn  Zn143  1  0.93543460  0.43594436  0.18683645  1
  Zn  Zn144  1  0.93844694  0.43894569  0.68725898  1
  Zn  Zn145  1  0.93700199  0.93529938  0.19013103  1
  Zn  Zn146  1  0.94092646  0.93965363  0.69123320  1
  Zn  Zn147  1  0.05927403  0.06225545  0.31154955  1
  Zn  Zn148  1  0.06319538  0.05912057  0.80602607  1
  Zn  Zn149  1  0.06844541  0.55972738  0.31264616  1
  Zn  Zn150  1  0.06244233  0.56478485  0.81499202  1
  Zn  Zn151  1  0.56212097  0.06587724  0.31525275  1
  Zn  Zn152  1  0.55799777  0.06396405  0.81219155  1
  Zn  Zn153  1  0.56257176  0.56534600  0.31302206  1
  Zn  Zn154  1  0.56239456  0.56214995  0.81465502  1
  Zn  Zn155  1  0.44424947  0.18167060  0.44323457  1
  Zn  Zn156  1  0.43494566  0.18565577  0.93519015  1
  Zn  Zn157  1  0.43495113  0.68131821  0.43288608  1
  Zn  Zn158  1  0.43547856  0.68824650  0.93681115  1
  Zn  Zn159  1  0.92592985  0.19299855  0.43140547  1
  Zn  Zn160  1  0.93916944  0.18718260  0.93999736  1
  Zn  Zn161  1  0.94085288  0.69155721  0.44040578  1
  Zn  Zn162  1  0.93751837  0.69049170  0.93799970  1
  Zn  Zn163  1  0.06526503  0.30749569  0.05984139  1
  Zn  Zn164  1  0.06095371  0.30819091  0.55782353  1
  Zn  Zn165  1  0.06130204  0.81188265  0.06206964  1
  Zn  Zn166  1  0.06560703  0.81324667  0.56021388  1
  Zn  Zn167  1  0.56037647  0.31140578  0.06289422  1
  Zn  Zn168  1  0.56316813  0.31203049  0.56069010  1
  Zn  Zn169  1  0.56161124  0.81439134  0.06613505  1
  Zn  Zn170  1  0.56371487  0.81472808  0.56374896  1
  O  O171  1  0.11462452  0.13324655  0.11106989  1
  O  O172  1  0.10960608  0.11867233  0.62280012  1
  O  O173  1  0.11316446  0.63121827  0.11287116  1
  O  O174  1  0.11316311  0.63398692  0.61595074  1
  O  O175  1  0.61705587  0.11855486  0.11437040  1
  O  O176  1  0.62351781  0.11494298  0.62410683  1
  O  O177  1  0.62077611  0.61778881  0.11938039  1
  O  O178  1  0.62686288  0.61566926  0.61671778  1
  O  O179  1  0.38967634  0.38100545  0.37833649  1
  O  O180  1  0.38296538  0.37127398  0.87964667  1
  O  O181  1  0.37782313  0.88445759  0.37351789  1
  O  O182  1  0.37088457  0.87014849  0.89069354  1
  O  O183  1  0.88497379  0.38491508  0.38147053  1
  O  O184  1  0.88329916  0.37537223  0.88153833  1
  O  O185  1  0.88749464  0.86882977  0.38347732  1
  O  O186  1  0.88344305  0.88449730  0.87806064  1
  O  O187  1  0.26234068  -0.00726333  0.36568324  1
  O  O188  1  0.24612899  0.01122059  0.87493271  1
  O  O189  1  0.25033757  0.49220940  0.35975774  1
  O  O190  1  0.25238353  0.50577559  0.86415936  1
  O  O191  1  0.74976216  0.00090070  0.36278799  1
  O  O192  1  0.75601023  -0.00480569  0.86308637  1
  O  O193  1  0.75773074  0.50656312  0.36817096  1
  O  O194  1  0.74959533  0.50548279  0.86703835  1
  O  O195  1  0.24978169  0.48461874  0.13200132  1
  O  O196  1  0.25612993  0.48922124  0.63248575  1
  O  O197  1  0.25574029  0.98739060  0.13764413  1
  O  O198  1  0.23827530  0.99159717  0.61952415  1
  O  O199  1  0.74860486  0.49341258  0.13088786  1
  O  O200  1  0.74366809  0.50113495  0.63354085  1
  O  O201  1  0.73754270  1.00076424  0.12951411  1
  O  O202  1  0.74203077  0.99602070  0.63901992  1
  O  O203  1  0.00777993  0.38201339  0.26088298  1
  O  O204  1  0.00155942  0.36494031  0.75248006  1
  O  O205  1  0.00575948  0.86695566  0.25881861  1
  O  O206  1  -0.00101058  0.87426731  0.76454593  1
  O  O207  1  0.49729314  0.36419149  0.25811575  1
  O  O208  1  0.50041026  0.37162840  0.76092875  1
  O  O209  1  0.50889316  0.86615625  0.24166311  1
  O  O210  1  0.50386649  0.86640232  0.75322863  1
  O  O211  1  0.49032013  0.13234446  0.24554077  1
  O  O212  1  0.47938984  0.12952226  0.76184975  1
  O  O213  1  0.50651519  0.63549179  0.24013266  1
  O  O214  1  0.49338805  0.63152376  0.75077864  1
  O  O215  1  1.00992472  0.12507985  0.23050118  1
  O  O216  1  0.99066686  0.13349031  0.74297743  1
  O  O217  1  1.01039903  0.63337765  0.24105828  1
  O  O218  1  0.99481046  0.62430439  0.74082685  1
  O  O219  1  0.37333469  0.25391961  0.00824414  1
  O  O220  1  0.36296631  0.24489817  0.50512937  1
  O  O221  1  0.36936261  0.75740458  0.00696597  1
  O  O222  1  0.37543241  0.74091536  0.50254798  1
  O  O223  1  0.86669488  0.25371954  0.00385296  1
  O  O224  1  0.88479910  0.26612703  0.51302185  1
  O  O225  1  0.86890985  0.74993383  0.01098471  1
  O  O226  1  0.87426147  0.75772992  0.51115510  1
  O  O227  1  0.13670264  0.25271200  0.48859290  1
  O  O228  1  0.12548393  0.24084770  0.98622390  1
  O  O229  1  0.12437164  0.74142592  0.49017985  1
  O  O230  1  0.13090238  0.74079385  0.99823295  1
  O  O231  1  0.62138377  0.23414552  0.50278195  1
  O  O232  1  0.63056727  0.24297424  0.99532085  1
  O  O233  1  0.62789062  0.73920964  0.50030296  1
  O  O234  1  0.62963816  0.74499204  0.99755471  1
  O  O235  1  0.49428293  0.24653475  0.13384944  1
  O  O236  1  0.48270033  0.25526166  0.62314212  1
  O  O237  1  0.49479849  0.74446223  0.13106358  1
  O  O238  1  0.50223640  0.74835934  0.63885350  1
  O  O239  1  0.98721948  0.24924399  0.12084086  1
  O  O240  1  0.99428703  0.24161827  0.63135466  1
  O  O241  1  0.99412204  0.74285410  0.13269799  1
  O  O242  1  0.99142479  0.74246158  0.62392850  1
  O  O243  1  0.01196162  0.26124502  0.38406882  1
  O  O244  1  0.00714279  0.25296550  0.86652733  1
  O  O245  1  0.00675935  0.75496119  0.36706563  1
  O  O246  1  -0.00190058  0.76447907  0.87341032  1
  O  O247  1  0.49672965  0.25621898  0.36722375  1
  O  O248  1  0.50929176  0.25805334  0.87833697  1
  O  O249  1  0.50508775  0.74416048  0.35925735  1
  O  O250  1  0.50575961  0.75093048  0.86584503  1
  O  O251  1  0.24831683  0.13565128  0.50137648  1
  O  O252  1  0.23968126  0.12593300  0.98973292  1
  O  O253  1  0.23539302  0.62315009  0.50715233  1
  O  O254  1  0.24333769  0.62690332  0.99834877  1
  O  O255  1  0.72947681  0.11771158  0.50807570  1
  O  O256  1  0.73857916  0.13612729  1.00745740  1
  O  O257  1  0.74401014  0.62371107  0.49097034  1
  O  O258  1  0.74500996  0.62987617  0.99616810  1
  O  O259  1  0.25278694  0.37307879  0.00659148  1
  O  O260  1  0.25339052  0.36971609  0.50699441  1
  O  O261  1  0.25342545  0.87189897  0.00881558  1
  O  O262  1  0.24290551  0.87276176  0.51513518  1
  O  O263  1  0.75536250  0.36729578  0.00858048  1
  O  O264  1  0.76653008  0.38735453  0.50049454  1
  O  O265  1  0.75285263  0.86620634  0.00606276  1
  O  O266  1  0.75883365  0.87462713  0.50661488  1
  O  O267  1  0.13533578  0.48552050  0.25295331  1
  O  O268  1  0.13762499  0.50237186  0.75141963  1
  O  O269  1  0.13441193  0.98711150  0.26029146  1
  O  O270  1  0.11752443  0.99981887  0.72787448  1
  O  O271  1  0.63875368  0.50268034  0.24420830  1
  O  O272  1  0.63288473  0.50133848  0.74198111  1
  O  O273  1  0.62397098  0.99627641  0.24247973  1
  O  O274  1  0.62905977  0.99846399  0.74727751  1
  O  O275  1  0.37087127  0.00470182  0.26021479  1
  O  O276  1  0.37603412  0.01304521  0.74694618  1
  O  O277  1  0.35744985  0.49799290  0.24604903  1
  O  O278  1  0.36702028  0.50859847  0.75068117  1
  O  O279  1  0.86028018  -0.00352619  0.24626025  1
  O  O280  1  0.86761762  0.00768871  0.75748318  1
  O  O281  1  0.86639380  0.49626215  0.26139055  1
  O  O282  1  0.86636616  0.50651528  0.75072254  1
  O  O283  1  0.11719298  0.36857581  0.36815931  1
  O  O284  1  0.11953457  0.36469059  0.87088371  1
  O  O285  1  0.11254586  0.86758454  0.37005147  1
  O  O286  1  0.11167188  0.87902471  0.87501147  1
  O  O287  1  0.61891363  0.35998395  0.38207917  1
  O  O288  1  0.61602552  0.36538901  0.87630601  1
  O  O289  1  0.62977799  0.87714149  0.36371381  1
  O  O290  1  0.62248875  0.86869242  0.86883160  1
  O  O291  1  0.37819949  0.12932066  0.13376869  1
  O  O292  1  0.36210233  0.13055178  0.63982714  1
  O  O293  1  0.38049230  0.63144960  0.12898062  1
  O  O294  1  0.37893847  0.62704374  0.63869358  1
  O  O295  1  0.88945045  0.13686644  0.11665642  1
  O  O296  1  0.88399878  0.13268104  0.63302551  1
  O  O297  1  0.88767935  0.63467792  0.12232771  1
  O  O298  1  0.88332152  0.63317950  0.62712609  1
  O  O299  1  0.25513321  0.25900433  0.12475068  1
  O  O300  1  0.25322470  0.25307850  0.61237576  1
  O  O301  1  0.25429885  0.75956004  0.12196816  1
  O  O302  1  0.25315640  0.76288988  0.61957281  1
  O  O303  1  0.75763062  0.25534676  0.11681937  1
  O  O304  1  0.76634713  0.25236772  0.63387918  1
  O  O305  1  0.75997177  0.74709657  0.12326437  1
  O  O306  1  0.75992436  0.75718164  0.62458245  1
  O  O307  1  0.24124907  0.25438807  0.38677790  1
  O  O308  1  0.23828165  0.24336348  0.87357706  1
  O  O309  1  0.23463625  0.75774368  0.37292705  1
  O  O310  1  0.24886447  0.74312202  0.88315308  1
  O  O311  1  0.77513178  0.24456346  0.38433723  1
  O  O312  1  0.73994278  0.25783029  0.88633268  1
  O  O313  1  0.75022482  0.74071315  0.37456099  1
  O  O314  1  0.74547209  0.74553832  0.88044759  1
  O  O315  1  0.01234537  0.12634167  0.00427826  1
  O  O316  1  -0.01300455  0.13071687  0.50920870  1
  O  O317  1  0.00588837  0.61829406  0.00627027  1
  O  O318  1  0.00704278  0.61879039  0.50645534  1
  O  O319  1  0.50491525  0.11839493  0.00466688  1
  O  O320  1  0.51400993  0.10805157  0.49760939  1
  O  O321  1  0.50428518  0.61955885  0.00540736  1
  O  O322  1  0.51499682  0.61391097  0.49993396  1
  O  O323  1  0.49962858  0.38134961  0.49200055  1
  O  O324  1  0.49423717  0.37841824  0.99316527  1
  O  O325  1  0.50902259  0.89095742  0.49946519  1
  O  O326  1  0.49016554  0.88170313  1.00144204  1
  O  O327  1  0.99595383  0.38423196  0.49242004  1
  O  O328  1  0.99839185  0.38153987  0.99670165  1
  O  O329  1  0.99389942  0.87176467  0.48679029  1
  O  O330  1  0.99821134  0.87329574  0.98705915  1
  O  O331  1  0.51313993  0.48743311  0.38396879  1
  O  O332  1  0.50023967  0.48842737  0.88124552  1
  O  O333  1  0.48649482  1.00066492  0.37703167  1
  O  O334  1  0.50425637  0.99785590  0.89154876  1
  O  O335  1  0.99452463  0.49496829  0.38046138  1
  O  O336  1  0.99924555  0.49403375  0.88484131  1
  O  O337  1  0.99979662  0.98415531  0.36895951  1
  O  O338  1  0.98978243  0.99073779  0.87042727  1
  O  O339  1  -0.00621410  0.01132510  0.12387868  1
  O  O340  1  -0.00100528  0.01431118  0.62209283  1
  O  O341  1  -0.00662775  0.50831065  0.11618221  1
  O  O342  1  -0.00487911  0.51039409  0.61435590  1
  O  O343  1  0.50779417  0.00512114  0.11728596  1
  O  O344  1  0.51070190  -0.00465802  0.61862324  1
  O  O345  1  0.50501827  0.50242285  0.12162098  1
  O  O346  1  0.51068830  0.49810412  0.61789657  1
  O  O347  1  0.24362504  0.38081314  0.24304238  1
  O  O348  1  0.24713631  0.38289329  0.74131505  1
  O  O349  1  0.24281218  0.88053625  0.24455024  1
  O  O350  1  0.24616421  0.87357989  0.73181466  1
  O  O351  1  0.75489940  0.38462562  0.23888428  1
  O  O352  1  0.74845095  0.38713699  0.74910490  1
  O  O353  1  0.73945007  0.88774214  0.24594574  1
  O  O354  1  0.74548439  0.88374671  0.74592457  1
  O  O355  1  0.25688445  0.11247138  0.24202251  1
  O  O356  1  0.25478027  0.12617667  0.76213564  1
  O  O357  1  0.24255493  0.60723685  0.24037715  1
  O  O358  1  0.25647566  0.62019690  0.75215575  1
  O  O359  1  0.74527383  0.10984563  0.24441212  1
  O  O360  1  0.76233096  0.11678898  0.74537171  1
  O  O361  1  0.74849539  0.61624744  0.26037846  1
  O  O362  1  0.75481123  0.61712096  0.75494317  1
  O  O363  1  0.37638682  0.12170976  0.36304707  1
  O  O364  1  0.35846557  0.12922103  0.86733503  1
  O  O365  1  0.38663561  0.60991611  0.36363359  1
  O  O366  1  0.36911177  0.62320729  0.86497164  1
  O  O367  1  0.82305675  0.17521365  0.37957935  1
  O  O368  1  0.88303425  0.11911178  0.86381115  1
  O  O369  1  0.86845233  0.61623908  0.38365820  1
  O  O370  1  0.86912386  0.62519698  0.86840232  1
  O  O371  1  0.13232882  0.36260033  0.13530251  1
  O  O372  1  0.13666086  0.36587497  0.62539976  1
  O  O373  1  0.13258705  0.86798290  0.13698910  1
  O  O374  1  0.12569364  0.88677341  0.62438313  1
  O  O375  1  0.63795260  0.37923210  0.11770430  1
  O  O376  1  0.62889161  0.38455547  0.62598760  1
  O  O377  1  0.62572511  0.88647029  0.13250708  1
  O  O378  1  0.63216385  0.88386868  0.63290557  1
  O  O379  1  0.13487288  0.26045433  0.26640940  1
  O  O380  1  0.11536816  0.24427038  0.75655966  1
  O  O381  1  0.11610976  0.75874264  0.25658795  1
  O  O382  1  0.12146403  0.75778248  0.75553247  1
  O  O383  1  0.61332487  0.24029641  0.25297585  1
  O  O384  1  0.62301795  0.24861372  0.76068245  1
  O  O385  1  0.61972135  0.76181426  0.24911079  1
  O  O386  1  0.61872367  0.75387863  0.75502227  1
  O  O387  1  0.37935460  0.24291525  0.24613686  1
  O  O388  1  0.37286857  0.24117806  0.73971404  1
  O  O389  1  0.38374125  0.75023077  0.24363840  1
  O  O390  1  0.38402072  0.74236115  0.75010448  1
  O  O391  1  0.87386165  0.25215843  0.23298003  1
  O  O392  1  0.88381582  0.24499151  0.74557032  1
  O  O393  1  0.88655204  0.75569744  0.24373182  1
  O  O394  1  0.87532089  0.74546924  0.73799810  1
  O  O395  1  0.39234659  0.50094314  0.50275188  1
  O  O396  1  0.38105577  0.49183511  0.99811759  1
  O  O397  1  0.38123204  1.00600097  0.48435536  1
  O  O398  1  0.38319940  0.99145757  1.01002856  1
  O  O399  1  0.88706527  0.49579727  0.49129866  1
  O  O400  1  0.88557278  0.49379004  0.99856850  1
  O  O401  1  0.87036801  0.98988915  0.50721904  1
  O  O402  1  0.86333940  1.00343435  0.98636766  1
  O  O403  1  0.12623885  0.01375692  0.00104317  1
  O  O404  1  0.12089411  0.00076226  0.51378751  1
  O  O405  1  0.11494588  0.50798919  -0.00310514  1
  O  O406  1  0.11363289  0.50808081  0.48989416  1
  O  O407  1  0.61947683  0.00591167  0.00696463  1
  O  O408  1  0.62000312  0.00690653  0.50942192  1
  O  O409  1  0.61964643  0.50500283  0.00645095  1
  O  O410  1  0.62236148  0.50522244  0.50788169  1
  O  O411  1  0.36622703  0.36815508  0.11957586  1
  O  O412  1  0.36230081  0.36287948  0.62226015  1
  O  O413  1  0.36532060  0.86944423  0.11791745  1
  O  O414  1  0.36308460  0.87799338  0.62483858  1
  O  O415  1  0.86794079  0.36437843  0.11934302  1
  O  O416  1  0.87614452  0.37002348  0.61830424  1
  O  O417  1  0.87681658  0.86115548  0.12304273  1
  O  O418  1  0.87367546  0.87039038  0.61952165  1
  O  O419  1  0.11771894  0.14102800  0.37016018  1
  O  O420  1  0.13101128  0.12766405  0.88138851  1
  O  O421  1  0.11861657  0.63510019  0.38360719  1
  O  O422  1  0.12981470  0.62691727  0.88791599  1
  O  O423  1  0.62634702  0.12950770  0.38631592  1
  O  O424  1  0.61829992  0.13440613  0.88696973  1
  O  O425  1  0.63693795  0.62461899  0.38413215  1
  O  O426  1  0.63046922  0.63096883  0.88175778  1
