# generated using pymatgen
data_V85Zn86O256
_symmetry_space_group_name_H-M   'P 1'
_cell_length_a   16.95268759
_cell_length_b   16.95604546
_cell_length_c   16.93764407
_cell_angle_alpha   90.08231750
_cell_angle_beta   89.92028367
_cell_angle_gamma   90.13951506
_symmetry_Int_Tables_number   1
_chemical_formula_structural   V85Zn86O256
_chemical_formula_sum   'V85 Zn86 O256'
_cell_volume   4868.71081124
_cell_formula_units_Z   1
loop_
 _symmetry_equiv_pos_site_id
 _symmetry_equiv_pos_as_xyz
  1  'x, y, z'
loop_
 _atom_site_type_symbol
 _atom_site_label
 _atom_site_symmetry_multiplicity
 _atom_site_fract_x
 _atom_site_fract_y
 _atom_site_fract_z
 _atom_site_occupancy
  V  V0  1  0.87836203  0.49510050  0.38829895  1
  V  V1  1  0.24934120  0.00489873  0.75644139  1
  V  V2  1  0.50260680  0.74673765  0.24695873  1
  V  V3  1  0.11790972  0.49681242  0.60999754  1
  V  V4  1  0.61894083  0.36859010  0.25305764  1
  V  V5  1  0.00203335  0.00657610  0.00497235  1
  V  V6  1  0.24292447  0.74749850  0.49702337  1
  V  V7  1  0.49344025  0.25110231  0.73844375  1
  V  V8  1  0.37322875  0.50799775  0.86523094  1
  V  V9  1  0.37512307  0.37181517  0.50434029  1
  V  V10  1  0.12856181  0.01104858  0.13430385  1
  V  V11  1  0.37391476  0.00389454  0.88112737  1
  V  V12  1  0.12400267  -0.00242322  0.62351930  1
  V  V13  1  0.12781020  0.12649332  -0.00706223  1
  V  V14  1  0.87753036  0.37543052  -0.00243902  1
  V  V15  1  0.75353114  0.87595702  0.12553612  1
  V  V16  1  0.49011382  0.74677263  0.75289362  1
  V  V17  1  0.12572042  0.75097885  0.87523485  1
  V  V18  1  0.25546392  0.24677032  0.50375047  1
  V  V19  1  -0.00454382  0.37506985  0.38662722  1
  V  V20  1  0.50988087  0.10540252  0.61773847  1
  V  V21  1  0.12057293  0.11843601  0.49938066  1
  V  V22  1  0.24485422  0.37259302  0.63012067  1
  V  V23  1  0.87482054  0.50101543  0.87407978  1
  V  V24  1  0.62308850  0.62456064  0.00842847  1
  V  V25  1  0.12728168  0.25667080  0.87042911  1
  V  V26  1  0.25376943  0.76076887  0.00405351  1
  V  V27  1  0.50153628  0.88004982  0.37965788  1
  V  V28  1  0.62805566  0.00781597  0.12026407  1
  V  V29  1  0.88038032  0.24569427  0.12293019  1
  V  V30  1  0.50166735  0.00704972  0.00321510  1
  V  V31  1  0.00303334  0.62880300  0.12996716  1
  V  V32  1  0.24105373  0.50534993  0.74867864  1
  V  V33  1  0.87483792  0.00329358  0.87394202  1
  V  V34  1  0.12538117  0.87483317  0.75080573  1
  V  V35  1  0.00112551  0.24550620  0.24421889  1
  V  V36  1  0.75761560  0.00436455  0.25362679  1
  V  V37  1  0.87248150  0.87964779  0.50189957  1
  V  V38  1  0.62966121  0.75063102  0.38355424  1
  V  V39  1  0.24429410  0.62450735  0.37834214  1
  V  V40  1  0.75104768  0.37665442  0.12393448  1
  V  V41  1  0.62582627  0.23436601  0.37821342  1
  V  V42  1  0.49099235  0.50365286  0.00627656  1
  V  V43  1  0.00220688  0.87438052  0.87499128  1
  V  V44  1  -0.00132047  0.12180764  0.62750606  1
  V  V45  1  0.49930160  0.49995410  0.50008164  1
  V  V46  1  0.62437871  0.24623297  0.88092800  1
  V  V47  1  0.25077449  0.11951950  0.36798414  1
  V  V48  1  0.25512279  0.37400622  0.11783811  1
  V  V49  1  0.49002838  0.62425052  0.63017799  1
  V  V50  1  0.75407092  0.36845266  0.61754124  1
  V  V51  1  0.86320491  0.74759961  0.62077412  1
  V  V52  1  0.37448841  -0.00051452  0.37160517  1
  V  V53  1  0.87907883  0.74983745  0.12808321  1
  V  V54  1  0.12489615  0.86025925  0.24924000  1
  V  V55  1  0.49090350  0.37760744  0.87773112  1
  V  V56  1  0.62139387  0.87788171  0.74566827  1
  V  V57  1  0.25141044  0.49857056  0.24940277  1
  V  V58  1  0.75099080  0.50076954  0.25048201  1
  V  V59  1  0.74986410  0.74904285  -0.00199008  1
  V  V60  1  0.37681613  0.75825489  0.12512788  1
  V  V61  1  0.12645346  0.49992241  0.12365893  1
  V  V62  1  0.38220721  0.12702760  0.24854098  1
  V  V63  1  0.00698917  0.62685359  0.61160399  1
  V  V64  1  0.12496126  0.37343700  0.24904314  1
  V  V65  1  0.37292138  0.12704094  0.74432957  1
  V  V66  1  0.00164805  0.87601037  0.37904393  1
  V  V67  1  0.88043593  0.62861526  0.25246093  1
  V  V68  1  0.87575119  0.12507016  0.25297399  1
  V  V69  1  0.87761688  0.87485517  0.00127259  1
  V  V70  1  0.75049272  0.62792178  0.38386185  1
  V  V71  1  0.74938182  0.50257796  0.75142923  1
  V  V72  1  0.38027686  0.62539300  0.24588524  1
  V  V73  1  0.49513916  0.87512327  0.88322270  1
  V  V74  1  0.62943323  0.87592726  0.25113143  1
  V  V75  1  0.37613879  0.49867150  0.37508963  1
  V  V76  1  0.25628436  0.24786074  -0.00604254  1
  V  V77  1  0.37970020  0.24923247  0.12643661  1
  V  V78  1  0.12916700  0.62562647  -0.00244967  1
  V  V79  1  0.12442470  0.24790857  0.37382333  1
  V  V80  1  0.37494453  0.87671959  0.50113145  1
  V  V81  1  0.62155907  0.37602559  0.75007407  1
  V  V82  1  0.74543064  -0.00268840  0.74634077  1
  V  V83  1  0.00214235  0.25580373  0.74942635  1
  V  V84  1  0.62213738  0.50094189  0.62427751  1
  Zn  Zn85  1  0.86747587  0.12921208  0.75247272  1
  Zn  Zn86  1  0.62486186  0.62915187  0.50351686  1
  Zn  Zn87  1  0.87829931  0.25270565  0.61850606  1
  Zn  Zn88  1  0.49602367  0.36781081  0.37137395  1
  Zn  Zn89  1  0.36893977  0.74593127  0.62784259  1
  Zn  Zn90  1  0.73725573  0.87656843  0.61581859  1
  Zn  Zn91  1  0.00232903  0.50123934  -0.00332804  1
  Zn  Zn92  1  0.61720336  0.50425628  0.12954113  1
  Zn  Zn93  1  0.25578689  0.63333235  0.86409480  1
  Zn  Zn94  1  0.87963346  0.01273162  0.39014549  1
  Zn  Zn95  1  0.74863215  0.23690922  0.48785781  1
  Zn  Zn96  1  0.00083155  0.74712167  0.74853319  1
  Zn  Zn97  1  0.11203869  0.73533186  0.37659521  1
  Zn  Zn98  1  0.24989469  0.87256778  0.62450044  1
  Zn  Zn99  1  0.62170784  0.74871502  0.87648879  1
  Zn  Zn100  1  0.25664686  0.88457051  0.13630074  1
  Zn  Zn101  1  0.74883628  0.62653891  0.87527605  1
  Zn  Zn102  1  0.87790891  0.62876655  0.75138395  1
  Zn  Zn103  1  0.50973737  0.13629897  0.12406885  1
  Zn  Zn104  1  0.73589626  0.11493882  0.88261928  1
  Zn  Zn105  1  0.74533435  0.24285362  0.00254437  1
  Zn  Zn106  1  0.00452629  0.38031365  0.86547473  1
  Zn  Zn107  1  0.19134790  0.18736115  0.18493357  1
  Zn  Zn108  1  0.18661756  0.18599229  0.68876896  1
  Zn  Zn109  1  0.19332732  0.68663500  0.18746574  1
  Zn  Zn110  1  0.18560601  0.68629939  0.68348297  1
  Zn  Zn111  1  0.69320450  0.18929449  0.19132991  1
  Zn  Zn112  1  0.68297347  0.18352070  0.69416743  1
  Zn  Zn113  1  0.69045078  0.68840965  0.19003113  1
  Zn  Zn114  1  0.67888830  0.68906160  0.68998212  1
  Zn  Zn115  1  0.31232803  0.30897287  0.31194759  1
  Zn  Zn116  1  0.31298236  0.31486364  0.81144635  1
  Zn  Zn117  1  0.30963647  0.81242991  0.31337453  1
  Zn  Zn118  1  0.31079263  0.81867413  0.81575419  1
  Zn  Zn119  1  0.81161623  0.31192331  0.31327238  1
  Zn  Zn120  1  0.81283597  0.31213053  0.80748117  1
  Zn  Zn121  1  0.81439603  0.81314029  0.31534388  1
  Zn  Zn122  1  0.81377288  0.81586469  0.80935205  1
  Zn  Zn123  1  0.18761766  0.43465575  0.43566993  1
  Zn  Zn124  1  0.19130232  0.43709821  0.93569786  1
  Zn  Zn125  1  0.18944004  0.93540806  0.43448721  1
  Zn  Zn126  1  0.18819855  0.93923510  0.93955187  1
  Zn  Zn127  1  0.68752769  0.43814978  0.43674986  1
  Zn  Zn128  1  0.68367586  0.43784761  0.93893030  1
  Zn  Zn129  1  0.69421388  0.94109137  0.43517308  1
  Zn  Zn130  1  0.68428843  0.93386366  0.93584390  1
  Zn  Zn131  1  0.31113858  0.06468841  0.06152386  1
  Zn  Zn132  1  0.31512372  0.06016285  0.56273266  1
  Zn  Zn133  1  0.31439678  0.56746160  0.06209771  1
  Zn  Zn134  1  0.30898721  0.55952592  0.56210315  1
  Zn  Zn135  1  0.81126065  0.06595430  0.06036393  1
  Zn  Zn136  1  0.81490327  0.06465984  0.56537568  1
  Zn  Zn137  1  0.81317527  0.56358186  0.06277633  1
  Zn  Zn138  1  0.81207826  0.56091614  0.56647342  1
  Zn  Zn139  1  0.43441326  0.43554031  0.18688776  1
  Zn  Zn140  1  0.43190551  0.43797107  0.68711518  1
  Zn  Zn141  1  0.44198342  0.93986788  0.19193203  1
  Zn  Zn142  1  0.43564200  0.93609817  0.68976635  1
  Zn  Zn143  1  0.93985247  0.43861755  0.19127860  1
  Zn  Zn144  1  0.93696540  0.43916488  0.68333144  1
  Zn  Zn145  1  0.94571041  0.93641229  0.19008801  1
  Zn  Zn146  1  0.93721425  0.93621044  0.68871990  1
  Zn  Zn147  1  0.05679831  0.06059655  0.31455264  1
  Zn  Zn148  1  0.06179922  0.06600404  0.81293942  1
  Zn  Zn149  1  0.06091453  0.55527528  0.31401377  1
  Zn  Zn150  1  0.06196580  0.56408303  0.80399637  1
  Zn  Zn151  1  0.56197889  0.05901630  0.30780009  1
  Zn  Zn152  1  0.55653507  0.06270339  0.80770400  1
  Zn  Zn153  1  0.56377157  0.56108567  0.31622129  1
  Zn  Zn154  1  0.56279016  0.56694793  0.81769336  1
  Zn  Zn155  1  0.44486065  0.18662755  0.43730034  1
  Zn  Zn156  1  0.43893516  0.18552685  0.93475383  1
  Zn  Zn157  1  0.43587133  0.68822610  0.43824799  1
  Zn  Zn158  1  0.43650046  0.68605647  0.94071383  1
  Zn  Zn159  1  0.93523392  0.19397444  0.43916450  1
  Zn  Zn160  1  0.94049543  0.18866237  0.93707137  1
  Zn  Zn161  1  0.93485028  0.69215694  0.43725387  1
  Zn  Zn162  1  0.93953741  0.68567968  0.93912596  1
  Zn  Zn163  1  0.06450545  0.31419581  0.05800369  1
  Zn  Zn164  1  0.06780214  0.30641314  0.56390350  1
  Zn  Zn165  1  0.06468328  0.81494885  0.06381906  1
  Zn  Zn166  1  0.05916935  0.81307879  0.56010603  1
  Zn  Zn167  1  0.56071578  0.32140458  0.06160135  1
  Zn  Zn168  1  0.56654654  0.30776330  0.55633701  1
  Zn  Zn169  1  0.56448638  0.81754080  0.06410386  1
  Zn  Zn170  1  0.55571880  0.81165802  0.56572742  1
  O  O171  1  0.12822090  0.11572646  0.11651747  1
  O  O172  1  0.11986400  0.11744631  0.61830195  1
  O  O173  1  0.12107636  0.62139930  0.12011986  1
  O  O174  1  0.11395444  0.61432239  0.62260571  1
  O  O175  1  0.62570977  0.11282729  0.13537640  1
  O  O176  1  0.60816954  0.12744582  0.63140678  1
  O  O177  1  0.63043651  0.62320760  0.11502800  1
  O  O178  1  0.61409597  0.61925221  0.62266541  1
  O  O179  1  0.37392726  0.37925125  0.38351890  1
  O  O180  1  0.38483137  0.38618272  0.87177003  1
  O  O181  1  0.38197442  0.88068153  0.37760989  1
  O  O182  1  0.38628272  0.88974154  0.86963708  1
  O  O183  1  0.88309385  0.38326803  0.36714073  1
  O  O184  1  0.87328388  0.38293623  0.88214813  1
  O  O185  1  0.88366094  0.87014458  0.38809454  1
  O  O186  1  0.88170482  0.88299167  0.88179513  1
  O  O187  1  0.25819262  0.01157006  0.37797892  1
  O  O188  1  0.25881629  -0.00483960  0.86681444  1
  O  O189  1  0.25584066  0.50455076  0.36964430  1
  O  O190  1  0.25570988  0.50029801  0.86550340  1
  O  O191  1  0.76497711  -0.00877994  0.35660455  1
  O  O192  1  0.75975202  -0.00515029  0.87029887  1
  O  O193  1  0.75693463  0.50578080  0.36728052  1
  O  O194  1  0.75635891  0.49800781  0.86706625  1
  O  O195  1  0.24863897  0.49296431  0.12813039  1
  O  O196  1  0.23727950  0.49461249  0.62812289  1
  O  O197  1  0.23282423  0.99672969  0.11551054  1
  O  O198  1  0.23954114  0.99888295  0.63463921  1
  O  O199  1  0.75282274  0.49202645  0.13432310  1
  O  O200  1  0.74404622  0.49116875  0.63322979  1
  O  O201  1  0.74597584  0.99487087  0.13030881  1
  O  O202  1  0.75786301  0.99477913  0.64311693  1
  O  O203  1  0.00630890  0.36500654  0.25569958  1
  O  O204  1  -0.00412725  0.36069047  0.74502775  1
  O  O205  1  0.01268555  0.87527322  0.26109453  1
  O  O206  1  0.00832668  0.87330788  0.75740318  1
  O  O207  1  0.51634403  0.38208671  0.24718021  1
  O  O208  1  0.50301940  0.37136049  0.75552820  1
  O  O209  1  0.50824551  0.86746875  0.26104725  1
  O  O210  1  0.50459348  0.86885136  0.75902742  1
  O  O211  1  0.48638305  0.12152747  0.24441739  1
  O  O212  1  0.49265152  0.13220683  0.73908737  1
  O  O213  1  0.49273347  0.63484989  0.25794113  1
  O  O214  1  0.50562988  0.63505638  0.74344086  1
  O  O215  1  0.99575947  0.13875702  0.24949491  1
  O  O216  1  1.00152776  0.13495945  0.74192960  1
  O  O217  1  0.99131747  0.61870243  0.24293166  1
  O  O218  1  0.99562465  0.62760213  0.73490679  1
  O  O219  1  0.36376184  0.24001561  0.00642257  1
  O  O220  1  0.36378971  0.25809988  0.49210097  1
  O  O221  1  0.36718510  0.74220766  0.01445389  1
  O  O222  1  0.36538877  0.76053413  0.49757944  1
  O  O223  1  0.87637099  0.26015924  0.00572633  1
  O  O224  1  0.85331281  0.21229284  0.51353491  1
  O  O225  1  0.86911497  0.75398024  0.00665696  1
  O  O226  1  0.87673479  0.75931465  0.51431610  1
  O  O227  1  0.13526256  0.23820899  0.49318366  1
  O  O228  1  0.13110598  0.24332450  0.99417627  1
  O  O229  1  0.13840800  0.75685480  0.49480365  1
  O  O230  1  0.13302613  0.74418792  0.99717389  1
  O  O231  1  0.63181040  0.24713618  0.48537742  1
  O  O232  1  0.62292367  0.26143910  0.98423001  1
  O  O233  1  0.61984825  0.75130819  0.48694212  1
  O  O234  1  0.63379502  0.74499348  1.00312076  1
  O  O235  1  0.48511830  0.25241547  0.11309850  1
  O  O236  1  0.50125982  0.25391962  0.63746122  1
  O  O237  1  0.49517345  0.75851399  0.13917041  1
  O  O238  1  0.49478096  0.74079863  0.63419980  1
  O  O239  1  0.99179635  0.26042403  0.13312272  1
  O  O240  1  1.00230608  0.23942550  0.63134961  1
  O  O241  1  0.99600311  0.73686366  0.11976993  1
  O  O242  1  0.99686195  0.73766826  0.62465896  1
  O  O243  1  0.00423109  0.25516063  0.36457139  1
  O  O244  1  0.00699035  0.25285607  0.86607883  1
  O  O245  1  0.00073516  0.76484908  0.37784381  1
  O  O246  1  0.00700117  0.75658918  0.87580336  1
  O  O247  1  0.51747402  0.25400867  0.37795619  1
  O  O248  1  0.50540227  0.26027698  0.86939873  1
  O  O249  1  0.50819961  0.75757675  0.36597079  1
  O  O250  1  0.49577707  0.75816070  0.87159530  1
  O  O251  1  0.24549330  0.13070151  0.49356391  1
  O  O252  1  0.23894705  0.13623316  1.00235244  1
  O  O253  1  0.25918983  0.63327635  0.48806911  1
  O  O254  1  0.23939909  0.63540519  1.00240995  1
  O  O255  1  0.72744715  0.09012279  0.49351992  1
  O  O256  1  0.75206044  0.13107897  0.99284149  1
  O  O257  1  0.74794994  0.61954241  0.48720248  1
  O  O258  1  0.74462047  0.63420683  1.00126626  1
  O  O259  1  0.24660409  0.36589842  0.01106256  1
  O  O260  1  0.25474639  0.36623727  0.50526835  1
  O  O261  1  0.24422958  0.86302304  0.00620812  1
  O  O262  1  0.25833001  0.86615440  0.49729462  1
  O  O263  1  0.75772566  0.37469508  0.00875477  1
  O  O264  1  0.74130210  0.37379482  0.51633742  1
  O  O265  1  0.75627196  0.86753796  0.00596230  1
  O  O266  1  0.76528206  0.87603838  0.50068874  1
  O  O267  1  0.13216790  0.49333038  0.24298456  1
  O  O268  1  0.13401438  0.49790357  0.74030322  1
  O  O269  1  0.12113813  1.00321500  0.23561137  1
  O  O270  1  0.13251738  0.99727481  0.74661101  1
  O  O271  1  0.63560676  0.49455088  0.24906075  1
  O  O272  1  0.62894830  0.49346615  0.74773291  1
  O  O273  1  0.63680978  0.99399019  0.24367727  1
  O  O274  1  0.63313290  0.98905246  0.76177395  1
  O  O275  1  0.37591869  0.00725039  0.26241667  1
  O  O276  1  0.36690201  0.00563486  0.75723252  1
  O  O277  1  0.37187859  0.50685058  0.25358915  1
  O  O278  1  0.36244953  0.49707368  0.75712424  1
  O  O279  1  0.87229699  0.01166273  0.23816427  1
  O  O280  1  0.86720565  -0.00451358  0.76136651  1
  O  O281  1  0.86698861  0.50914416  0.25598087  1
  O  O282  1  0.86478988  0.49881504  0.75699902  1
  O  O283  1  0.11836561  0.36850561  0.36890894  1
  O  O284  1  0.12042529  0.36248431  0.88329295  1
  O  O285  1  0.11475697  0.87788835  0.36638625  1
  O  O286  1  0.12133517  0.87073545  0.87129991  1
  O  O287  1  0.62518058  0.37555335  0.36000739  1
  O  O288  1  0.61384239  0.37303252  0.86514975  1
  O  O289  1  0.62174298  0.87155829  0.37314759  1
  O  O290  1  0.61214160  0.87116991  0.86803927  1
  O  O291  1  0.37207300  0.13228402  0.13395151  1
  O  O292  1  0.38365348  0.11696622  0.63841793  1
  O  O293  1  0.37098106  0.63598661  0.13963908  1
  O  O294  1  0.38632012  0.62252587  0.62269475  1
  O  O295  1  0.87386324  0.14070239  0.13008025  1
  O  O296  1  0.89144008  0.11515895  0.63343479  1
  O  O297  1  0.88355605  0.62758660  0.13260271  1
  O  O298  1  0.88078335  0.63560065  0.62407420  1
  O  O299  1  0.25656017  0.25643324  0.11597126  1
  O  O300  1  0.23975165  0.25794542  0.61358931  1
  O  O301  1  0.25887762  0.75511261  0.12133233  1
  O  O302  1  0.25155851  0.75047357  0.61394110  1
  O  O303  1  0.76034163  0.26223627  0.12596710  1
  O  O304  1  0.74305007  0.26468070  0.63252349  1
  O  O305  1  0.75785195  0.75499906  0.11778693  1
  O  O306  1  0.76042683  0.75056391  0.62835760  1
  O  O307  1  0.24420755  0.24074898  0.38285346  1
  O  O308  1  0.24292308  0.25949226  0.88488386  1
  O  O309  1  0.24798429  0.73930971  0.37976994  1
  O  O310  1  0.24679538  0.75068831  0.88541824  1
  O  O311  1  0.73340691  0.25491719  0.37096094  1
  O  O312  1  0.73038314  0.25629480  0.87028036  1
  O  O313  1  0.74090937  0.74008198  0.36832378  1
  O  O314  1  0.75192794  0.75198209  0.88886963  1
  O  O315  1  0.00965397  0.11507205  -0.00191805  1
  O  O316  1  0.01421575  0.13071996  0.50815603  1
  O  O317  1  0.01223566  0.62319246  0.00914087  1
  O  O318  1  -0.00544047  0.62623141  0.51242888  1
  O  O319  1  0.49972605  0.11194145  0.00408285  1
  O  O320  1  0.49013765  0.12619474  0.52024146  1
  O  O321  1  0.50855055  0.61214634  -0.00397183  1
  O  O322  1  0.49988803  0.61867036  0.50843834  1
  O  O323  1  0.48937504  0.37957219  0.50196918  1
  O  O324  1  0.50584212  0.39314181  0.98780876  1
  O  O325  1  0.49010926  0.86735130  0.48781623  1
  O  O326  1  0.50365347  0.88493466  0.99102914  1
  O  O327  1  1.00148388  0.35960727  0.48570652  1
  O  O328  1  0.98779524  0.38019644  0.99845852  1
  O  O329  1  0.99244435  0.87568207  0.48900097  1
  O  O330  1  0.99791238  0.88406462  0.99527211  1
  O  O331  1  0.49362128  0.49552423  0.38158989  1
  O  O332  1  0.49156712  0.49594414  0.87804869  1
  O  O333  1  0.49358410  0.98804091  0.37105526  1
  O  O334  1  0.49516971  0.99472227  0.88325235  1
  O  O335  1  0.99076319  0.48745830  0.37057019  1
  O  O336  1  0.98840778  0.49890609  0.87239804  1
  O  O337  1  0.99228798  0.98475207  0.37048973  1
  O  O338  1  0.99520374  0.99466411  0.88293428  1
  O  O339  1  0.01548221  -0.00626798  0.11296076  1
  O  O340  1  0.01504255  0.00783152  0.63459559  1
  O  O341  1  0.00675154  0.51061731  0.12387921  1
  O  O342  1  0.00994285  0.50805488  0.62603680  1
  O  O343  1  0.51034530  -0.00173914  0.11896643  1
  O  O344  1  0.50327968  0.00523230  0.62897569  1
  O  O345  1  0.49695110  0.49512494  0.10978957  1
  O  O346  1  0.50259582  0.50583376  0.62243543  1
  O  O347  1  0.24457062  0.37842596  0.24215998  1
  O  O348  1  0.25472484  0.38124508  0.73531808  1
  O  O349  1  0.23071189  0.87575943  0.25649779  1
  O  O350  1  0.24391749  0.88639765  0.74731499  1
  O  O351  1  0.74409109  0.38384375  0.24239966  1
  O  O352  1  0.73916367  0.38433799  0.74420211  1
  O  O353  1  0.75040124  0.88125645  0.24373959  1
  O  O354  1  0.73779380  0.87952995  0.75024141  1
  O  O355  1  0.25865464  0.13069499  0.26217342  1
  O  O356  1  0.25714357  0.11458633  0.74556856  1
  O  O357  1  0.25988121  0.61881002  0.25698388  1
  O  O358  1  0.24635567  0.61283944  0.74788440  1
  O  O359  1  0.76323250  0.11569047  0.24424913  1
  O  O360  1  0.74827988  0.11326873  0.76040066  1
  O  O361  1  0.75763178  0.61668576  0.25777476  1
  O  O362  1  0.74821161  0.61249439  0.75034773  1
  O  O363  1  0.37101499  0.11965077  0.36958152  1
  O  O364  1  0.38428495  0.11234792  0.86076920  1
  O  O365  1  0.36786006  0.61955004  0.36503352  1
  O  O366  1  0.37205127  0.61336894  0.87748667  1
  O  O367  1  0.88278373  0.12532604  0.35839502  1
  O  O368  1  0.87985050  0.10994676  0.87401031  1
  O  O369  1  0.87016358  0.61919300  0.36971225  1
  O  O370  1  0.87141450  0.61462352  0.87417394  1
  O  O371  1  0.13434688  0.37916700  0.12859451  1
  O  O372  1  0.13114094  0.38648852  0.61909033  1
  O  O373  1  0.12383630  0.88111342  0.14027274  1
  O  O374  1  0.12374633  0.88358891  0.63008648  1
  O  O375  1  0.63454942  0.37747864  0.13470967  1
  O  O376  1  0.62882698  0.38013251  0.63507935  1
  O  O377  1  0.63359431  0.88375716  0.13232380  1
  O  O378  1  0.62228549  0.86929404  0.63847742  1
  O  O379  1  0.11962927  0.25223934  0.25259483  1
  O  O380  1  0.11874317  0.24439377  0.76070619  1
  O  O381  1  0.12515748  0.75757681  0.25204668  1
  O  O382  1  0.12721675  0.75688688  0.75716477  1
  O  O383  1  0.62874061  0.26406125  0.25408150  1
  O  O384  1  0.61304712  0.26110349  0.75898454  1
  O  O385  1  0.62042663  0.75510713  0.25782329  1
  O  O386  1  0.61253799  0.75845112  0.75550721  1
  O  O387  1  0.37086392  0.24121780  0.23918807  1
  O  O388  1  0.38245467  0.23973937  0.75842313  1
  O  O389  1  0.38318648  0.74414205  0.24735557  1
  O  O390  1  0.38567586  0.75785713  0.74937186  1
  O  O391  1  0.88167524  0.24548923  0.24243703  1
  O  O392  1  0.88373291  0.24602273  0.74446735  1
  O  O393  1  0.86792314  0.73544909  0.24517142  1
  O  O394  1  0.87790174  0.75229021  0.73530325  1
  O  O395  1  0.37797330  0.49051348  0.49454638  1
  O  O396  1  0.38622287  0.50619385  0.99234976  1
  O  O397  1  0.36847090  0.98811245  0.48611126  1
  O  O398  1  0.38245046  1.00597902  0.99090297  1
  O  O399  1  0.86990344  0.50086350  0.48744320  1
  O  O400  1  0.87378946  0.49339507  0.99107880  1
  O  O401  1  0.87728660  0.98483727  0.50519731  1
  O  O402  1  0.88391622  0.99507584  0.99593842  1
  O  O403  1  0.11941633  0.00864654  0.00284685  1
  O  O404  1  0.13467156  0.00893286  0.50962641  1
  O  O405  1  0.12753548  0.50943180  0.00457566  1
  O  O406  1  0.12833387  0.49983398  0.51083178  1
  O  O407  1  0.61901720  -0.00528899  0.01118234  1
  O  O408  1  0.66578322  0.03849029  0.49539492  1
  O  O409  1  0.61589786  0.50730424  0.00303185  1
  O  O410  1  0.61649785  0.49998473  0.50621139  1
  O  O411  1  0.36297820  0.36508413  0.13171652  1
  O  O412  1  0.36144222  0.38114145  0.61186363  1
  O  O413  1  0.37297837  0.86374102  0.13812179  1
  O  O414  1  0.37343898  0.87457577  0.61256194  1
  O  O415  1  0.86919715  0.37081507  0.11921683  1
  O  O416  1  0.85782724  0.37450354  0.62767919  1
  O  O417  1  0.87469699  0.86997282  0.12105071  1
  O  O418  1  0.88004493  0.86380205  0.61543072  1
  O  O419  1  0.13110317  0.12523989  0.38064670  1
  O  O420  1  0.12239710  0.13636329  0.88521012  1
  O  O421  1  0.13880664  0.62089215  0.36694349  1
  O  O422  1  0.12597104  0.63043729  0.88422775  1
  O  O423  1  0.62441170  0.13626348  0.36151035  1
  O  O424  1  0.61624162  0.14360266  0.86915991  1
  O  O425  1  0.63356970  0.63308497  0.37615162  1
  O  O426  1  0.62952619  0.62909056  0.88988030  1
