# generated using pymatgen
data_V85Zn86O256
_symmetry_space_group_name_H-M   'P 1'
_cell_length_a   16.97864924
_cell_length_b   16.97104550
_cell_length_c   16.99110857
_cell_angle_alpha   89.91553228
_cell_angle_beta   90.08851132
_cell_angle_gamma   89.91076596
_symmetry_Int_Tables_number   1
_chemical_formula_structural   V85Zn86O256
_chemical_formula_sum   'V85 Zn86 O256'
_cell_volume   4895.89314487
_cell_formula_units_Z   1
loop_
 _symmetry_equiv_pos_site_id
 _symmetry_equiv_pos_as_xyz
  1  'x, y, z'
loop_
 _atom_site_type_symbol
 _atom_site_label
 _atom_site_symmetry_multiplicity
 _atom_site_fract_x
 _atom_site_fract_y
 _atom_site_fract_z
 _atom_site_occupancy
  V  V0  1  0.00322421  0.11877263  0.12541872  1
  V  V1  1  0.74931810  0.00216074  0.75308724  1
  V  V2  1  0.62282129  0.12694265  0.50288158  1
  V  V3  1  0.12625013  0.12640754  0.49932012  1
  V  V4  1  -0.00684508  0.86915307  0.86964216  1
  V  V5  1  0.39276028  0.13718487  0.73986462  1
  V  V6  1  0.75040782  0.75614395  0.51058058  1
  V  V7  1  0.12178945  0.37432601  0.75123000  1
  V  V8  1  0.49640316  0.00444824  0.50417338  1
  V  V9  1  0.37234879  -0.00289916  0.86699781  1
  V  V10  1  0.62890733  -0.00448297  0.62366198  1
  V  V11  1  0.49601696  0.88232333  0.37697586  1
  V  V12  1  0.26531600  0.75391073  0.00646933  1
  V  V13  1  0.50770414  0.50241741  0.49637572  1
  V  V14  1  0.11801407  0.50585074  0.62193871  1
  V  V15  1  0.00225338  0.87157266  0.37204339  1
  V  V16  1  0.74847644  0.12927519  0.37766790  1
  V  V17  1  0.25257245  0.50175178  0.25377079  1
  V  V18  1  0.48391153  0.74844079  0.24924297  1
  V  V19  1  0.12504908  0.62298590  0.00628948  1
  V  V20  1  0.00094630  -0.00645031  -0.00114716  1
  V  V21  1  0.12580556  0.24827270  0.37481549  1
  V  V22  1  -0.00476748  0.24968432  0.74976939  1
  V  V23  1  0.00121639  0.50421597  0.00505736  1
  V  V24  1  0.87575539  0.24944268  0.12398715  1
  V  V25  1  0.87219626  0.00500109  0.87795779  1
  V  V26  1  -0.00124635  0.00217615  0.49941893  1
  V  V27  1  0.62455575  0.87355700  0.25348070  1
  V  V28  1  -0.00122278  0.37251718  0.87510829  1
  V  V29  1  -0.00039461  0.50394731  0.50103233  1
  V  V30  1  0.50295807  0.12708541  0.11948957  1
  V  V31  1  -0.00188959  0.37519880  0.37332707  1
  V  V32  1  0.62798781  0.38380992  0.24018586  1
  V  V33  1  0.37545333  0.74813012  0.62467111  1
  V  V34  1  -0.00220170  0.12664457  0.62568519  1
  V  V35  1  0.74637932  0.37475934  0.61560620  1
  V  V36  1  0.75020660  0.50805289  0.23389417  1
  V  V37  1  0.24249108  0.74154735  0.50459497  1
  V  V38  1  0.62393815  0.00517688  0.12053713  1
  V  V39  1  0.87557989  0.49796492  0.86997150  1
  V  V40  1  0.88692518  0.62991006  0.74363539  1
  V  V41  1  0.75147052  -0.00143193  0.25132602  1
  V  V42  1  0.25284219  0.62118877  0.87545554  1
  V  V43  1  0.49482889  -0.00399163  -0.00025633  1
  V  V44  1  0.50131607  0.74704665  0.74864055  1
  V  V45  1  0.12608414  0.74958543  0.86999953  1
  V  V46  1  0.87182896  0.37607737  0.00011372  1
  V  V47  1  0.62858483  0.62759196  0.50134939  1
  V  V48  1  0.25246288  0.25296663  0.50037665  1
  V  V49  1  0.37150526  0.87995870  0.49820577  1
  V  V50  1  0.37697587  0.49335013  0.87177646  1
  V  V51  1  0.87449859  0.12423337  0.25048728  1
  V  V52  1  0.49684443  0.87181716  0.87854159  1
  V  V53  1  0.37334123  0.25287986  0.12454385  1
  V  V54  1  0.49794308  0.37972978  0.36429176  1
  V  V55  1  0.40142439  0.36194137  0.52414425  1
  V  V56  1  0.74006956  0.49633610  0.74227710  1
  V  V57  1  0.62484121  0.74685403  0.88504660  1
  V  V58  1  0.74438281  0.62565956  0.87497951  1
  V  V59  1  0.12908797  0.00203025  0.63432178  1
  V  V60  1  0.87137774  0.50238552  0.37301423  1
  V  V61  1  0.62990090  0.87102200  0.74684110  1
  V  V62  1  0.37429626  0.11897596  0.25520459  1
  V  V63  1  0.13360369  0.12522245  -0.00020775  1
  V  V64  1  0.37739690  0.61899133  0.74791885  1
  V  V65  1  0.24711484  0.37375720  0.12263089  1
  V  V66  1  0.24459855  0.37084577  0.62260527  1
  V  V67  1  0.12365453  0.37341242  0.24886265  1
  V  V68  1  0.87104997  0.25046972  0.61667387  1
  V  V69  1  0.50475105  0.61688025  0.62371182  1
  V  V70  1  0.89052005  0.63951222  0.24701307  1
  V  V71  1  0.25126387  0.62307622  0.37766459  1
  V  V72  1  0.24961520  0.49677070  0.74780478  1
  V  V73  1  -0.00021970  0.24824126  0.24924041  1
  V  V74  1  0.74891482  0.86625076  0.10436513  1
  V  V75  1  0.12104834  0.74712102  0.37171809  1
  V  V76  1  0.62873373  0.25386528  0.37463458  1
  V  V77  1  0.24942223  0.11900089  0.86411587  1
  V  V78  1  0.12997519  0.24827171  0.87888831  1
  V  V79  1  0.74611482  0.23127285  -0.00414565  1
  V  V80  1  0.25149354  0.87943748  0.63378232  1
  V  V81  1  0.37007239  0.37084998  -0.00211904  1
  V  V82  1  0.51195529  0.49652104  0.00448768  1
  V  V83  1  0.50792459  0.36157543  0.87031357  1
  V  V84  1  0.87007999  0.87670318  0.50899039  1
  Zn  Zn85  1  0.86915840  0.12578427  0.75173824  1
  Zn  Zn86  1  0.62197866  0.22567249  0.86968365  1
  Zn  Zn87  1  0.24798859  -0.00702827  0.25880197  1
  Zn  Zn88  1  0.61740606  0.36302462  0.74278831  1
  Zn  Zn89  1  0.87425581  -0.00128102  0.37559731  1
  Zn  Zn90  1  0.62472856  0.75316292  0.37899221  1
  Zn  Zn91  1  0.87034009  0.37266565  0.49436434  1
  Zn  Zn92  1  0.12420364  0.87177718  0.74985190  1
  Zn  Zn93  1  0.50341418  0.25297463  0.24560413  1
  Zn  Zn94  1  0.12036278  0.50496480  0.13104859  1
  Zn  Zn95  1  0.89222429  0.75675313  0.09692959  1
  Zn  Zn96  1  0.74951063  0.63178108  0.37211067  1
  Zn  Zn97  1  0.12734082  0.87199964  0.24079655  1
  Zn  Zn98  1  0.88913539  0.75296011  0.63161785  1
  Zn  Zn99  1  0.37382849  0.50046543  0.38060782  1
  Zn  Zn100  1  0.49540242  0.63200404  0.13007610  1
  Zn  Zn101  1  0.63299157  0.62029429  0.02051574  1
  Zn  Zn102  1  0.13523771  -0.00402434  0.12531047  1
  Zn  Zn103  1  0.26407110  0.87780595  0.12801456  1
  Zn  Zn104  1  0.74612785  0.38001228  0.11888624  1
  Zn  Zn105  1  0.25942978  0.11649951  0.38082576  1
  Zn  Zn106  1  0.04947423  0.66723028  0.57222423  1
  Zn  Zn107  1  0.19011640  0.18620695  0.18641322  1
  Zn  Zn108  1  0.18663974  0.18781911  0.68831798  1
  Zn  Zn109  1  0.19184515  0.68869334  0.19011148  1
  Zn  Zn110  1  0.19200532  0.68678958  0.69040119  1
  Zn  Zn111  1  0.68877309  0.19247509  0.18636813  1
  Zn  Zn112  1  0.68303610  0.18538507  0.68447776  1
  Zn  Zn113  1  0.68428760  0.68683357  0.18659055  1
  Zn  Zn114  1  0.69105293  0.68646074  0.68811360  1
  Zn  Zn115  1  0.31500276  0.31297823  0.31284608  1
  Zn  Zn116  1  0.31148507  0.30908836  0.81005357  1
  Zn  Zn117  1  0.30669165  0.81440825  0.31828438  1
  Zn  Zn118  1  0.31409684  0.80657550  0.81552621  1
  Zn  Zn119  1  0.81003967  0.31632620  0.30783028  1
  Zn  Zn120  1  0.78085708  0.28832986  0.79290014  1
  Zn  Zn121  1  0.81173549  0.81414670  0.32216699  1
  Zn  Zn122  1  0.80952477  0.81121860  0.81836020  1
  Zn  Zn123  1  0.18274378  0.43681894  0.43874428  1
  Zn  Zn124  1  0.18663343  0.43776150  0.93751561  1
  Zn  Zn125  1  0.18763192  0.93823148  0.43684960  1
  Zn  Zn126  1  0.18796604  0.93461787  0.93776751  1
  Zn  Zn127  1  0.68663584  0.44229925  0.43121904  1
  Zn  Zn128  1  0.69137264  0.43502695  0.93156392  1
  Zn  Zn129  1  0.68674828  0.93903815  0.43730771  1
  Zn  Zn130  1  0.68835574  1.05581003  0.93667668  1
  Zn  Zn131  1  0.31536654  0.05893351  0.06237278  1
  Zn  Zn132  1  0.31220677  0.06499920  0.56620204  1
  Zn  Zn133  1  0.31689477  0.56661621  0.06297642  1
  Zn  Zn134  1  0.31573606  0.55374654  0.56244085  1
  Zn  Zn135  1  0.82054013  0.05103078  0.06897497  1
  Zn  Zn136  1  0.80861685  0.06226492  0.56422589  1
  Zn  Zn137  1  0.82917789  0.59728708  0.04820984  1
  Zn  Zn138  1  0.81487703  0.56361766  0.56196976  1
  Zn  Zn139  1  0.42004755  0.47203033  0.17182362  1
  Zn  Zn140  1  0.44235800  0.42644972  0.68350983  1
  Zn  Zn141  1  0.43341721  0.93514811  0.18653174  1
  Zn  Zn142  1  0.44002999  0.93978376  0.68757079  1
  Zn  Zn143  1  0.93347437  0.44114053  0.18735879  1
  Zn  Zn144  1  0.93327539  0.43608225  0.68525325  1
  Zn  Zn145  1  0.95656183  0.90175321  0.16415194  1
  Zn  Zn146  1  0.93860546  0.93855971  0.69046005  1
  Zn  Zn147  1  0.06796782  0.05907380  0.31213292  1
  Zn  Zn148  1  0.05722860  0.06348963  0.81390072  1
  Zn  Zn149  1  0.06679041  0.56444361  0.31801398  1
  Zn  Zn150  1  0.06525283  0.56219925  0.81523842  1
  Zn  Zn151  1  0.55951249  0.06403405  0.31097834  1
  Zn  Zn152  1  0.55644250  0.05908499  0.80560110  1
  Zn  Zn153  1  0.56669020  0.56603342  0.31182707  1
  Zn  Zn154  1  0.56126388  0.55628553  0.81530449  1
  Zn  Zn155  1  0.44288052  0.19329621  0.43641259  1
  Zn  Zn156  1  0.43303681  0.18271202  0.93667445  1
  Zn  Zn157  1  0.43481064  0.69242180  0.43392731  1
  Zn  Zn158  1  0.44210721  0.67920863  0.93597468  1
  Zn  Zn159  1  0.93685061  0.18714416  0.43605280  1
  Zn  Zn160  1  0.93911131  0.18492542  0.93983893  1
  Zn  Zn161  1  0.93007808  0.69122003  0.43374996  1
  Zn  Zn162  1  0.93816400  0.68680903  0.93156380  1
  Zn  Zn163  1  0.06045705  0.31116729  0.06202325  1
  Zn  Zn164  1  0.05915536  0.31519555  0.56017904  1
  Zn  Zn165  1  0.07589352  0.81009861  0.06025405  1
  Zn  Zn166  1  0.06311932  0.82691589  0.56151923  1
  Zn  Zn167  1  0.56304121  0.31068935  0.05682259  1
  Zn  Zn168  1  0.57172217  0.31619981  0.55554285  1
  Zn  Zn169  1  0.56057153  0.81336780  0.06748933  1
  Zn  Zn170  1  0.56043922  0.81225511  0.56406510  1
  O  O171  1  0.12068817  0.12722589  0.11438460  1
  O  O172  1  0.11972502  0.12005371  0.61897934  1
  O  O173  1  0.13069264  0.62394200  0.11037313  1
  O  O174  1  0.12709019  0.61067971  0.63302405  1
  O  O175  1  0.61421031  0.11740798  0.13633433  1
  O  O176  1  0.62875974  0.11747264  0.61078288  1
  O  O177  1  0.60948924  0.62735570  0.12848443  1
  O  O178  1  0.61379445  0.62968988  0.61527837  1
  O  O179  1  0.39103408  0.37068319  0.38321815  1
  O  O180  1  0.38030142  0.37291781  0.88036814  1
  O  O181  1  0.38137401  0.87217718  0.39117670  1
  O  O182  1  0.38835024  0.88048946  0.86456366  1
  O  O183  1  0.87868889  0.38422036  0.37257680  1
  O  O184  1  0.87895092  0.38526995  0.88328949  1
  O  O185  1  0.88406715  0.87921968  0.38900474  1
  O  O186  1  0.88846111  0.87876902  0.87344362  1
  O  O187  1  0.25121571  0.00438285  0.37507423  1
  O  O188  1  0.26185357  0.00510874  0.87975417  1
  O  O189  1  0.24675216  0.50615933  0.37358208  1
  O  O190  1  0.25561980  0.50039357  0.86711086  1
  O  O191  1  0.74622860  0.01216978  0.36653216  1
  O  O192  1  0.76267336  -0.00119201  0.86917259  1
  O  O193  1  0.76158794  0.50244271  0.36781181  1
  O  O194  1  0.75786694  0.49980098  0.85875658  1
  O  O195  1  0.24728662  0.48800673  0.13528915  1
  O  O196  1  0.23595843  0.49362084  0.62780550  1
  O  O197  1  0.25289470  1.00094505  0.13341666  1
  O  O198  1  0.23967578  0.99026686  0.61700155  1
  O  O199  1  0.75939605  0.50446996  0.13336885  1
  O  O200  1  0.75614124  0.49006776  0.63465186  1
  O  O201  1  0.74118205  0.99350726  0.13373930  1
  O  O202  1  0.73647157  0.99839622  0.63184933  1
  O  O203  1  0.00323857  0.36901074  0.25268291  1
  O  O204  1  0.00247440  0.37004767  0.75594850  1
  O  O205  1  0.00067647  0.88578253  0.27187973  1
  O  O206  1  0.00416965  0.87899690  0.76568678  1
  O  O207  1  0.51126275  0.38360685  0.25741128  1
  O  O208  1  0.50159804  0.37516752  0.76588714  1
  O  O209  1  0.50445696  0.87347709  0.26003190  1
  O  O210  1  0.50661090  0.86718662  0.75485301  1
  O  O211  1  0.49121561  0.12866020  0.23945708  1
  O  O212  1  0.49338067  0.13209622  0.74577062  1
  O  O213  1  0.50488090  0.64795794  0.26209681  1
  O  O214  1  0.49741264  0.62435490  0.74122493  1
  O  O215  1  0.99476059  0.12923935  0.24628021  1
  O  O216  1  0.99741150  0.13197859  0.74130550  1
  O  O217  1  0.98951017  0.62344735  0.25869109  1
  O  O218  1  0.98561537  0.62225839  0.75916418  1
  O  O219  1  0.37957425  0.26009921  0.01106948  1
  O  O220  1  0.36716879  0.25962244  0.49728561  1
  O  O221  1  0.36383892  0.73716489  -0.00621477  1
  O  O222  1  0.36722195  0.75951716  0.50706564  1
  O  O223  1  0.87181291  0.25668503  0.00530035  1
  O  O224  1  0.87918238  0.25258073  0.51131715  1
  O  O225  1  0.85876667  0.70408890  0.00543651  1
  O  O226  1  0.86717357  0.75934139  0.50328677  1
  O  O227  1  0.13042712  0.24655802  0.49470756  1
  O  O228  1  0.11513129  0.23916081  0.98770116  1
  O  O229  1  0.13490541  0.74947532  0.50051946  1
  O  O230  1  0.13515320  0.73871469  0.98823257  1
  O  O231  1  0.61956670  0.23982239  0.48740818  1
  O  O232  1  0.64460839  0.25143271  0.99758820  1
  O  O233  1  0.63119358  0.74536792  0.50294720  1
  O  O234  1  0.61198730  0.74280257  0.98699814  1
  O  O235  1  0.49402761  0.24380732  0.12351470  1
  O  O236  1  0.46879446  0.33079000  0.60119341  1
  O  O237  1  0.49796305  0.75673033  0.14539531  1
  O  O238  1  0.49392420  0.73919666  0.62867597  1
  O  O239  1  0.99508990  0.24151736  0.13025894  1
  O  O240  1  0.99220365  0.24752837  0.62968571  1
  O  O241  1  0.99074488  0.79622061  0.13014434  1
  O  O242  1  1.00333097  0.75375268  0.62146138  1
  O  O243  1  0.00401521  0.25474649  0.36843294  1
  O  O244  1  0.00625596  0.25352279  0.86944335  1
  O  O245  1  0.01090725  0.75918874  0.38883899  1
  O  O246  1  0.00869574  0.76296847  0.88231637  1
  O  O247  1  0.51271284  0.26175721  0.36966121  1
  O  O248  1  0.50205632  0.25908538  0.88294386  1
  O  O249  1  0.50191720  0.76594253  0.37138674  1
  O  O250  1  0.50388822  0.75165904  0.86777343  1
  O  O251  1  0.24686676  0.13797356  0.50206252  1
  O  O252  1  0.23904824  0.12132421  0.98855536  1
  O  O253  1  0.25541707  0.63481778  0.49980505  1
  O  O254  1  0.24495206  0.62508655  0.99340263  1
  O  O255  1  0.73759326  0.11718579  0.48680915  1
  O  O256  1  0.75337479  0.12738550  1.00657454  1
  O  O257  1  0.74141726  0.63184204  0.50277907  1
  O  O258  1  0.73769952  0.59932860  0.97611721  1
  O  O259  1  0.25908512  0.38170467  0.00859329  1
  O  O260  1  0.24864541  0.36671408  0.50654930  1
  O  O261  1  0.25132139  0.85488941  -0.00677476  1
  O  O262  1  0.25641713  0.86562676  0.51058527  1
  O  O263  1  0.76234964  0.37268658  -0.00037329  1
  O  O264  1  0.74890170  0.38448379  0.51235057  1
  O  O265  1  0.73908762  0.87751030  0.00943981  1
  O  O266  1  0.75903761  0.87138304  0.49607203  1
  O  O267  1  0.13121690  0.49143215  0.25033235  1
  O  O268  1  0.12830882  0.49300235  0.74442113  1
  O  O269  1  0.12723306  0.99489239  0.24385700  1
  O  O270  1  0.11894657  1.00150684  0.73642759  1
  O  O271  1  0.63800241  0.49383638  0.25694378  1
  O  O272  1  0.63822864  0.49298180  0.75216083  1
  O  O273  1  0.62938092  0.99435598  0.24318125  1
  O  O274  1  0.62854972  0.99062481  0.74236145  1
  O  O275  1  0.38001276  0.01820148  0.24991758  1
  O  O276  1  0.38638902  0.01181787  0.76209277  1
  O  O277  1  0.35500168  0.48167460  0.26410212  1
  O  O278  1  0.37017576  0.49963449  0.75159452  1
  O  O279  1  0.85965828  0.00668136  0.25265727  1
  O  O280  1  0.86521830  -0.00247255  0.75746368  1
  O  O281  1  0.86929543  0.50900827  0.25651155  1
  O  O282  1  0.87086645  0.50647744  0.75644131  1
  O  O283  1  0.11771870  0.36809014  0.36841058  1
  O  O284  1  0.12022803  0.36648671  0.87227338  1
  O  O285  1  0.11652587  0.86337669  0.38349082  1
  O  O286  1  0.11996777  0.86643362  0.87072610  1
  O  O287  1  0.62303750  0.37004616  0.36571419  1
  O  O288  1  0.61190596  0.36941322  0.87584643  1
  O  O289  1  0.61382125  0.87850494  0.36957075  1
  O  O290  1  0.60962956  0.86078439  0.86176176  1
  O  O291  1  0.38207892  0.13532333  0.13187021  1
  O  O292  1  0.37109067  0.12079612  0.64257724  1
  O  O293  1  0.39488879  0.58353143  0.13872078  1
  O  O294  1  0.38393102  0.62648529  0.62817487  1
  O  O295  1  0.88306066  0.12777358  0.13186123  1
  O  O296  1  0.87842939  0.13293560  0.62495706  1
  O  O297  1  0.87712470  0.63219807  0.14600440  1
  O  O298  1  0.87560734  0.62213857  0.64060169  1
  O  O299  1  0.25951935  0.26358880  0.12924562  1
  O  O300  1  0.23859911  0.26008907  0.61380118  1
  O  O301  1  0.25067719  0.74315123  0.10784766  1
  O  O302  1  0.25476843  0.75595402  0.62066418  1
  O  O303  1  0.75837538  0.25118618  0.11244280  1
  O  O304  1  0.75915214  0.26411295  0.62841007  1
  O  O305  1  0.73969440  0.76598791  0.12536972  1
  O  O306  1  0.75564636  0.74701155  0.61413429  1
  O  O307  1  0.24440095  0.25116907  0.38617762  1
  O  O308  1  0.23533660  0.24082786  0.87112698  1
  O  O309  1  0.24181112  0.74312291  0.38739983  1
  O  O310  1  0.24575979  0.74041375  0.88228182  1
  O  O311  1  0.74115271  0.24152965  0.36820597  1
  O  O312  1  0.76314077  0.24459326  0.89681092  1
  O  O313  1  0.74569767  0.74915887  0.39316512  1
  O  O314  1  0.73725454  0.73671019  0.86911336  1
  O  O315  1  0.00986869  0.11506496  0.00457278  1
  O  O316  1  0.00432509  0.11910413  0.50527537  1
  O  O317  1  0.01308328  0.61302331  -0.01206480  1
  O  O318  1  -0.00737976  0.60944833  0.49341063  1
  O  O319  1  0.49407667  0.11670170  0.01337397  1
  O  O320  1  0.51011832  0.11569339  0.49080900  1
  O  O321  1  0.50141313  0.60326111  -0.00167850  1
  O  O322  1  0.50460625  0.62097118  0.50458983  1
  O  O323  1  0.51111252  0.38717497  0.47856572  1
  O  O324  1  0.49277963  0.37784873  0.98703162  1
  O  O325  1  0.49214251  0.88217116  0.49629034  1
  O  O326  1  0.50695804  0.88408931  0.98936130  1
  O  O327  1  0.99567204  0.38449991  0.49084605  1
  O  O328  1  0.99094395  0.38084316  0.99430538  1
  O  O329  1  0.99217191  0.88765731  0.49356383  1
  O  O330  1  1.01261076  0.88789449  0.98300515  1
  O  O331  1  0.49727277  0.49881908  0.38026420  1
  O  O332  1  0.49447139  0.48519882  0.88011463  1
  O  O333  1  0.50435739  0.99112989  0.38736260  1
  O  O334  1  0.49428625  0.98916061  0.88141813  1
  O  O335  1  0.99225001  0.49410134  0.38052152  1
  O  O336  1  0.99332870  0.49277447  0.88131272  1
  O  O337  1  1.00052030  0.99685573  0.38894299  1
  O  O338  1  0.99382500  0.99045012  0.87861442  1
  O  O339  1  0.00123014  0.00077190  0.11293516  1
  O  O340  1  0.00660097  0.00517180  0.61722452  1
  O  O341  1  0.00129640  0.49426128  0.10917988  1
  O  O342  1  0.00633994  0.49286419  0.61536722  1
  O  O343  1  0.50562692  0.00625657  0.11893069  1
  O  O344  1  0.51306706  -0.00396184  0.61363167  1
  O  O345  1  0.51002871  0.47643657  0.10261773  1
  O  O346  1  0.49773106  0.50934831  0.61424936  1
  O  O347  1  0.24128367  0.37805436  0.24433165  1
  O  O348  1  0.24111849  0.37718033  0.74314154  1
  O  O349  1  0.24781922  0.87520740  0.24800695  1
  O  O350  1  0.25278428  0.86862137  0.73646810  1
  O  O351  1  0.74521713  0.38738521  0.24366040  1
  O  O352  1  0.75614153  0.38945469  0.73938831  1
  O  O353  1  0.73911652  0.88653177  0.26064697  1
  O  O354  1  0.73707021  0.88342323  0.75892185  1
  O  O355  1  0.26744536  0.13060024  0.25132011  1
  O  O356  1  0.24954928  0.12392948  0.76167995  1
  O  O357  1  0.24312946  0.61142591  0.26137629  1
  O  O358  1  0.25839859  0.61577330  0.75485881  1
  O  O359  1  0.75218364  0.11892104  0.25662786  1
  O  O360  1  0.74887554  0.10640912  0.74540966  1
  O  O361  1  0.75534298  0.61985428  0.25373959  1
  O  O362  1  0.75390650  0.60962374  0.75357945  1
  O  O363  1  0.37987570  0.13868414  0.35769738  1
  O  O364  1  0.36753425  0.11886103  0.86540250  1
  O  O365  1  0.35761012  0.62214230  0.38412039  1
  O  O366  1  0.37285908  0.61321156  0.86628529  1
  O  O367  1  0.86450959  0.12469102  0.37012082  1
  O  O368  1  0.88577099  0.11014353  0.86972733  1
  O  O369  1  0.87212342  0.61529387  0.36734637  1
  O  O370  1  0.86472951  0.61389625  0.86259161  1
  O  O371  1  0.13243685  0.37304784  0.12873076  1
  O  O372  1  0.12812955  0.38269622  0.63089912  1
  O  O373  1  0.14342535  0.87727191  0.12243675  1
  O  O374  1  0.13469588  0.88497050  0.62926516  1
  O  O375  1  0.62736109  0.36710767  0.13740073  1
  O  O376  1  0.64208019  0.36909158  0.62804254  1
  O  O377  1  0.63003881  0.88574961  0.13510994  1
  O  O378  1  0.61945634  0.88103802  0.63635322  1
  O  O379  1  0.11900402  0.25299571  0.25457218  1
  O  O380  1  0.11637143  0.25482949  0.75824873  1
  O  O381  1  0.13048852  0.75130913  0.26775808  1
  O  O382  1  0.13117268  0.74671415  0.76624499  1
  O  O383  1  0.62521034  0.26157400  0.25823604  1
  O  O384  1  0.66321699  0.25905764  0.76703305  1
  O  O385  1  0.62007453  0.76681901  0.25573949  1
  O  O386  1  0.61987257  0.75448844  0.75222725  1
  O  O387  1  0.38105718  0.24978879  0.23669813  1
  O  O388  1  0.37268945  0.23594632  0.75268301  1
  O  O389  1  0.38556712  0.75368817  0.26090367  1
  O  O390  1  0.38133262  0.73913887  0.74453236  1
  O  O391  1  0.87930678  0.24471995  0.24427363  1
  O  O392  1  0.87681274  0.24728890  0.73858374  1
  O  O393  1  0.87383075  0.73834991  0.26369565  1
  O  O394  1  0.86634129  0.73347563  0.75102787  1
  O  O395  1  0.39050891  0.48129278  0.50259343  1
  O  O396  1  0.38425734  0.48547621  0.99109796  1
  O  O397  1  0.38439302  0.99104919  0.51042123  1
  O  O398  1  0.38807730  1.00738200  0.98512225  1
  O  O399  1  0.87992738  0.49795419  0.48943398  1
  O  O400  1  0.88209961  0.49785645  0.98963307  1
  O  O401  1  0.88278398  0.99682974  0.50093147  1
  O  O402  1  0.88872759  1.00270829  0.99037397  1
  O  O403  1  0.11838869  0.01025025  -0.00307660  1
  O  O404  1  0.11523579  0.00555978  0.50999295  1
  O  O405  1  0.11778509  0.50560467  -0.00034962  1
  O  O406  1  0.11318914  0.49534825  0.51009713  1
  O  O407  1  0.61459966  0.00360962  0.01501807  1
  O  O408  1  0.61806000  0.00523231  0.50629781  1
  O  O409  1  0.61348957  0.49562111  -0.01174848  1
  O  O410  1  0.61553470  0.51092568  0.49455604  1
  O  O411  1  0.36734618  0.37189318  0.11687157  1
  O  O412  1  0.34701467  0.39046890  0.62339729  1
  O  O413  1  0.37504278  0.88006511  0.11358778  1
  O  O414  1  0.37038814  0.87050115  0.61912407  1
  O  O415  1  0.87567175  0.36970667  0.11378042  1
  O  O416  1  0.86507810  0.36820663  0.62077351  1
  O  O417  1  0.85079677  0.87642855  0.12542482  1
  O  O418  1  0.88171014  0.87582085  0.61270144  1
  O  O419  1  0.12573531  0.13316935  0.38330706  1
  O  O420  1  0.12960458  0.12900650  0.87925412  1
  O  O421  1  0.13685904  0.63381147  0.37970153  1
  O  O422  1  0.13346394  0.62889868  0.88182208  1
  O  O423  1  0.62984070  0.13397205  0.37752470  1
  O  O424  1  0.61331851  0.11582514  0.88152848  1
  O  O425  1  0.62633651  0.63058807  0.39085304  1
  O  O426  1  0.62947654  0.63347411  0.86649041  1
