# generated using pymatgen
data_V85Zn86O256
_symmetry_space_group_name_H-M   'P 1'
_cell_length_a   17.03603100
_cell_length_b   17.00580221
_cell_length_c   16.97762227
_cell_angle_alpha   89.96720658
_cell_angle_beta   90.06829290
_cell_angle_gamma   89.93115106
_symmetry_Int_Tables_number   1
_chemical_formula_structural   V85Zn86O256
_chemical_formula_sum   'V85 Zn86 O256'
_cell_volume   4918.60241418
_cell_formula_units_Z   1
loop_
 _symmetry_equiv_pos_site_id
 _symmetry_equiv_pos_as_xyz
  1  'x, y, z'
loop_
 _atom_site_type_symbol
 _atom_site_label
 _atom_site_symmetry_multiplicity
 _atom_site_fract_x
 _atom_site_fract_y
 _atom_site_fract_z
 _atom_site_occupancy
  V  V0  1  0.75383886  0.62754741  0.87555801  1
  V  V1  1  0.37407647  0.00195603  0.37766271  1
  V  V2  1  0.75188876  0.75011202  0.50041136  1
  V  V3  1  0.24647419  0.87465848  0.12985722  1
  V  V4  1  0.75044009  0.49980207  0.75001579  1
  V  V5  1  0.75029488  0.35851035  0.09511312  1
  V  V6  1  0.50394626  -0.00054744  0.00844495  1
  V  V7  1  0.49816429  0.50152795  0.49752400  1
  V  V8  1  0.88089089  0.24488900  0.64147093  1
  V  V9  1  0.49969938  0.62685561  0.62714089  1
  V  V10  1  0.37664488  0.49896132  0.87456251  1
  V  V11  1  0.87656093  0.49909429  0.88284187  1
  V  V12  1  0.25089861  0.62162462  0.37502344  1
  V  V13  1  0.87663759  0.75088750  0.62547917  1
  V  V14  1  0.74561367  0.00947784  0.26356141  1
  V  V15  1  0.75079341  0.48948497  0.24532025  1
  V  V16  1  0.49898784  0.74979842  0.75121141  1
  V  V17  1  0.12995735  0.25610873  0.88150646  1
  V  V18  1  0.86120065  -0.00196684  0.86061302  1
  V  V19  1  0.23766559  0.12683438  0.37859901  1
  V  V20  1  0.64155866  0.01750146  0.63834517  1
  V  V21  1  0.50007815  0.38049290  0.37173840  1
  V  V22  1  0.25217552  0.00114798  0.75200073  1
  V  V23  1  -0.00025263  0.50236021  0.49528625  1
  V  V24  1  0.24928484  0.49704021  0.24800725  1
  V  V25  1  0.37403227  0.62561532  0.75096554  1
  V  V26  1  0.12456074  0.00437006  0.12050348  1
  V  V27  1  -0.00040941  0.37596649  0.87219372  1
  V  V28  1  0.62284643  0.87677755  0.24691633  1
  V  V29  1  0.25077240  0.50205603  0.74577994  1
  V  V30  1  0.12692804  0.36347600  0.25263411  1
  V  V31  1  0.62501915  0.75264213  0.37865648  1
  V  V32  1  0.25137462  0.13268851  0.88464859  1
  V  V33  1  0.37583646  0.75228705  0.62632335  1
  V  V34  1  0.49929973  0.87463583  0.87740262  1
  V  V35  1  0.00291125  0.62852964  0.12315456  1
  V  V36  1  0.62470177  0.50135828  0.62876478  1
  V  V37  1  0.87675490  0.37339706  0.49857852  1
  V  V38  1  0.37747205  0.87212689  0.00239939  1
  V  V39  1  0.75240728  0.24488010  0.49422651  1
  V  V40  1  0.61959370  0.23448564  0.88766516  1
  V  V41  1  0.35796214  0.37089077  0.00020117  1
  V  V42  1  0.62423904  0.24956087  0.37506370  1
  V  V43  1  0.37454417  0.87715840  0.50184945  1
  V  V44  1  0.12188757  0.37125189  0.74706301  1
  V  V45  1  0.50232273  0.12378865  0.12461692  1
  V  V46  1  0.62851915  0.88011408  0.75068875  1
  V  V47  1  0.00607139  0.36175666  0.37255413  1
  V  V48  1  0.49806550  0.12914178  0.62431720  1
  V  V49  1  0.23428626  0.74524619  -0.00148933  1
  V  V50  1  0.75270434  0.87810300  0.62780640  1
  V  V51  1  0.24033391  0.24664046  0.49546268  1
  V  V52  1  0.36158988  0.25460217  0.12204979  1
  V  V53  1  0.49740325  0.74543036  0.25412938  1
  V  V54  1  -0.00021124  0.01273109  -0.00218413  1
  V  V55  1  0.00499885  0.00644838  0.50178014  1
  V  V56  1  0.00104680  0.62674026  0.62374478  1
  V  V57  1  0.37520940  0.37974353  0.49433922  1
  V  V58  1  0.12558215  0.50109202  0.62131830  1
  V  V59  1  0.12574745  0.00933183  0.62546704  1
  V  V60  1  0.37851224  0.25351319  0.62469171  1
  V  V61  1  0.24416134  0.75100897  0.49853409  1
  V  V62  1  0.00579125  0.87164778  0.36359341  1
  V  V63  1  0.87991731  0.75483875  0.13542063  1
  V  V64  1  0.74718428  0.87888414  0.13041947  1
  V  V65  1  0.37414480  0.00168469  0.87745303  1
  V  V66  1  0.62757424  0.74959175  0.87675319  1
  V  V67  1  0.75143779  0.37591359  0.62619347  1
  V  V68  1  0.75487925  0.74865644  0.00233623  1
  V  V69  1  0.50124033  0.00394258  0.50409462  1
  V  V70  1  0.87708018  0.62577087  0.75036899  1
  V  V71  1  0.24462496  -0.00348421  0.25201069  1
  V  V72  1  0.37872414  0.13331447  0.75208071  1
  V  V73  1  0.37791009  0.74310001  0.12585491  1
  V  V74  1  0.37629262  0.61775492  0.25332089  1
  V  V75  1  0.25114444  0.87664364  0.62717076  1
  V  V76  1  0.00647921  0.74966797  0.75652080  1
  V  V77  1  0.50291563  0.25705029  0.24763421  1
  V  V78  1  0.11724040  0.50000508  0.12565103  1
  V  V79  1  0.62425232  0.62657294  0.50344191  1
  V  V80  1  0.37425944  0.12698907  0.25141330  1
  V  V81  1  0.00529617  0.87142137  0.88588661  1
  V  V82  1  0.87854086  0.62432805  0.25196765  1
  V  V83  1  0.61660637  0.36204034  0.74955620  1
  V  V84  1  0.12774732  0.87156360  0.75677632  1
  Zn  Zn85  1  -0.00173270  0.49854557  0.00234091  1
  Zn  Zn86  1  0.90528004  0.29967421  0.01802301  1
  Zn  Zn87  1  0.87772859  0.87560796  0.00391300  1
  Zn  Zn88  1  0.12165013  0.62897145  0.49208215  1
  Zn  Zn89  1  0.49635754  0.50130721  0.01134543  1
  Zn  Zn90  1  0.49872818  0.87906747  0.37640192  1
  Zn  Zn91  1  0.12341406  0.75175713  0.34899993  1
  Zn  Zn92  1  0.23683180  0.63376417  0.87832239  1
  Zn  Zn93  1  0.63475975  0.11501023  0.00762289  1
  Zn  Zn94  1  0.79266527  0.17232963  -0.06810595  1
  Zn  Zn95  1  0.87470207  0.49955397  0.37142306  1
  Zn  Zn96  1  0.75174816  0.62118757  0.37408577  1
  Zn  Zn97  1  0.61707621  0.60804133  0.01658761  1
  Zn  Zn98  1  0.63766166  0.12055492  0.49049297  1
  Zn  Zn99  1  0.87120796  0.00475334  0.37795455  1
  Zn  Zn100  1  0.49639785  0.36613964  0.87791550  1
  Zn  Zn101  1  0.61124472  0.47750550  0.15021192  1
  Zn  Zn102  1  -0.07996931  0.17464858  0.18794883  1
  Zn  Zn103  1  0.24922078  0.37397097  0.61971767  1
  Zn  Zn104  1  0.12645336  0.13628162  0.00512983  1
  Zn  Zn105  1  0.88068166  0.87669641  0.49863944  1
  Zn  Zn106  1  0.00158750  0.12999439  0.64819545  1
  Zn  Zn107  1  0.18631033  0.18146544  0.19098104  1
  Zn  Zn108  1  0.19475260  0.18944441  0.68963365  1
  Zn  Zn109  1  0.19166173  0.68256033  0.18163655  1
  Zn  Zn110  1  0.18754242  0.68709312  0.68402744  1
  Zn  Zn111  1  0.68638860  0.19330141  0.18460807  1
  Zn  Zn112  1  0.69023114  0.19030140  0.67776258  1
  Zn  Zn113  1  0.69449222  0.68240340  0.19164332  1
  Zn  Zn114  1  0.68785353  0.68956732  0.69075788  1
  Zn  Zn115  1  0.31319564  0.31165140  0.31351921  1
  Zn  Zn116  1  0.30828498  0.31795479  0.81120744  1
  Zn  Zn117  1  0.31194899  0.81183516  0.31589676  1
  Zn  Zn118  1  0.31099248  0.81081201  0.81730688  1
  Zn  Zn119  1  0.81173129  0.30498865  0.31277746  1
  Zn  Zn120  1  0.80724629  0.31199973  0.83163590  1
  Zn  Zn121  1  0.81675741  0.81905867  0.31552279  1
  Zn  Zn122  1  0.81799303  0.81800889  0.81273624  1
  Zn  Zn123  1  0.18874015  0.43649617  0.43436519  1
  Zn  Zn124  1  0.17559749  0.46504493  0.92470903  1
  Zn  Zn125  1  0.18310380  0.93633840  0.43754708  1
  Zn  Zn126  1  0.18956505  0.93734535  0.94067509  1
  Zn  Zn127  1  0.68624734  0.43686185  0.43380518  1
  Zn  Zn128  1  0.68732048  0.43195265  0.93318530  1
  Zn  Zn129  1  0.68509723  0.93822234  0.44294661  1
  Zn  Zn130  1  0.68686118  0.93354518  0.94413239  1
  Zn  Zn131  1  0.31721217  0.06344241  0.06638227  1
  Zn  Zn132  1  0.31140226  0.06533722  0.56303991  1
  Zn  Zn133  1  0.30957735  0.56009189  0.06375877  1
  Zn  Zn134  1  0.31387627  0.56520438  0.56093822  1
  Zn  Zn135  1  0.81786792  0.06219694  0.07296463  1
  Zn  Zn136  1  0.82149818  0.06433207  0.56498491  1
  Zn  Zn137  1  0.81180713  0.56139949  0.06950241  1
  Zn  Zn138  1  0.81341259  0.56321786  0.56347899  1
  Zn  Zn139  1  0.43405924  0.43727597  0.18073025  1
  Zn  Zn140  1  0.43844839  0.43890788  0.68408230  1
  Zn  Zn141  1  0.43538530  0.93556501  0.19037677  1
  Zn  Zn142  1  0.44140855  0.94148824  0.68943127  1
  Zn  Zn143  1  0.93098824  0.34414799  0.18356085  1
  Zn  Zn144  1  0.93665519  0.43808632  0.68749524  1
  Zn  Zn145  1  0.92720306  0.96935376  0.18136963  1
  Zn  Zn146  1  0.94212086  0.93569078  0.68706910  1
  Zn  Zn147  1  0.06212792  0.05650768  0.31558972  1
  Zn  Zn148  1  0.06767842  0.06227622  0.81648812  1
  Zn  Zn149  1  0.06465453  0.56283417  0.30900941  1
  Zn  Zn150  1  0.06307783  0.56412995  0.81417416  1
  Zn  Zn151  1  0.56131272  0.06514105  0.31177673  1
  Zn  Zn152  1  0.55597080  0.06322436  0.81573154  1
  Zn  Zn153  1  0.56579487  0.56459837  0.31459891  1
  Zn  Zn154  1  0.57695273  0.54631690  0.84462174  1
  Zn  Zn155  1  0.43207227  0.19126716  0.43562919  1
  Zn  Zn156  1  0.44118591  0.19225679  0.93889835  1
  Zn  Zn157  1  0.43488774  0.68803866  0.43771201  1
  Zn  Zn158  1  0.43505048  0.68223403  0.93672020  1
  Zn  Zn159  1  0.94425481  0.18536714  0.44024888  1
  Zn  Zn160  1  0.93735941  0.18861884  0.83474858  1
  Zn  Zn161  1  0.93849869  0.69164222  0.43339768  1
  Zn  Zn162  1  0.94045755  0.68761377  0.94234366  1
  Zn  Zn163  1  0.06684783  0.31402053  0.06445137  1
  Zn  Zn164  1  0.05960296  0.31317412  0.56377582  1
  Zn  Zn165  1  0.05899457  0.82031523  0.18429918  1
  Zn  Zn166  1  0.06256015  0.82025131  0.56550432  1
  Zn  Zn167  1  0.55558241  0.32002507  0.05959459  1
  Zn  Zn168  1  0.56437365  0.31396132  0.55892338  1
  Zn  Zn169  1  0.58197969  0.76495779  0.08477554  1
  Zn  Zn170  1  0.56497939  0.81893865  0.56712304  1
  O  O171  1  0.13027091  0.11176066  0.12085941  1
  O  O172  1  0.12564682  0.11256195  0.63686465  1
  O  O173  1  0.11546659  0.61063776  0.13398388  1
  O  O174  1  0.11932812  0.61500867  0.62137709  1
  O  O175  1  0.60463075  0.13453534  0.12334737  1
  O  O176  1  0.60476352  0.13244214  0.60896252  1
  O  O177  1  0.61956248  0.65884822  0.11549347  1
  O  O178  1  0.61940502  0.62203288  0.62314127  1
  O  O179  1  0.38605183  0.36991800  0.38550932  1
  O  O180  1  0.37541541  0.37687000  0.88317943  1
  O  O181  1  0.37589016  0.88310709  0.38410988  1
  O  O182  1  0.37891112  0.87971647  0.88393103  1
  O  O183  1  0.89030276  0.37734656  0.38445026  1
  O  O184  1  0.88693838  0.39309129  0.85695671  1
  O  O185  1  0.89046873  0.87988646  0.37938118  1
  O  O186  1  0.88915009  0.88062125  0.87865848  1
  O  O187  1  0.25310216  0.00552293  0.37116402  1
  O  O188  1  0.25616364  0.00868969  0.87102250  1
  O  O189  1  0.24331206  0.51321997  0.36611154  1
  O  O190  1  0.26670202  0.48987446  0.85569273  1
  O  O191  1  0.74482721  0.00288237  0.37040008  1
  O  O192  1  0.76388086  -0.01961887  0.87607979  1
  O  O193  1  0.75426657  0.50149521  0.36790499  1
  O  O194  1  0.75982664  0.50669274  0.86738506  1
  O  O195  1  0.23721074  0.50721292  0.14048127  1
  O  O196  1  0.24164009  0.50073308  0.62741460  1
  O  O197  1  0.24788804  0.99430845  0.13212398  1
  O  O198  1  0.24537487  0.99668744  0.63095255  1
  O  O199  1  0.74462389  0.49335761  0.13424970  1
  O  O200  1  0.74485952  0.49616742  0.62974837  1
  O  O201  1  0.74810432  0.98171486  0.13869242  1
  O  O202  1  0.74970120  0.98028715  0.60135634  1
  O  O203  1  0.01102566  0.37603376  0.26593011  1
  O  O204  1  0.01412557  0.38879203  0.75631226  1
  O  O205  1  -0.00199482  0.88994952  0.26037819  1
  O  O206  1  0.01077347  0.86660399  0.75694252  1
  O  O207  1  0.48951523  0.36665012  0.25892336  1
  O  O208  1  0.51543995  0.37796893  0.74423274  1
  O  O209  1  0.50493185  0.86629717  0.25497545  1
  O  O210  1  0.50500253  0.86849143  0.75630455  1
  O  O211  1  0.49280489  0.13364326  0.24414406  1
  O  O212  1  0.48702404  0.12100741  0.73911250  1
  O  O213  1  0.48924364  0.63657433  0.26319176  1
  O  O214  1  0.49236566  0.63343177  0.74422215  1
  O  O215  1  0.96877678  0.11840252  0.29045657  1
  O  O216  1  0.99855944  0.12762554  0.76064249  1
  O  O217  1  0.98775448  0.61780829  0.24018142  1
  O  O218  1  0.99899871  0.63194406  0.74529916  1
  O  O219  1  0.37638651  0.26258222  0.00605111  1
  O  O220  1  0.36787343  0.26073066  0.50652369  1
  O  O221  1  0.37882679  0.75930400  0.00966155  1
  O  O222  1  0.36595683  0.75662022  0.50611742  1
  O  O223  1  0.87299437  0.25141747  -0.07937186  1
  O  O224  1  0.87038772  0.25958159  0.49864512  1
  O  O225  1  0.86736257  0.75270993  0.00968853  1
  O  O226  1  0.86571880  0.74938932  0.50673925  1
  O  O227  1  0.14271640  0.25681574  0.50739825  1
  O  O228  1  0.12667059  0.25386454  0.98708365  1
  O  O229  1  0.13991402  0.75049858  0.50966222  1
  O  O230  1  0.13997967  0.75270007  1.00958543  1
  O  O231  1  0.63654619  0.25084388  0.49449343  1
  O  O232  1  0.61882590  0.24526997  0.98858017  1
  O  O233  1  0.63068966  0.74817359  0.49793909  1
  O  O234  1  0.63837268  0.75803346  0.98438723  1
  O  O235  1  0.48964777  0.24687638  0.13304288  1
  O  O236  1  0.48696798  0.24263322  0.61295591  1
  O  O237  1  0.48476620  0.75806609  0.14264866  1
  O  O238  1  0.49525897  0.74810061  0.62994170  1
  O  O239  1  0.97338481  0.26301927  0.10644972  1
  O  O240  1  0.98441583  0.25048350  0.62100460  1
  O  O241  1  0.98736545  0.74550268  0.12920123  1
  O  O242  1  0.99670260  0.74674705  0.63428900  1
  O  O243  1  0.00897834  0.26511590  0.38905880  1
  O  O244  1  0.02130379  0.26737075  0.86272806  1
  O  O245  1  0.00347688  0.76671450  0.37689443  1
  O  O246  1  -0.00301278  0.75344965  0.86297959  1
  O  O247  1  0.50245531  0.25858434  0.36822440  1
  O  O248  1  0.51340249  0.24969619  0.86920034  1
  O  O249  1  0.50657455  0.75472106  0.37219667  1
  O  O250  1  0.50874718  0.75580513  0.87104082  1
  O  O251  1  0.25535584  0.13829630  0.49383622  1
  O  O252  1  0.25378613  0.12048034  0.98728619  1
  O  O253  1  0.25052371  0.63344012  0.49171677  1
  O  O254  1  0.25645621  0.64283713  1.00470719  1
  O  O255  1  0.75563780  0.14045090  0.50305088  1
  O  O256  1  0.74552034  0.11100610  1.00913815  1
  O  O257  1  0.74397381  0.63601963  0.50257835  1
  O  O258  1  0.75078271  0.63739806  0.99482021  1
  O  O259  1  0.26128522  0.38048541  -0.00960099  1
  O  O260  1  0.25820139  0.36618370  0.49644405  1
  O  O261  1  0.26026465  0.86794371  0.00749818  1
  O  O262  1  0.25436151  0.86934289  0.50653533  1
  O  O263  1  0.74998828  0.36159437  -0.00688298  1
  O  O264  1  0.76020863  0.37010970  0.50480354  1
  O  O265  1  0.75190469  0.86525778  0.01259587  1
  O  O266  1  0.74986015  0.86085723  0.50686304  1
  O  O267  1  0.13154259  0.49224926  0.24482986  1
  O  O268  1  0.13316513  0.49454326  0.73638876  1
  O  O269  1  0.13788820  1.00667396  0.24073857  1
  O  O270  1  0.13298975  0.99094334  0.74540554  1
  O  O271  1  0.64529996  0.51122060  0.25470004  1
  O  O272  1  0.63227260  0.49227640  0.74806595  1
  O  O273  1  0.62852132  0.98463569  0.25967460  1
  O  O274  1  0.60854440  0.98393464  0.74855573  1
  O  O275  1  0.36653018  0.00651617  0.25670848  1
  O  O276  1  0.37172419  0.00941794  0.75667570  1
  O  O277  1  0.36491875  0.50955325  0.24392290  1
  O  O278  1  0.36632760  0.50523380  0.74689055  1
  O  O279  1  0.84716058  -0.01076508  0.26134064  1
  O  O280  1  0.87594984  -0.01254829  0.76151300  1
  O  O281  1  0.86008224  0.51222693  0.25087421  1
  O  O282  1  0.87005434  0.50943412  0.75195081  1
  O  O283  1  0.11349890  0.38116002  0.36724948  1
  O  O284  1  0.12153871  0.37616268  0.86529634  1
  O  O285  1  0.11191431  0.87230136  0.37586621  1
  O  O286  1  0.12251342  0.87957866  0.86278867  1
  O  O287  1  0.60972436  0.36338985  0.38244276  1
  O  O288  1  0.62329032  0.36159458  0.85785270  1
  O  O289  1  0.62238360  0.86448153  0.37204384  1
  O  O290  1  0.62087728  0.86784768  0.86789660  1
  O  O291  1  0.38246566  0.13455817  0.13112361  1
  O  O292  1  0.37917021  0.13237903  0.63259317  1
  O  O293  1  0.36737674  0.63584257  0.13878961  1
  O  O294  1  0.38039190  0.63292519  0.62972457  1
  O  O295  1  0.90266223  0.07846342  0.13897399  1
  O  O296  1  0.87622388  0.14243969  0.62727402  1
  O  O297  1  0.88060065  0.63413875  0.13312533  1
  O  O298  1  0.88208350  0.63106525  0.63042590  1
  O  O299  1  0.26356676  0.24238083  0.13071658  1
  O  O300  1  0.26140853  0.24982303  0.61192179  1
  O  O301  1  0.26128710  0.75770105  0.11694227  1
  O  O302  1  0.25734538  0.75603312  0.61924785  1
  O  O303  1  0.75060363  0.26054392  0.12176409  1
  O  O304  1  0.76398462  0.25678003  0.61608112  1
  O  O305  1  0.76119809  0.75709293  0.11969448  1
  O  O306  1  0.75405288  0.75724743  0.61892691  1
  O  O307  1  0.25507027  0.24239302  0.38767377  1
  O  O308  1  0.24268848  0.24258358  0.86812293  1
  O  O309  1  0.24728832  0.74461363  0.38466008  1
  O  O310  1  0.25010816  0.75091180  0.89132250  1
  O  O311  1  0.73721641  0.25989734  0.38367917  1
  O  O312  1  0.72268661  0.23867085  0.85984898  1
  O  O313  1  0.74168712  0.75123942  0.38566747  1
  O  O314  1  0.74909231  0.74982538  0.88190049  1
  O  O315  1  0.00525392  0.11028039  -0.00495753  1
  O  O316  1  0.00157666  0.10862836  0.50497477  1
  O  O317  1  -0.00596230  0.62105390  0.01807759  1
  O  O318  1  0.00058617  0.61875190  0.50419768  1
  O  O319  1  0.49301384  0.11393046  0.00961376  1
  O  O320  1  0.48674161  0.11353210  0.50833358  1
  O  O321  1  0.50405806  0.61573256  -0.01084197  1
  O  O322  1  0.50363035  0.62237799  0.50629221  1
  O  O323  1  0.49288042  0.38079777  0.49338875  1
  O  O324  1  0.48574076  0.38326496  0.99468879  1
  O  O325  1  0.49542114  0.88957829  0.50455677  1
  O  O326  1  0.48772987  0.88175965  0.99762571  1
  O  O327  1  0.99588237  0.38370744  0.49303256  1
  O  O328  1  0.99925612  0.37787567  0.98138265  1
  O  O329  1  0.99927005  0.88524334  0.49767434  1
  O  O330  1  1.00544445  0.87037871  0.98596178  1
  O  O331  1  0.50773209  0.49014675  0.38174237  1
  O  O332  1  0.47864879  0.49098993  0.85837468  1
  O  O333  1  0.49462736  1.00201810  0.38745877  1
  O  O334  1  0.49108785  0.99413673  0.88572828  1
  O  O335  1  0.99981841  0.49792920  0.38713512  1
  O  O336  1  0.99200803  0.49590486  0.87799862  1
  O  O337  1  1.00827544  0.98776118  0.39233988  1
  O  O338  1  1.00374538  0.98982529  0.88700163  1
  O  O339  1  0.01745176  -0.01873030  0.10551415  1
  O  O340  1  0.00847579  0.00074642  0.61856788  1
  O  O341  1  0.01141863  0.50795048  0.12490546  1
  O  O342  1  0.00663198  0.50515096  0.61502147  1
  O  O343  1  0.48898535  0.01014911  0.11995860  1
  O  O344  1  0.50967229  0.01119276  0.62219649  1
  O  O345  1  0.50666516  0.50155062  0.12695174  1
  O  O346  1  0.50593896  0.50803344  0.61835926  1
  O  O347  1  0.23694565  0.38464058  0.26518036  1
  O  O348  1  0.24276520  0.38679706  0.74071761  1
  O  O349  1  0.26094422  0.88748775  0.24300018  1
  O  O350  1  0.24605868  0.87940308  0.74757446  1
  O  O351  1  0.75595534  0.38925729  0.25108927  1
  O  O352  1  0.74018161  0.38018815  0.74450941  1
  O  O353  1  0.73782575  0.87524487  0.24889276  1
  O  O354  1  0.74035914  0.86772960  0.73903363  1
  O  O355  1  0.25594149  0.11634746  0.25923233  1
  O  O356  1  0.26209684  0.12034772  0.75885548  1
  O  O357  1  0.25780863  0.61830760  0.25742586  1
  O  O358  1  0.25419557  0.61614616  0.74774360  1
  O  O359  1  0.73490175  0.10653575  0.24287058  1
  O  O360  1  0.70441541  0.07861229  0.69259501  1
  O  O361  1  0.76195191  0.61922692  0.25341911  1
  O  O362  1  0.75793044  0.62249563  0.75468614  1
  O  O363  1  0.36625197  0.11999784  0.37012633  1
  O  O364  1  0.37147793  0.12460100  0.86871606  1
  O  O365  1  0.36293713  0.63154134  0.36540708  1
  O  O366  1  0.36563595  0.61582711  0.86695034  1
  O  O367  1  0.90957892  0.11718186  0.35276090  1
  O  O368  1  0.86831521  0.09985806  0.87272700  1
  O  O369  1  0.87525977  0.62449606  0.36583637  1
  O  O370  1  0.87314043  0.61991637  0.86916306  1
  O  O371  1  0.11527728  0.38448938  0.14608843  1
  O  O372  1  0.12445976  0.38605880  0.62839022  1
  O  O373  1  0.14226873  0.88656263  0.12529797  1
  O  O374  1  0.13233226  0.88475835  0.63816872  1
  O  O375  1  0.64295859  0.37522501  0.11214302  1
  O  O376  1  0.63037223  0.38112408  0.63084153  1
  O  O377  1  0.63342353  0.85806247  0.13975668  1
  O  O378  1  0.63390388  0.88767088  0.63365225  1
  O  O379  1  0.13217813  0.26457494  0.24773568  1
  O  O380  1  0.13678882  0.26739614  0.75186817  1
  O  O381  1  0.13466072  0.75849363  0.23797192  1
  O  O382  1  0.11783101  0.75854710  0.74334433  1
  O  O383  1  0.60968901  0.24826019  0.25755667  1
  O  O384  1  0.62476642  0.26117619  0.73845092  1
  O  O385  1  0.61607817  0.75483727  0.26252904  1
  O  O386  1  0.62006292  0.76197381  0.75531950  1
  O  O387  1  0.38189687  0.24716114  0.24395260  1
  O  O388  1  0.36645581  0.24313374  0.73800245  1
  O  O389  1  0.37910010  0.74317937  0.24670203  1
  O  O390  1  0.37859711  0.74669227  0.74612922  1
  O  O391  1  0.88689156  0.26127056  0.24840187  1
  O  O392  1  0.87128930  0.25500384  0.74137002  1
  O  O393  1  0.86615289  0.74101700  0.24276585  1
  O  O394  1  0.88579844  0.74577301  0.74517747  1
  O  O395  1  0.38122103  0.48848283  0.50686953  1
  O  O396  1  0.36950944  0.49120591  0.99055562  1
  O  O397  1  0.38061876  0.99559097  0.49927654  1
  O  O398  1  0.37931692  0.98978135  0.99778953  1
  O  O399  1  0.88381579  0.49037103  0.50332608  1
  O  O400  1  0.87232351  0.50654518  0.98562619  1
  O  O401  1  0.89030138  0.99957805  0.49839509  1
  O  O402  1  0.89342902  0.99252204  0.99228959  1
  O  O403  1  0.11995936  0.00325980  0.00395211  1
  O  O404  1  0.11714126  -0.00567720  0.51437565  1
  O  O405  1  0.12705316  0.48345792  0.02614837  1
  O  O406  1  0.11755845  0.50021145  0.50640288  1
  O  O407  1  0.60671903  -0.00473265  -0.00139465  1
  O  O408  1  0.61813281  0.00550533  0.51396649  1
  O  O409  1  0.61267287  0.51006609  -0.04322360  1
  O  O410  1  0.61998601  0.50676303  0.50743572  1
  O  O411  1  0.37119558  0.36904988  0.11070070  1
  O  O412  1  0.37462965  0.36796743  0.61558043  1
  O  O413  1  0.36641814  0.86805472  0.12023835  1
  O  O414  1  0.37056635  0.87259890  0.62271779  1
  O  O415  1  0.85512093  0.37866224  0.10340690  1
  O  O416  1  0.87329671  0.36693974  0.61717841  1
  O  O417  1  0.86720457  0.86870825  0.12891111  1
  O  O418  1  0.86762089  0.86782341  0.62500019  1
  O  O419  1  0.13920947  0.12210776  0.37166278  1
  O  O420  1  0.13694504  0.13736924  0.87700517  1
  O  O421  1  0.13488349  0.63290727  0.37360653  1
  O  O422  1  0.14273809  0.57494831  0.88870027  1
  O  O423  1  0.61346156  0.14306413  0.37948160  1
  O  O424  1  0.61536182  0.12998876  0.88307416  1
  O  O425  1  0.62614412  0.63944885  0.38476054  1
  O  O426  1  0.63718441  0.64386800  0.86265886  1
