# generated using pymatgen
data_V85Zn86O256
_symmetry_space_group_name_H-M   'P 1'
_cell_length_a   16.96725209
_cell_length_b   16.98502362
_cell_length_c   16.97128176
_cell_angle_alpha   90.04309846
_cell_angle_beta   90.11225687
_cell_angle_gamma   90.02212373
_symmetry_Int_Tables_number   1
_chemical_formula_structural   V85Zn86O256
_chemical_formula_sum   'V85 Zn86 O256'
_cell_volume   4890.92859094
_cell_formula_units_Z   1
loop_
 _symmetry_equiv_pos_site_id
 _symmetry_equiv_pos_as_xyz
  1  'x, y, z'
loop_
 _atom_site_type_symbol
 _atom_site_label
 _atom_site_symmetry_multiplicity
 _atom_site_fract_x
 _atom_site_fract_y
 _atom_site_fract_z
 _atom_site_occupancy
  V  V0  1  0.49700953  0.87235351  0.36389884  1
  V  V1  1  0.62570460  0.14397302  0.00193411  1
  V  V2  1  0.24669719  0.00286714  0.25065814  1
  V  V3  1  0.49622486  0.24911165  0.24368212  1
  V  V4  1  0.23786770  0.74426598  0.50113345  1
  V  V5  1  0.38137096  0.63142241  0.75194693  1
  V  V6  1  0.62696490  0.24959712  0.37603406  1
  V  V7  1  0.37321184  0.00276207  0.37414098  1
  V  V8  1  0.25359596  0.00537816  0.76294866  1
  V  V9  1  0.12612337  0.37499213  0.74849408  1
  V  V10  1  0.24827015  0.13191983  0.38954152  1
  V  V11  1  0.74954523  0.12608715  0.37703298  1
  V  V12  1  0.74934007  0.75037601  0.00298797  1
  V  V13  1  0.87581656  0.87642600  0.49948271  1
  V  V14  1  0.00123324  0.12635600  0.62110810  1
  V  V15  1  0.62518485  0.37982436  0.24460193  1
  V  V16  1  0.25388544  0.74000468  0.00119680  1
  V  V17  1  0.38029974  0.74944314  0.62853293  1
  V  V18  1  0.12656751  0.00484671  0.62159732  1
  V  V19  1  0.37709768  0.36839226  0.00523232  1
  V  V20  1  0.87634154  0.49952173  0.87195184  1
  V  V21  1  0.62658896  0.61859631  0.00791651  1
  V  V22  1  0.24819622  0.36780356  0.61763513  1
  V  V23  1  0.12505756  -0.00353840  0.13045243  1
  V  V24  1  0.25314533  0.24643049  0.00027848  1
  V  V25  1  0.12805374  0.24866206  0.39030924  1
  V  V26  1  -0.00197731  0.13339105  0.12837946  1
  V  V27  1  0.49919292  -0.00391891  0.49862589  1
  V  V28  1  0.75007293  0.87749909  0.62607058  1
  V  V29  1  0.74383929  0.37793220  0.62071467  1
  V  V30  1  0.24906748  0.87655533  0.62385060  1
  V  V31  1  0.50525989  0.49609959  0.00744284  1
  V  V32  1  0.74985236  -0.00139812  0.75652314  1
  V  V33  1  0.37329271  0.87325391  0.49793281  1
  V  V34  1  0.01303913  0.86464367  0.36280808  1
  V  V35  1  0.00241340  0.50388167  0.49909600  1
  V  V36  1  0.12659087  0.87616576  0.75190221  1
  V  V37  1  0.74706682  0.49953745  0.24053625  1
  V  V38  1  0.86983866  0.37180093  0.49766684  1
  V  V39  1  0.86675557  0.87524610  0.00454781  1
  V  V40  1  0.37785015  0.88167943  -0.00068669  1
  V  V41  1  0.12630852  0.50607842  0.62081789  1
  V  V42  1  0.62110726  0.75213796  0.36961095  1
  V  V43  1  0.61207662  0.87162666  0.76249392  1
  V  V44  1  0.49869032  0.12942883  0.63205888  1
  V  V45  1  0.37243541  0.36792289  0.49886159  1
  V  V46  1  0.74741161  0.13668835  0.88127716  1
  V  V47  1  0.87959617  0.75244481  0.12674820  1
  V  V48  1  0.00344895  0.00366931  0.49716486  1
  V  V49  1  0.00052480  -0.00047958  0.00080964  1
  V  V50  1  0.00057439  0.87449572  0.87645436  1
  V  V51  1  0.23396193  0.62141207  0.38220550  1
  V  V52  1  0.12958380  0.24527842  0.87303754  1
  V  V53  1  -0.00242200  0.36841942  0.36826795  1
  V  V54  1  0.50450430  0.36252251  0.87246515  1
  V  V55  1  0.87757921  0.13190157  0.24900729  1
  V  V56  1  0.00055784  0.24953841  0.74777343  1
  V  V57  1  0.37772700  0.50191720  0.37957305  1
  V  V58  1  0.86983499  0.36966218  0.00128251  1
  V  V59  1  0.87450972  0.00023039  0.87659424  1
  V  V60  1  0.87586706  -0.00019371  0.37309683  1
  V  V61  1  0.87645227  0.62550376  0.74667840  1
  V  V62  1  0.73703192  0.50204397  0.74596762  1
  V  V63  1  0.37713562  0.24968343  0.63122163  1
  V  V64  1  0.86894350  0.25021252  0.62156040  1
  V  V65  1  0.00735829  0.50396680  -0.00270917  1
  V  V66  1  0.37521400  0.49892491  0.87341447  1
  V  V67  1  0.00614118  0.62457800  0.12151076  1
  V  V68  1  0.74762916  -0.00645310  0.24518439  1
  V  V69  1  0.25111312  0.37163508  0.12526584  1
  V  V70  1  0.62005625  0.35518090  0.75069076  1
  V  V71  1  0.00185097  0.75016463  0.75063323  1
  V  V72  1  0.37450500  0.13236631  0.24374916  1
  V  V73  1  0.75035949  0.62741523  0.37425480  1
  V  V74  1  0.62565110  0.12630604  0.49932090  1
  V  V75  1  0.49942680  0.37492475  0.37599990  1
  V  V76  1  0.37784021  0.63168837  0.25466273  1
  V  V77  1  0.12754692  0.12380464  -0.00278719  1
  V  V78  1  0.88070108  0.62674260  0.24856636  1
  V  V79  1  0.87744840  0.75142516  0.62569472  1
  V  V80  1  0.49986789  0.62492593  0.13267383  1
  V  V81  1  0.62196523  -0.00877492  0.11576220  1
  V  V82  1  0.12114767  0.36624862  0.24538247  1
  V  V83  1  0.74865053  0.62602840  0.87615735  1
  V  V84  1  0.13004827  0.74269171  0.88165199  1
  Zn  Zn85  1  0.87159432  0.12713993  0.75134019  1
  Zn  Zn86  1  0.12709412  0.50022125  0.12149748  1
  Zn  Zn87  1  0.74007266  0.37009384  0.11486673  1
  Zn  Zn88  1  0.25215575  0.50145743  0.74693647  1
  Zn  Zn89  1  0.87593581  0.49952260  0.37269258  1
  Zn  Zn90  1  0.49494514  0.12300090  0.11583649  1
  Zn  Zn91  1  0.62561715  0.87132258  0.24381260  1
  Zn  Zn92  1  0.62187537  -0.00317191  0.62572846  1
  Zn  Zn93  1  0.51249591  0.49747923  0.51009611  1
  Zn  Zn94  1  0.38011757  0.75650866  0.13315106  1
  Zn  Zn95  1  0.38859101  0.00772538  0.88541871  1
  Zn  Zn96  1  0.62641219  0.61880649  0.50555241  1
  Zn  Zn97  1  0.60686209  0.74757587  0.87627807  1
  Zn  Zn98  1  0.24831362  0.49898331  0.24907685  1
  Zn  Zn99  1  0.75377982  0.74837615  0.49810194  1
  Zn  Zn100  1  0.24456040  0.61663133  0.87680713  1
  Zn  Zn101  1  0.00001832  0.37370582  0.87459550  1
  Zn  Zn102  1  0.00719520  0.63016302  0.61800300  1
  Zn  Zn103  1  0.86835410  0.24836243  0.12146092  1
  Zn  Zn104  1  0.23678452  0.85511327  0.13940549  1
  Zn  Zn105  1  0.37252050  0.13365575  0.76424998  1
  Zn  Zn106  1  0.51112980  0.61529604  0.62910666  1
  Zn  Zn107  1  0.18644516  0.18746897  0.18880985  1
  Zn  Zn108  1  0.18943402  0.18653805  0.68307467  1
  Zn  Zn109  1  0.18731980  0.68270963  0.19129245  1
  Zn  Zn110  1  0.19617617  0.68901653  0.69451233  1
  Zn  Zn111  1  0.69014670  0.18783919  0.18554749  1
  Zn  Zn112  1  0.68898403  0.18539322  0.68570470  1
  Zn  Zn113  1  0.69020752  0.68893512  0.18769428  1
  Zn  Zn114  1  0.69137037  0.69120710  0.69270990  1
  Zn  Zn115  1  0.30946933  0.31219156  0.31298849  1
  Zn  Zn116  1  0.31256229  0.31451728  0.81375640  1
  Zn  Zn117  1  0.26597369  0.79629306  0.29889898  1
  Zn  Zn118  1  0.42792849  0.81438190  0.81814941  1
  Zn  Zn119  1  0.80828270  0.31151312  0.30868019  1
  Zn  Zn120  1  0.81162701  0.31609186  0.80775615  1
  Zn  Zn121  1  0.81821695  0.81254652  0.31256489  1
  Zn  Zn122  1  0.81079137  0.81277044  0.81584873  1
  Zn  Zn123  1  0.18623649  0.43625707  0.43645788  1
  Zn  Zn124  1  0.18918401  0.43250879  0.93624238  1
  Zn  Zn125  1  0.18878358  0.93988064  0.43621646  1
  Zn  Zn126  1  0.19236395  0.92747903  0.94381424  1
  Zn  Zn127  1  0.68890932  0.44198315  0.43093155  1
  Zn  Zn128  1  0.68704416  0.43642148  0.93102479  1
  Zn  Zn129  1  0.68505144  0.93688450  0.43506827  1
  Zn  Zn130  1  0.55653009  0.93981051  0.94246980  1
  Zn  Zn131  1  0.30887812  0.06237755  0.06599039  1
  Zn  Zn132  1  0.31517088  0.06438304  0.56518551  1
  Zn  Zn133  1  0.31599296  0.55891868  0.06422098  1
  Zn  Zn134  1  0.31616918  0.56071703  0.56449285  1
  Zn  Zn135  1  0.80755681  0.06123562  0.06348235  1
  Zn  Zn136  1  0.81327254  0.06114126  0.56223474  1
  Zn  Zn137  1  0.81664490  0.56032082  0.06226190  1
  Zn  Zn138  1  0.81464456  0.56007279  0.56071156  1
  Zn  Zn139  1  0.43564161  0.44014968  0.19158077  1
  Zn  Zn140  1  0.43949774  0.43730559  0.68776995  1
  Zn  Zn141  1  0.43260072  0.94226885  0.18183952  1
  Zn  Zn142  1  0.43563427  0.94210756  0.68515120  1
  Zn  Zn143  1  0.93631229  0.44096656  0.18477867  1
  Zn  Zn144  1  0.93771714  0.43807890  0.68415835  1
  Zn  Zn145  1  0.93825123  0.94213334  0.18728662  1
  Zn  Zn146  1  0.93785676  0.93912183  0.68952346  1
  Zn  Zn147  1  0.06301107  0.06691240  0.31361566  1
  Zn  Zn148  1  0.06170735  0.06331386  0.80978139  1
  Zn  Zn149  1  0.06026376  0.55169731  0.30671346  1
  Zn  Zn150  1  0.06158299  0.56288695  0.80776417  1
  Zn  Zn151  1  0.56123251  0.06009146  0.30723102  1
  Zn  Zn152  1  0.56825695  0.06665854  0.81378831  1
  Zn  Zn153  1  0.56387513  0.56209042  0.31800303  1
  Zn  Zn154  1  0.55753923  0.56322346  0.82002351  1
  Zn  Zn155  1  0.43797188  0.18788360  0.43658794  1
  Zn  Zn156  1  0.43893542  0.18031059  0.93449749  1
  Zn  Zn157  1  0.43905840  0.68841094  0.44434885  1
  Zn  Zn158  1  0.43520821  0.68397181  0.94459950  1
  Zn  Zn159  1  0.93799418  0.18922115  0.43624841  1
  Zn  Zn160  1  0.94042128  0.18668892  0.93533552  1
  Zn  Zn161  1  0.93944156  0.69052581  0.43510111  1
  Zn  Zn162  1  0.93819975  0.68752898  0.93721787  1
  Zn  Zn163  1  0.05891887  0.31515154  0.05846624  1
  Zn  Zn164  1  0.05745946  0.31667175  0.56123242  1
  Zn  Zn165  1  0.06169115  0.80956263  0.06220067  1
  Zn  Zn166  1  0.05995663  0.81861302  0.56088326  1
  Zn  Zn167  1  0.56116018  0.31051914  0.06406574  1
  Zn  Zn168  1  0.56034357  0.31319966  0.56184649  1
  Zn  Zn169  1  0.56080903  0.80556860  0.06458854  1
  Zn  Zn170  1  0.58630894  0.77909300  0.58043048  1
  O  O171  1  0.11645579  0.12135471  0.11695701  1
  O  O172  1  0.11212301  0.11766577  0.62753469  1
  O  O173  1  0.11066726  0.61992404  0.13560692  1
  O  O174  1  0.12862194  0.60939281  0.63385718  1
  O  O175  1  0.62971982  0.12014963  0.11048851  1
  O  O176  1  0.61872865  0.12595532  0.61418369  1
  O  O177  1  0.61909853  0.62706757  0.11493606  1
  O  O178  1  0.61601436  0.66653956  0.61466573  1
  O  O179  1  0.37662340  0.38046694  0.38128296  1
  O  O180  1  0.38294040  0.37997046  0.88245710  1
  O  O181  1  0.38220860  0.88424952  0.38360766  1
  O  O182  1  0.37261393  0.88307006  0.89379303  1
  O  O183  1  0.88055835  0.36995736  0.38091739  1
  O  O184  1  0.87526506  0.38509934  0.87881727  1
  O  O185  1  0.88428798  0.88235181  0.38086831  1
  O  O186  1  0.88085092  0.88036803  0.88387769  1
  O  O187  1  0.25193763  0.01380114  0.37113157  1
  O  O188  1  0.24119665  -0.00325467  0.86224014  1
  O  O189  1  0.25798829  0.50890635  0.37939181  1
  O  O190  1  0.26254430  0.49530278  0.87523612  1
  O  O191  1  0.75458527  0.00880603  0.36848323  1
  O  O192  1  0.75833598  0.01108953  0.86366157  1
  O  O193  1  0.75563985  0.51131632  0.36233371  1
  O  O194  1  0.75827869  0.50571310  0.86487481  1
  O  O195  1  0.24676631  0.48541984  0.12205408  1
  O  O196  1  0.24284759  0.48720105  0.62493908  1
  O  O197  1  0.23753561  1.00575469  0.13614636  1
  O  O198  1  0.23968946  0.99659068  0.62172292  1
  O  O199  1  0.75457532  0.49559304  0.13649260  1
  O  O200  1  0.75782135  0.48779254  0.63506425  1
  O  O201  1  0.73608331  1.00531054  0.13443531  1
  O  O202  1  0.75113839  0.99311700  0.63560611  1
  O  O203  1  0.00427935  0.38042838  0.25950111  1
  O  O204  1  0.01123846  0.36874259  0.74693626  1
  O  O205  1  -0.00445271  0.88269490  0.26490983  1
  O  O206  1  0.00613847  0.87101001  0.75639645  1
  O  O207  1  0.50487113  0.36915757  0.25578234  1
  O  O208  1  0.51462730  0.37625272  0.75567622  1
  O  O209  1  0.49640966  0.88243467  0.26216910  1
  O  O210  1  0.50923062  0.87503193  0.74576405  1
  O  O211  1  0.49066118  0.13492710  0.25456504  1
  O  O212  1  0.50079261  0.11953958  0.73377358  1
  O  O213  1  0.49237777  0.61428337  0.24248734  1
  O  O214  1  0.48598049  0.61892524  0.74939302  1
  O  O215  1  0.98960777  0.11810060  0.23962919  1
  O  O216  1  0.99554943  0.13039283  0.73832955  1
  O  O217  1  0.98757207  0.61455799  0.24052040  1
  O  O218  1  0.99324210  0.63232111  0.74438948  1
  O  O219  1  0.36606621  0.25959097  -0.00628143  1
  O  O220  1  0.37792679  0.26188995  0.50676561  1
  O  O221  1  0.36433693  0.75957352  -0.00060151  1
  O  O222  1  0.36202267  0.75563437  0.50740555  1
  O  O223  1  0.88019862  0.26794545  -0.00766243  1
  O  O224  1  0.88062319  0.26028291  0.50992883  1
  O  O225  1  0.87025959  0.75514706  0.00618077  1
  O  O226  1  0.87518916  0.75913603  0.50707595  1
  O  O227  1  0.12537832  0.25729877  0.48929361  1
  O  O228  1  0.13023422  0.24431894  0.99159219  1
  O  O229  1  0.13854622  0.75190552  0.51161016  1
  O  O230  1  0.13821092  0.75386711  0.99452080  1
  O  O231  1  0.61705560  0.23856599  0.48714828  1
  O  O232  1  0.63239973  0.24298331  1.00437349  1
  O  O233  1  0.63685344  0.75277929  0.47913527  1
  O  O234  1  0.63469444  0.74061944  0.99976333  1
  O  O235  1  0.50379399  0.24521646  0.14030774  1
  O  O236  1  0.48963199  0.24087207  0.61874050  1
  O  O237  1  0.49524510  0.72972672  0.12161247  1
  O  O238  1  0.47942444  0.75805890  0.61631937  1
  O  O239  1  0.99419678  0.23657134  0.11600650  1
  O  O240  1  0.99303971  0.24360283  0.62701435  1
  O  O241  1  0.98985335  0.73810083  0.11651690  1
  O  O242  1  0.99581766  0.75088586  0.63122303  1
  O  O243  1  0.01204365  0.25910247  0.37987246  1
  O  O244  1  0.01153079  0.25104244  0.86708703  1
  O  O245  1  0.00065477  0.76542356  0.37719365  1
  O  O246  1  0.00703926  0.75468044  0.87139180  1
  O  O247  1  0.50812220  0.25506442  0.36722742  1
  O  O248  1  0.49668022  0.26434474  0.87854983  1
  O  O249  1  0.50737653  0.76246869  0.38138865  1
  O  O250  1  0.49552630  0.74811026  0.87828404  1
  O  O251  1  0.25425700  0.12542164  0.48852635  1
  O  O252  1  0.23769454  0.13509689  1.00859421  1
  O  O253  1  0.25218130  0.62749098  0.49041980  1
  O  O254  1  0.26289213  0.63414529  0.99318410  1
  O  O255  1  0.73935180  0.11637837  0.48893130  1
  O  O256  1  0.74409554  0.12349259  0.98806866  1
  O  O257  1  0.75497641  0.62480879  0.48489208  1
  O  O258  1  0.74409459  0.62711074  0.99712126  1
  O  O259  1  0.25755029  0.36652365  0.00557036  1
  O  O260  1  0.25868409  0.37827035  0.50825381  1
  O  O261  1  0.25794987  0.86161766  0.01085165  1
  O  O262  1  0.25384839  0.86838123  0.50357029  1
  O  O263  1  0.76527266  0.38618188  -0.00211359  1
  O  O264  1  0.75998982  0.38091509  0.50688352  1
  O  O265  1  0.76488712  0.86372507  -0.00182483  1
  O  O266  1  0.75719658  0.88150976  0.51060424  1
  O  O267  1  0.12937657  0.48130153  0.24672507  1
  O  O268  1  0.12516639  0.48865871  0.74214712  1
  O  O269  1  0.13381649  1.01256823  0.24151499  1
  O  O270  1  0.12986114  0.99816414  0.74026486  1
  O  O271  1  0.63314626  0.48952594  0.25825745  1
  O  O272  1  0.63623427  0.50385298  0.75342419  1
  O  O273  1  0.63408825  0.99965219  0.24292429  1
  O  O274  1  0.63372514  0.98746191  0.74679351  1
  O  O275  1  0.37001234  0.01628634  0.25636536  1
  O  O276  1  0.35892242  -0.00084140  0.75112001  1
  O  O277  1  0.36992036  0.50426538  0.26375928  1
  O  O278  1  0.37448991  0.50159981  0.76145048  1
  O  O279  1  0.86685195  0.01067120  0.25337692  1
  O  O280  1  0.86833798  0.00219845  0.75713978  1
  O  O281  1  0.86681848  0.50858224  0.25056497  1
  O  O282  1  0.86969931  0.50271332  0.75668373  1
  O  O283  1  0.11928146  0.36520588  0.36835757  1
  O  O284  1  0.12377382  0.36522171  0.86401411  1
  O  O285  1  0.11197139  0.88172391  0.37690578  1
  O  O286  1  0.11924141  0.86638539  0.87224214  1
  O  O287  1  0.62136190  0.36527814  0.36784051  1
  O  O288  1  0.62006798  0.37748620  0.85919412  1
  O  O289  1  0.61509071  0.87163997  0.37017702  1
  O  O290  1  0.62100333  0.87658158  0.86436672  1
  O  O291  1  0.37613774  0.12333963  0.13877868  1
  O  O292  1  0.38231408  0.13478765  0.62503148  1
  O  O293  1  0.38315424  0.61872482  0.13817270  1
  O  O294  1  0.37051026  0.63479111  0.63559180  1
  O  O295  1  0.88091633  0.12389902  0.13129101  1
  O  O296  1  0.88040525  0.13434548  0.62521708  1
  O  O297  1  0.88325213  0.63107190  0.13004071  1
  O  O298  1  0.87489615  0.63316854  0.63033225  1
  O  O299  1  0.24392861  0.26011649  0.11230386  1
  O  O300  1  0.25693035  0.25995908  0.62455143  1
  O  O301  1  0.25843696  0.73472205  0.10688269  1
  O  O302  1  0.25684914  0.75810400  0.62090152  1
  O  O303  1  0.75700855  0.25934861  0.13332226  1
  O  O304  1  0.76002856  0.26136479  0.63025989  1
  O  O305  1  0.76296389  0.74178823  0.11145612  1
  O  O306  1  0.75979464  0.76441381  0.62471883  1
  O  O307  1  0.23623114  0.24717713  0.37397502  1
  O  O308  1  0.23897466  0.25610608  0.88523879  1
  O  O309  1  0.25096848  0.72957431  0.38762676  1
  O  O310  1  0.23915081  0.74757449  0.88816140  1
  O  O311  1  0.73867013  0.23758470  0.36894575  1
  O  O312  1  0.75667821  0.23462177  0.86687525  1
  O  O313  1  0.74797549  0.74123936  0.37244851  1
  O  O314  1  0.75394157  0.74180845  0.88885101  1
  O  O315  1  0.00790738  0.11944947  0.00616362  1
  O  O316  1  -0.00717835  0.11571536  0.51001596  1
  O  O317  1  -0.00724335  0.61484439  0.00829800  1
  O  O318  1  -0.00776282  0.60889970  0.49891607  1
  O  O319  1  0.51981495  0.13280289  -0.00003384  1
  O  O320  1  0.50679848  0.11605559  0.50324209  1
  O  O321  1  0.50660996  0.61309990  0.00919739  1
  O  O322  1  0.50385713  0.61957731  0.50526558  1
  O  O323  1  0.49044725  0.37511787  0.49242839  1
  O  O324  1  0.49612751  0.37778276  0.99568502  1
  O  O325  1  0.49472805  0.88945472  0.49360599  1
  O  O326  1  0.48456991  0.87238009  1.00830456  1
  O  O327  1  0.98950395  0.38179543  0.49146154  1
  O  O328  1  0.98894084  0.38545256  0.99446519  1
  O  O329  1  0.99479698  0.88741575  0.49294609  1
  O  O330  1  0.99190400  0.88044059  0.99446249  1
  O  O331  1  0.48985598  0.49104756  0.37472402  1
  O  O332  1  0.49317003  0.48889729  0.88670187  1
  O  O333  1  0.49459064  0.99633466  0.38126475  1
  O  O334  1  0.50002962  1.00041802  0.86931514  1
  O  O335  1  0.99848292  0.48636269  0.38214674  1
  O  O336  1  0.99081778  0.50038571  0.87764817  1
  O  O337  1  0.99617792  1.00147029  0.38388441  1
  O  O338  1  0.99493602  0.99617154  0.88031280  1
  O  O339  1  0.00625502  0.01118576  0.11918632  1
  O  O340  1  0.00519701  0.00678648  0.61873750  1
  O  O341  1  -0.00011102  0.50741476  0.11331611  1
  O  O342  1  0.00834628  0.49978089  0.61636777  1
  O  O343  1  0.51792706  0.00948811  0.13640841  1
  O  O344  1  0.49956605  0.00945603  0.61390893  1
  O  O345  1  0.49601126  0.50420970  0.11379744  1
  O  O346  1  0.49727774  0.50206469  0.62249476  1
  O  O347  1  0.24391107  0.37290879  0.23895084  1
  O  O348  1  0.23908648  0.37451612  0.74034263  1
  O  O349  1  0.26731977  0.90447797  0.25750222  1
  O  O350  1  0.24068568  0.89388528  0.73716669  1
  O  O351  1  0.74095443  0.38488217  0.25329455  1
  O  O352  1  0.73661385  0.38186164  0.74407292  1
  O  O353  1  0.75299328  0.89054904  0.25627471  1
  O  O354  1  0.74798197  0.88332744  0.74524029  1
  O  O355  1  0.25749118  0.12432110  0.25848676  1
  O  O356  1  0.24924472  0.10863590  0.74204764  1
  O  O357  1  0.25721307  0.61876732  0.26661641  1
  O  O358  1  0.26409808  0.61990787  0.75775621  1
  O  O359  1  0.75592298  0.11639499  0.26007904  1
  O  O360  1  0.74791053  0.11640011  0.75832664  1
  O  O361  1  0.75818711  0.61799390  0.25333001  1
  O  O362  1  0.75617872  0.61895855  0.75443840  1
  O  O363  1  0.36667555  0.12344381  0.36958187  1
  O  O364  1  0.36899792  0.11959359  0.87582189  1
  O  O365  1  0.37506107  0.61529139  0.37132944  1
  O  O366  1  0.37756537  0.61072627  0.87078626  1
  O  O367  1  0.86854800  0.12115889  0.37070755  1
  O  O368  1  0.86573713  0.11917535  0.87607977  1
  O  O369  1  0.86949386  0.62746796  0.36320232  1
  O  O370  1  0.87021846  0.61662896  0.86880264  1
  O  O371  1  0.13073917  0.37367186  0.12893521  1
  O  O372  1  0.13049461  0.37871139  0.63035986  1
  O  O373  1  0.11998677  0.89469888  0.11615285  1
  O  O374  1  0.12760294  0.88664836  0.63037347  1
  O  O375  1  0.62221927  0.37229553  0.14082689  1
  O  O376  1  0.63347722  0.36544913  0.63671210  1
  O  O377  1  0.61873675  0.88612310  0.12616537  1
  O  O378  1  0.63702307  0.87298552  0.63393034  1
  O  O379  1  0.12552129  0.26190126  0.25552214  1
  O  O380  1  0.12258233  0.25453230  0.75437695  1
  O  O381  1  0.18055789  0.78751388  0.22433326  1
  O  O382  1  0.12233703  0.75719678  0.75754742  1
  O  O383  1  0.61696251  0.25524345  0.25984599  1
  O  O384  1  0.62587932  0.25716721  0.75247866  1
  O  O385  1  0.63283589  0.75484703  0.26167945  1
  O  O386  1  0.63498470  0.76909142  0.75871689  1
  O  O387  1  0.38452942  0.24403434  0.25854769  1
  O  O388  1  0.37019694  0.25060120  0.73665756  1
  O  O389  1  0.36502190  0.73366466  0.25262006  1
  O  O390  1  0.37324562  0.74331916  0.74221040  1
  O  O391  1  0.87372827  0.23420099  0.25329825  1
  O  O392  1  0.88176359  0.25238217  0.73804726  1
  O  O393  1  0.86818755  0.73950922  0.23681014  1
  O  O394  1  0.88109032  0.74640007  0.74659518  1
  O  O395  1  0.37462206  0.48799822  0.49071593  1
  O  O396  1  0.38430418  0.48820622  0.99307982  1
  O  O397  1  0.38134495  0.99658180  0.49491995  1
  O  O398  1  0.36570897  0.98625417  1.00541446  1
  O  O399  1  0.88314953  0.48732421  0.49759680  1
  O  O400  1  0.88259916  0.49415736  0.98800102  1
  O  O401  1  0.88402151  0.99649236  0.49497511  1
  O  O402  1  0.87919552  0.99283384  0.99782374  1
  O  O403  1  0.12271198  0.00921231  0.00581417  1
  O  O404  1  0.11475396  -0.00291088  0.51070067  1
  O  O405  1  0.11136710  0.49191021  -0.00361012  1
  O  O406  1  0.11412043  0.48876686  0.50994344  1
  O  O407  1  0.62503275  0.00191745  0.01429843  1
  O  O408  1  0.61630193  0.00926318  0.50011044  1
  O  O409  1  0.61669746  0.50616535  -0.00563348  1
  O  O410  1  0.62631053  0.50427162  0.49568170  1
  O  O411  1  0.36779879  0.37917039  0.11394980  1
  O  O412  1  0.36774118  0.36791835  0.61906842  1
  O  O413  1  0.36720656  0.87155694  0.11938910  1
  O  O414  1  0.36657234  0.87175904  0.61829632  1
  O  O415  1  0.87816472  0.37534501  0.10788622  1
  O  O416  1  0.86740334  0.36871853  0.61799037  1
  O  O417  1  0.88547132  0.86505793  0.11591347  1
  O  O418  1  0.86974887  0.87286348  0.62126045  1
  O  O419  1  0.13016444  0.14224303  0.37240083  1
  O  O420  1  0.11877142  0.13351493  0.88521354  1
  O  O421  1  0.13603021  0.61360178  0.37150899  1
  O  O422  1  0.12474530  0.63709828  0.86907897  1
  O  O423  1  0.62997279  0.12951041  0.37947198  1
  O  O424  1  0.63887072  0.12371772  0.88747252  1
  O  O425  1  0.63618109  0.63477164  0.37046577  1
  O  O426  1  0.63046319  0.62606449  0.88847316  1
