# generated using pymatgen
data_V85Zn86O256
_symmetry_space_group_name_H-M   'P 1'
_cell_length_a   16.96467423
_cell_length_b   16.96358661
_cell_length_c   16.95563349
_cell_angle_alpha   90.02983557
_cell_angle_beta   89.97555731
_cell_angle_gamma   90.12521834
_symmetry_Int_Tables_number   1
_chemical_formula_structural   V85Zn86O256
_chemical_formula_sum   'V85 Zn86 O256'
_cell_volume   4879.50862125
_cell_formula_units_Z   1
loop_
 _symmetry_equiv_pos_site_id
 _symmetry_equiv_pos_as_xyz
  1  'x, y, z'
loop_
 _atom_site_type_symbol
 _atom_site_label
 _atom_site_symmetry_multiplicity
 _atom_site_fract_x
 _atom_site_fract_y
 _atom_site_fract_z
 _atom_site_occupancy
  V  V0  1  0.88746682  0.38493595  -0.00364869  1
  V  V1  1  0.87371181  0.62391747  0.25214100  1
  V  V2  1  0.50170833  0.37419923  0.87382077  1
  V  V3  1  0.24831220  0.38910527  0.13167419  1
  V  V4  1  0.37187679  0.85917276  0.50279551  1
  V  V5  1  0.62053245  0.87749765  0.25607114  1
  V  V6  1  0.88888686  0.24714716  0.13621350  1
  V  V7  1  0.62697919  0.37244874  0.74895223  1
  V  V8  1  0.87948611  0.88277104  0.00219922  1
  V  V9  1  0.38106108  0.88003029  0.00006713  1
  V  V10  1  0.62675476  0.62618131  -0.00056198  1
  V  V11  1  0.75506596  0.12559245  0.87319768  1
  V  V12  1  0.87112613  0.87804177  0.50326908  1
  V  V13  1  0.62438231  0.49873017  0.62488598  1
  V  V14  1  0.37804109  0.62588846  0.74049404  1
  V  V15  1  0.49738561  0.36497383  0.37193200  1
  V  V16  1  0.75054056  0.00203772  0.24652378  1
  V  V17  1  0.49684752  0.75053572  0.74496591  1
  V  V18  1  0.09769727  0.53033967  0.11639402  1
  V  V19  1  0.75459759  0.12649378  0.37028685  1
  V  V20  1  0.13015287  0.74897258  0.38195181  1
  V  V21  1  0.11111904  0.73481408  0.88621036  1
  V  V22  1  0.62124403  0.12445714  0.49708902  1
  V  V23  1  0.86719939  0.75836589  0.62734036  1
  V  V24  1  0.12531432  0.87735211  0.25022694  1
  V  V25  1  0.62505437  0.75290460  0.87499202  1
  V  V26  1  0.87897282  0.00591016  0.87778581  1
  V  V27  1  0.88435015  0.25645374  0.62304084  1
  V  V28  1  0.50331019  0.88095276  0.87562130  1
  V  V29  1  0.00451254  0.38173116  0.86360634  1
  V  V30  1  0.00290832  0.88595575  0.87721129  1
  V  V31  1  0.36798344  0.37038269  0.50132343  1
  V  V32  1  0.87503877  0.00328550  0.37227613  1
  V  V33  1  0.24741290  -0.00089742  0.25195646  1
  V  V34  1  0.50162105  0.50040797  -0.00168138  1
  V  V35  1  0.00737713  0.10687651  0.13107623  1
  V  V36  1  0.37446853  -0.00412861  0.37950333  1
  V  V37  1  0.62296191  0.24732879  0.37159006  1
  V  V38  1  0.75305550  0.25668331  0.50021546  1
  V  V39  1  0.89087184  0.13308414  0.74984880  1
  V  V40  1  0.12096088  0.24622968  0.36440387  1
  V  V41  1  -0.00042501  0.74468398  0.24878958  1
  V  V42  1  0.37725530  0.49788200  0.87437865  1
  V  V43  1  0.12263759  0.25352267  0.86704492  1
  V  V44  1  0.62772391  0.24829325  0.87274626  1
  V  V45  1  0.24798557  0.61464791  0.36946456  1
  V  V46  1  0.37711307  0.36747909  0.00742876  1
  V  V47  1  0.49822189  0.12357528  0.62502452  1
  V  V48  1  0.50137495  0.24823796  0.75018640  1
  V  V49  1  -0.00651812  0.37508630  0.36368630  1
  V  V50  1  0.13286374  0.00341497  0.61826586  1
  V  V51  1  -0.00126789  0.87505003  0.37730952  1
  V  V52  1  0.13177737  0.88025124  0.75223575  1
  V  V53  1  0.60836727  0.00464088  0.12160624  1
  V  V54  1  0.62308553  0.62303852  0.49504057  1
  V  V55  1  -0.00757100  0.49554245  0.50028919  1
  V  V56  1  0.23974799  0.24058350  0.50142215  1
  V  V57  1  -0.00115119  0.75424744  0.74682560  1
  V  V58  1  0.61563335  0.12132168  0.00193090  1
  V  V59  1  0.24641090  0.74559200  0.00077573  1
  V  V60  1  0.12644603  0.62504949  0.50312778  1
  V  V61  1  0.75268768  0.49957747  0.75326653  1
  V  V62  1  0.49589789  -0.00379450  0.49971337  1
  V  V63  1  0.36962436  -0.00125157  0.87182625  1
  V  V64  1  0.24149880  0.49285541  0.74979281  1
  V  V65  1  0.24643853  0.87776745  0.12425938  1
  V  V66  1  0.75187659  0.62458022  0.87512180  1
  V  V67  1  0.37012808  0.11992813  0.75383081  1
  V  V68  1  0.75162603  0.37520227  0.12379715  1
  V  V69  1  0.49566220  0.49495144  0.49991746  1
  V  V70  1  0.75146399  0.75107262  0.00101594  1
  V  V71  1  0.74682353  0.50158962  0.25067389  1
  V  V72  1  0.25386513  0.85561377  0.62771797  1
  V  V73  1  0.74607281  0.75348834  0.50143009  1
  V  V74  1  0.75602307  0.25030762  0.00025782  1
  V  V75  1  0.37803335  0.12734711  0.24309794  1
  V  V76  1  0.37636742  0.74970622  0.12549259  1
  V  V77  1  0.24547054  0.24466839  0.01003826  1
  V  V78  1  0.25340836  0.62408330  0.87724584  1
  V  V79  1  0.87751773  0.74838569  0.12677995  1
  V  V80  1  0.50002263  0.75331724  0.25553674  1
  V  V81  1  0.87488073  0.62372013  0.75373630  1
  V  V82  1  0.62095376  0.37205928  0.24690591  1
  V  V83  1  0.50098934  0.62713005  0.12388817  1
  V  V84  1  0.62531568  0.50021507  0.12367986  1
  Zn  Zn85  1  0.50796035  0.22885851  0.21225707  1
  Zn  Zn86  1  0.24139848  0.37086616  0.63279814  1
  Zn  Zn87  1  0.10932467  0.09590513  -0.00102660  1
  Zn  Zn88  1  0.01190255  0.13171244  0.61790478  1
  Zn  Zn89  1  0.63676507  -0.00714402  0.62237535  1
  Zn  Zn90  1  0.13098829  0.39038986  0.24942091  1
  Zn  Zn91  1  0.74687274  0.62448777  0.37500020  1
  Zn  Zn92  1  0.75283823  0.37583893  0.62117208  1
  Zn  Zn93  1  0.86789742  0.49546098  0.38072164  1
  Zn  Zn94  1  0.63791250  0.87208984  0.73591238  1
  Zn  Zn95  1  0.37060714  0.24863120  0.62830657  1
  Zn  Zn96  1  0.35952975  0.48813616  0.36507520  1
  Zn  Zn97  1  0.75650717  -0.00927895  0.73722561  1
  Zn  Zn98  1  0.36646262  0.61820169  0.24368055  1
  Zn  Zn99  1  0.49528249  0.63144139  0.61887869  1
  Zn  Zn100  1  0.24005614  0.11841097  0.37982794  1
  Zn  Zn101  1  0.24427183  0.12079087  0.87679268  1
  Zn  Zn102  1  0.11888982  0.49560848  0.63185544  1
  Zn  Zn103  1  0.74869828  0.87812914  0.12433536  1
  Zn  Zn104  1  0.00987753  0.00774947  0.49669437  1
  Zn  Zn105  1  -0.00053731  0.62433838  0.62478703  1
  Zn  Zn106  1  0.61970111  0.75509367  0.37741488  1
  Zn  Zn107  1  0.18506604  0.18509500  0.18633695  1
  Zn  Zn108  1  0.18942580  0.18783839  0.68950088  1
  Zn  Zn109  1  0.18418020  0.68719984  0.18793027  1
  Zn  Zn110  1  0.18407453  0.67956073  0.69482257  1
  Zn  Zn111  1  0.69001841  0.18646200  0.18391117  1
  Zn  Zn112  1  0.70822402  0.15698977  0.66884789  1
  Zn  Zn113  1  0.68742956  0.69040790  0.18751430  1
  Zn  Zn114  1  0.68274245  0.68751750  0.68591443  1
  Zn  Zn115  1  0.30908457  0.30691523  0.31247913  1
  Zn  Zn116  1  0.31268103  0.30780962  0.81970690  1
  Zn  Zn117  1  0.31352266  0.80784830  0.31541779  1
  Zn  Zn118  1  0.31318010  0.80889863  0.81486844  1
  Zn  Zn119  1  0.81025480  0.31478188  0.31205290  1
  Zn  Zn120  1  0.81886350  0.31353699  0.81093117  1
  Zn  Zn121  1  0.80749010  0.81463418  0.31560926  1
  Zn  Zn122  1  0.81219808  0.81580898  0.81629985  1
  Zn  Zn123  1  0.17751766  0.43394480  0.44194308  1
  Zn  Zn124  1  0.18308207  0.43832834  0.94533067  1
  Zn  Zn125  1  0.19319014  0.92907402  0.44114203  1
  Zn  Zn126  1  0.18985763  0.93189463  0.93502002  1
  Zn  Zn127  1  0.68297614  0.43664953  0.43409750  1
  Zn  Zn128  1  0.69106939  0.43687028  0.93662016  1
  Zn  Zn129  1  0.68660001  0.93939374  0.43959579  1
  Zn  Zn130  1  0.69032915  0.94036176  0.93651470  1
  Zn  Zn131  1  0.30925155  0.05874506  0.06138518  1
  Zn  Zn132  1  0.30936189  0.05663862  0.56964443  1
  Zn  Zn133  1  0.31476610  0.56083028  0.06067015  1
  Zn  Zn134  1  0.30868648  0.56127473  0.56004468  1
  Zn  Zn135  1  0.81836492  0.06819213  0.06484887  1
  Zn  Zn136  1  0.82198448  0.07196622  0.55752207  1
  Zn  Zn137  1  0.81623726  0.56349055  0.06468990  1
  Zn  Zn138  1  0.81132909  0.56813465  0.56716854  1
  Zn  Zn139  1  0.43595155  0.43670537  0.18894149  1
  Zn  Zn140  1  0.43342428  0.43566263  0.68616362  1
  Zn  Zn141  1  0.43408286  0.93714928  0.18955758  1
  Zn  Zn142  1  0.43777539  0.93472302  0.68775204  1
  Zn  Zn143  1  0.93860259  0.44242511  0.18165287  1
  Zn  Zn144  1  0.93805731  0.43614401  0.68680650  1
  Zn  Zn145  1  0.93743504  0.93531259  0.19080560  1
  Zn  Zn146  1  0.94245601  0.94512362  0.68879996  1
  Zn  Zn147  1  0.05553845  0.06601335  0.30733434  1
  Zn  Zn148  1  0.06963443  0.06722032  0.81026181  1
  Zn  Zn149  1  0.06482521  0.55858717  0.30819510  1
  Zn  Zn150  1  0.04809198  0.57512837  0.84061554  1
  Zn  Zn151  1  0.56065971  0.05899862  0.31367847  1
  Zn  Zn152  1  0.56674367  0.05853295  0.80926736  1
  Zn  Zn153  1  0.54612973  0.55580730  0.30761102  1
  Zn  Zn154  1  0.56408265  0.56418953  0.81133885  1
  Zn  Zn155  1  0.42873420  0.18271411  0.43424947  1
  Zn  Zn156  1  0.43553732  0.18806594  0.93993469  1
  Zn  Zn157  1  0.43581592  0.68246062  0.43464685  1
  Zn  Zn158  1  0.43739007  0.69071682  0.93546425  1
  Zn  Zn159  1  0.94160885  0.18935328  0.43997835  1
  Zn  Zn160  1  0.94552100  0.19219302  0.94638436  1
  Zn  Zn161  1  0.93795949  0.68650666  0.43734235  1
  Zn  Zn162  1  0.93503425  0.69565979  0.93540107  1
  Zn  Zn163  1  0.06826337  0.31307717  0.06256228  1
  Zn  Zn164  1  0.06435847  0.31976173  0.55979685  1
  Zn  Zn165  1  0.06132964  0.81810164  0.06419235  1
  Zn  Zn166  1  0.06107065  0.81713395  0.56356275  1
  Zn  Zn167  1  0.56558970  0.30914131  0.05911262  1
  Zn  Zn168  1  0.56323618  0.30913399  0.56344312  1
  Zn  Zn169  1  0.56490270  0.81671789  0.06578681  1
  Zn  Zn170  1  0.56033933  0.81537040  0.56305193  1
  O  O171  1  0.11232396  0.12489957  0.12434775  1
  O  O172  1  0.12934317  0.10701449  0.63566954  1
  O  O173  1  0.11545100  0.63115189  0.11933909  1
  O  O174  1  0.12011066  0.62026970  0.61829802  1
  O  O175  1  0.63130201  0.11695010  0.11458166  1
  O  O176  1  0.60708052  0.12764497  0.61550621  1
  O  O177  1  0.62204535  0.62061691  0.11767307  1
  O  O178  1  0.61967194  0.61785414  0.61268559  1
  O  O179  1  0.38086454  0.37112689  0.38181323  1
  O  O180  1  0.38303905  0.37951999  0.88391573  1
  O  O181  1  0.36249931  0.88146982  0.39315940  1
  O  O182  1  0.38104140  0.87904222  0.88091997  1
  O  O183  1  0.88867809  0.37491261  0.37186436  1
  O  O184  1  0.89037365  0.36496085  0.88773066  1
  O  O185  1  0.87820660  0.88131684  0.38357594  1
  O  O186  1  0.88334643  0.88684817  0.88189166  1
  O  O187  1  0.25463615  -0.00258226  0.36917253  1
  O  O188  1  0.26572466  -0.00169503  0.87324269  1
  O  O189  1  0.24188368  0.51001799  0.37437931  1
  O  O190  1  0.25661697  0.50516687  0.87016926  1
  O  O191  1  0.75427957  0.00779114  0.36821567  1
  O  O192  1  0.76454258  0.01211823  0.87742054  1
  O  O193  1  0.75048180  0.50094200  0.36694097  1
  O  O194  1  0.74452654  0.50762608  0.86141040  1
  O  O195  1  0.25266041  0.49047333  0.12546620  1
  O  O196  1  0.25128264  0.50117966  0.64265715  1
  O  O197  1  0.25754475  0.98485077  0.13934813  1
  O  O198  1  0.23796976  0.98618595  0.62726103  1
  O  O199  1  0.74422148  0.49588732  0.13047357  1
  O  O200  1  0.74407801  0.49938637  0.63478926  1
  O  O201  1  0.75325362  1.00328946  0.13868973  1
  O  O202  1  0.74202145  1.04446784  0.63325377  1
  O  O203  1  0.00185544  0.38354717  0.26165965  1
  O  O204  1  -0.00479653  0.37555725  0.76446831  1
  O  O205  1  0.00744097  0.86713038  0.25701787  1
  O  O206  1  0.00958625  0.87161120  0.75450719  1
  O  O207  1  0.50354306  0.36991565  0.26027338  1
  O  O208  1  0.50525813  0.36951267  0.75441042  1
  O  O209  1  0.50820406  0.86527173  0.24283035  1
  O  O210  1  0.49717795  0.86511140  0.76054389  1
  O  O211  1  0.48444953  0.12335065  0.25803901  1
  O  O212  1  0.49457247  0.12872812  0.74319325  1
  O  O213  1  0.50699788  0.63978642  0.23905140  1
  O  O214  1  0.49397813  0.63139824  0.74898155  1
  O  O215  1  0.99800391  0.12581811  0.23221588  1
  O  O216  1  0.99377950  0.12518927  0.74474252  1
  O  O217  1  0.99017120  0.63844018  0.25791881  1
  O  O218  1  0.99152518  0.63697232  0.75401715  1
  O  O219  1  0.36116569  0.26122281  -0.01131828  1
  O  O220  1  0.36071453  0.25558096  0.49739620  1
  O  O221  1  0.36649864  0.75784833  0.00371544  1
  O  O222  1  0.38193191  0.76110729  0.49952342  1
  O  O223  1  0.86809096  0.25997815  0.00879910  1
  O  O224  1  0.86431235  0.24375076  0.51191901  1
  O  O225  1  0.87265093  0.75695702  0.00846454  1
  O  O226  1  0.86767070  0.75654611  0.50734634  1
  O  O227  1  0.13626895  0.25446180  0.49094500  1
  O  O228  1  0.14016095  0.25145009  0.99510956  1
  O  O229  1  0.11204136  0.74057583  0.49060133  1
  O  O230  1  0.13864243  0.76349969  0.99454803  1
  O  O231  1  0.63129270  0.24335448  0.49247440  1
  O  O232  1  0.63879379  0.24227427  0.99352514  1
  O  O233  1  0.62794745  0.74180237  0.49932486  1
  O  O234  1  0.63163273  0.74555228  0.99716215  1
  O  O235  1  0.48580859  0.25675325  0.11040360  1
  O  O236  1  0.49488511  0.24012212  0.62992947  1
  O  O237  1  0.49517363  0.74646910  0.12979652  1
  O  O238  1  0.50225946  0.74923165  0.64035140  1
  O  O239  1  0.98906518  0.25987495  0.12839013  1
  O  O240  1  0.98705742  0.25331565  0.61413895  1
  O  O241  1  0.98920681  0.75939555  0.13724810  1
  O  O242  1  0.99109665  0.75261978  0.63551551  1
  O  O243  1  0.01065247  0.26490427  0.38201296  1
  O  O244  1  0.01618807  0.25894091  0.88302811  1
  O  O245  1  0.00569124  0.75582217  0.36716557  1
  O  O246  1  -0.00578403  0.77329702  0.86013060  1
  O  O247  1  0.50414841  0.25728672  0.38126564  1
  O  O248  1  0.50771585  0.25471040  0.87065051  1
  O  O249  1  0.50009881  0.74420332  0.36080884  1
  O  O250  1  0.50565992  0.75769923  0.86783438  1
  O  O251  1  0.25313795  0.13729396  0.50011818  1
  O  O252  1  0.25688957  0.13946017  0.99928666  1
  O  O253  1  0.23461102  0.61829209  0.49032485  1
  O  O254  1  0.25905674  0.63606966  0.99078033  1
  O  O255  1  0.74298542  0.13422361  0.48619690  1
  O  O256  1  0.75271384  0.13516453  0.99070721  1
  O  O257  1  0.74001767  0.63314180  0.49918198  1
  O  O258  1  0.74738668  0.63032072  0.99566535  1
  O  O259  1  0.25864550  0.36844112  0.01067792  1
  O  O260  1  0.25742627  0.36653435  0.49610320  1
  O  O261  1  0.26158311  0.86396621  0.00773169  1
  O  O262  1  0.26020029  0.86958992  0.51522167  1
  O  O263  1  0.75744479  0.36627677  0.00181068  1
  O  O264  1  0.74307608  0.36123603  0.49859885  1
  O  O265  1  0.76434177  0.86974365  -0.00144773  1
  O  O266  1  0.75934538  0.86643757  0.49477974  1
  O  O267  1  0.11730865  0.50417706  0.22272721  1
  O  O268  1  0.14187452  0.50476461  0.75582485  1
  O  O269  1  0.13371037  0.98559800  0.26152001  1
  O  O270  1  0.12444453  0.98461106  0.74625359  1
  O  O271  1  0.62581729  0.49313806  0.24302286  1
  O  O272  1  0.63224412  0.49508380  0.74450597  1
  O  O273  1  0.63013461  0.99644434  0.24216602  1
  O  O274  1  0.63303371  0.99507156  0.74533194  1
  O  O275  1  0.36654327  -0.00124237  0.26222688  1
  O  O276  1  0.38295088  0.00899332  0.75889523  1
  O  O277  1  0.40714338  0.51457754  0.26583205  1
  O  O278  1  0.37372875  0.50796493  0.75719605  1
  O  O279  1  0.86396945  -0.01019795  0.26443017  1
  O  O280  1  0.87652775  0.01249979  0.76034972  1
  O  O281  1  0.86706991  0.51088662  0.24757347  1
  O  O282  1  0.86574571  0.51329819  0.74097191  1
  O  O283  1  0.11500581  0.36927315  0.36887150  1
  O  O284  1  0.11612441  0.36532872  0.88223746  1
  O  O285  1  0.12128210  0.86644076  0.37093696  1
  O  O286  1  0.11885531  0.86362647  0.86938769  1
  O  O287  1  0.61611647  0.36612340  0.36761209  1
  O  O288  1  0.62142388  0.36873814  0.86996085  1
  O  O289  1  0.62542498  0.87855338  0.36086552  1
  O  O290  1  0.61608061  0.86991629  0.88034338  1
  O  O291  1  0.36990223  0.11031872  0.14484607  1
  O  O292  1  0.38184623  0.12446462  0.63425473  1
  O  O293  1  0.38210257  0.63207459  0.12377128  1
  O  O294  1  0.37687427  0.61894419  0.63551376  1
  O  O295  1  0.88599789  0.14139165  0.12158263  1
  O  O296  1  0.88023110  0.13809179  0.63532556  1
  O  O297  1  0.87054194  0.63888948  0.13621970  1
  O  O298  1  0.87775811  0.63980622  0.63629493  1
  O  O299  1  0.24841340  0.25546802  0.11325608  1
  O  O300  1  0.24905109  0.25076764  0.61218850  1
  O  O301  1  0.25535403  0.75724509  0.12033020  1
  O  O302  1  0.24421941  0.75663604  0.62898417  1
  O  O303  1  0.75698992  0.25471806  0.11551878  1
  O  O304  1  0.75741790  0.24775324  0.61450361  1
  O  O305  1  0.76035986  0.75483175  0.12015522  1
  O  O306  1  0.75799008  0.74469698  0.61463748  1
  O  O307  1  0.23680864  0.24829775  0.38485269  1
  O  O308  1  0.23802254  0.25121513  0.88676951  1
  O  O309  1  0.23534750  0.74162740  0.37333388  1
  O  O310  1  0.24098665  0.74346727  0.88357979  1
  O  O311  1  0.74515105  0.24398796  0.37820744  1
  O  O312  1  0.74984972  0.24579841  0.88288280  1
  O  O313  1  0.74426251  0.74725254  0.38822395  1
  O  O314  1  0.74596163  0.74437260  0.88226242  1
  O  O315  1  0.00136518  0.13013891  0.02021185  1
  O  O316  1  -0.00610550  0.11802838  0.50644267  1
  O  O317  1  0.04223896  0.66095856  -0.06927384  1
  O  O318  1  0.00752246  0.61641972  0.49850326  1
  O  O319  1  0.51744603  0.12662662  -0.00990089  1
  O  O320  1  0.49873646  0.11807579  0.50555003  1
  O  O321  1  0.50603967  0.62114932  0.00290329  1
  O  O322  1  0.50298640  0.61312114  0.49913282  1
  O  O323  1  0.49005617  0.37532437  0.49447351  1
  O  O324  1  0.49602094  0.38160020  0.99245873  1
  O  O325  1  0.48079295  0.88463222  0.50998175  1
  O  O326  1  0.48908341  0.86475368  0.99046413  1
  O  O327  1  1.00155679  0.39156804  0.48870412  1
  O  O328  1  0.98864265  0.37377129  1.00111870  1
  O  O329  1  0.98776471  0.87765427  0.49419978  1
  O  O330  1  0.98969069  0.86927406  0.98969781  1
  O  O331  1  0.50637546  0.48212719  0.39056630  1
  O  O332  1  0.49805060  0.49467557  0.87905838  1
  O  O333  1  0.48755318  1.00198872  0.38812243  1
  O  O334  1  0.49278305  0.98655468  0.87216352  1
  O  O335  1  0.99807607  0.49156289  0.38136702  1
  O  O336  1  1.00777928  0.48080784  0.88066602  1
  O  O337  1  0.99024831  0.99415314  0.37340672  1
  O  O338  1  0.99455907  0.99336976  0.86932171  1
  O  O339  1  -0.00455263  0.00624450  0.12650592  1
  O  O340  1  0.02065295  -0.00478006  0.62263348  1
  O  O341  1  -0.00287232  0.51430021  0.11594784  1
  O  O342  1  -0.00249906  0.50163217  0.61212566  1
  O  O343  1  0.50947560  -0.00157727  0.12710144  1
  O  O344  1  0.49410152  0.00965602  0.61452154  1
  O  O345  1  0.50705075  0.50548966  0.11702990  1
  O  O346  1  0.50418619  0.49592497  0.61196919  1
  O  O347  1  0.25727146  0.37314309  0.23503939  1
  O  O348  1  0.26067015  0.39002006  0.75420018  1
  O  O349  1  0.24449549  0.87765521  0.24557737  1
  O  O350  1  0.24311416  0.86467266  0.74119548  1
  O  O351  1  0.74115242  0.38134878  0.24413175  1
  O  O352  1  0.74653813  0.38472861  0.75154014  1
  O  O353  1  0.74042436  0.88546036  0.24960865  1
  O  O354  1  0.75243944  0.87783150  0.74968107  1
  O  O355  1  0.25366104  0.11043219  0.25243108  1
  O  O356  1  0.26699483  0.13128011  0.75533401  1
  O  O357  1  0.24810156  0.62890302  0.26460690  1
  O  O358  1  0.26317940  0.61554304  0.75612762  1
  O  O359  1  0.74390866  0.11632295  0.26160018  1
  O  O360  1  0.76512584  0.13296060  0.76834666  1
  O  O361  1  0.75529545  0.62090090  0.25157794  1
  O  O362  1  0.75518676  0.61978437  0.75355160  1
  O  O363  1  0.36512695  0.10969216  0.36854046  1
  O  O364  1  0.37787386  0.11395125  0.87034256  1
  O  O365  1  0.35258540  0.62520701  0.38082943  1
  O  O366  1  0.36907703  0.61918646  0.86889076  1
  O  O367  1  0.86449198  0.11615959  0.38046475  1
  O  O368  1  0.87706250  0.12351273  0.87267999  1
  O  O369  1  0.87087077  0.62515018  0.36247275  1
  O  O370  1  0.86854769  0.63421706  0.86196800  1
  O  O371  1  0.14247567  0.37390054  0.12780809  1
  O  O372  1  0.13061418  0.38412199  0.62010832  1
  O  O373  1  0.13530523  0.86516065  0.13967595  1
  O  O374  1  0.13646352  0.87627774  0.63236221  1
  O  O375  1  0.63210339  0.38066363  0.12657145  1
  O  O376  1  0.62761544  0.38004933  0.63133118  1
  O  O377  1  0.62958921  0.88732292  0.13211243  1
  O  O378  1  0.62705335  0.88048284  0.62132051  1
  O  O379  1  0.13385107  0.25764530  0.26369146  1
  O  O380  1  0.13229025  0.24822504  0.76761461  1
  O  O381  1  0.11691064  0.75742061  0.25969259  1
  O  O382  1  0.11368220  0.75274687  0.76274239  1
  O  O383  1  0.62125803  0.25291930  0.25267766  1
  O  O384  1  0.61994920  0.25387904  0.75619341  1
  O  O385  1  0.61951832  0.76115552  0.25001575  1
  O  O386  1  0.61596803  0.74976635  0.75781794  1
  O  O387  1  0.36921025  0.22772869  0.25594800  1
  O  O388  1  0.38383504  0.24062700  0.75310509  1
  O  O389  1  0.38287044  0.74789098  0.24445040  1
  O  O390  1  0.38445607  0.73696357  0.75944461  1
  O  O391  1  0.86794685  0.25674814  0.23371000  1
  O  O392  1  0.87290848  0.24418115  0.73577648  1
  O  O393  1  0.87930211  0.74724064  0.24622522  1
  O  O394  1  0.87997630  0.74731115  0.74390498  1
  O  O395  1  0.38000862  0.48961467  0.49492564  1
  O  O396  1  0.38227432  0.49114746  0.99332018  1
  O  O397  1  0.37719187  0.99507563  0.49544221  1
  O  O398  1  0.37091554  0.98614176  0.99269173  1
  O  O399  1  0.88753243  0.51191343  0.49834456  1
  O  O400  1  0.86756150  0.48346602  1.00152213  1
  O  O401  1  0.86919674  0.99093673  0.48874524  1
  O  O402  1  0.87262674  0.99273557  0.99195167  1
  O  O403  1  0.14700109  -0.00631854  0.01217772  1
  O  O404  1  0.12910819  -0.00787374  0.51325724  1
  O  O405  1  0.12967630  0.50020053  0.02306340  1
  O  O406  1  0.11012279  0.51062238  0.49911836  1
  O  O407  1  0.63569975  0.00941567  0.01079018  1
  O  O408  1  0.61204397  0.00620347  0.49726750  1
  O  O409  1  0.62227627  0.50573535  0.00340202  1
  O  O410  1  0.61792485  0.50413669  0.50525613  1
  O  O411  1  0.36634609  0.38174868  0.11416295  1
  O  O412  1  0.36870594  0.37032406  0.61351210  1
  O  O413  1  0.36787383  0.86993936  0.11855578  1
  O  O414  1  0.36156768  0.87505930  0.61955304  1
  O  O415  1  0.87089919  0.36839186  0.11456038  1
  O  O416  1  0.87058251  0.36051057  0.62964934  1
  O  O417  1  0.87374738  0.86822489  0.11747875  1
  O  O418  1  0.88068702  0.86838885  0.61670775  1
  O  O419  1  0.12020289  0.14128765  0.36957848  1
  O  O420  1  0.12564908  0.13581491  0.88268730  1
  O  O421  1  0.13060906  0.63000581  0.37999132  1
  O  O422  1  0.15130909  0.62949074  0.85427106  1
  O  O423  1  0.63168902  0.12821326  0.37816508  1
  O  O424  1  0.63782719  0.12763966  0.88095779  1
  O  O425  1  0.62026278  0.62202028  0.38801962  1
  O  O426  1  0.63113586  0.63196714  0.88109583  1
