# generated using pymatgen
data_V85Zn86O256
_symmetry_space_group_name_H-M   'P 1'
_cell_length_a   16.97686799
_cell_length_b   16.96556971
_cell_length_c   16.97313971
_cell_angle_alpha   89.84503528
_cell_angle_beta   89.95104162
_cell_angle_gamma   90.07987764
_symmetry_Int_Tables_number   1
_chemical_formula_structural   V85Zn86O256
_chemical_formula_sum   'V85 Zn86 O256'
_cell_volume   4888.61724060
_cell_formula_units_Z   1
loop_
 _symmetry_equiv_pos_site_id
 _symmetry_equiv_pos_as_xyz
  1  'x, y, z'
loop_
 _atom_site_type_symbol
 _atom_site_label
 _atom_site_symmetry_multiplicity
 _atom_site_fract_x
 _atom_site_fract_y
 _atom_site_fract_z
 _atom_site_occupancy
  V  V0  1  0.75318288  0.37461142  0.62537921  1
  V  V1  1  0.38298341  0.38147016  0.49926236  1
  V  V2  1  0.24945122  0.12510343  0.87545984  1
  V  V3  1  0.87029424  0.00477541  0.37478337  1
  V  V4  1  0.74707326  0.12620331  0.37379580  1
  V  V5  1  0.49775913  0.87511389  0.87662339  1
  V  V6  1  0.00691264  0.61320538  0.62818396  1
  V  V7  1  0.24527630  0.49629816  0.74426478  1
  V  V8  1  0.62198785  0.24732406  0.88039570  1
  V  V9  1  0.00023392  0.24940816  0.74993484  1
  V  V10  1  0.74986226  0.74790290  0.49166796  1
  V  V11  1  0.25408080  0.74731997  0.00667850  1
  V  V12  1  0.36977801  0.25507717  0.62247767  1
  V  V13  1  -0.00282387  0.12545348  0.12426993  1
  V  V14  1  0.38739182  0.37585123  -0.00221917  1
  V  V15  1  0.25038403  0.62091325  0.87745115  1
  V  V16  1  0.87465807  0.62485350  0.75281019  1
  V  V17  1  0.75045375  0.00228756  0.74968246  1
  V  V18  1  0.50424187  0.25593929  0.25247699  1
  V  V19  1  0.01578220  0.12564949  0.62271726  1
  V  V20  1  0.87428422  0.49512719  0.88150499  1
  V  V21  1  0.62485832  0.74946250  0.88071168  1
  V  V22  1  0.00102778  0.87574285  0.36313112  1
  V  V23  1  0.62341223  0.87568501  0.75086901  1
  V  V24  1  0.62227418  0.86575716  0.24880164  1
  V  V25  1  0.73763282  0.38454142  0.13267612  1
  V  V26  1  0.38116789  0.65066065  0.24606247  1
  V  V27  1  0.62152760  0.37410390  0.75468231  1
  V  V28  1  0.50347733  0.62437592  0.62269330  1
  V  V29  1  0.24262953  0.38324404  0.13074693  1
  V  V30  1  0.37328927  0.87175754  0.00216239  1
  V  V31  1  0.87942148  0.24713077  0.62513910  1
  V  V32  1  0.25228062  0.86790776  0.12714242  1
  V  V33  1  0.62223026  0.00135007  0.62381125  1
  V  V34  1  0.62200117  0.49992568  0.62097294  1
  V  V35  1  0.12614816  0.37925568  0.74531671  1
  V  V36  1  0.49939574  0.00117517  0.00079706  1
  V  V37  1  0.23464132  0.12443351  0.37991580  1
  V  V38  1  0.62981373  0.62501246  0.49492028  1
  V  V39  1  0.75103029  0.87384510  0.11819323  1
  V  V40  1  0.24887124  0.88002073  0.62837809  1
  V  V41  1  0.87331979  0.87984041  0.50077781  1
  V  V42  1  -0.00934854  -0.00591593  0.00073182  1
  V  V43  1  0.49979817  0.74993782  0.75056910  1
  V  V44  1  0.37045901  0.86927084  0.49996685  1
  V  V45  1  0.00927284  0.25057651  0.25264236  1
  V  V46  1  0.24599702  -0.00294005  0.25248604  1
  V  V47  1  0.36834494  -0.00015825  0.37480110  1
  V  V48  1  0.87435411  0.25940364  0.12220538  1
  V  V49  1  0.49816512  0.25308625  0.75342433  1
  V  V50  1  0.12441380  0.62063903  0.00528098  1
  V  V51  1  0.37082009  0.74859051  0.62382595  1
  V  V52  1  0.87944960  0.75438835  0.12762520  1
  V  V53  1  0.75063199  0.49908016  0.75082606  1
  V  V54  1  0.37329378  0.12689330  0.74973261  1
  V  V55  1  0.74849577  0.51202700  0.27429488  1
  V  V56  1  0.74822870  0.62399445  0.87633957  1
  V  V57  1  0.12366223  -0.00331628  0.12755162  1
  V  V58  1  0.74790492  0.24877774  0.49990228  1
  V  V59  1  0.24127931  0.25326549  0.49419737  1
  V  V60  1  0.61977777  0.60643167  0.00548747  1
  V  V61  1  0.49870468  0.00136402  0.49839929  1
  V  V62  1  0.12359246  0.24989539  0.87721107  1
  V  V63  1  0.50083465  0.12291744  0.12295030  1
  V  V64  1  0.24957497  0.25067964  0.00157496  1
  V  V65  1  0.62406278  0.00202625  0.12208211  1
  V  V66  1  0.38535476  0.50005631  0.35940624  1
  V  V67  1  0.12434313  0.12355884  0.00006899  1
  V  V68  1  0.38754160  0.49421992  0.87880335  1
  V  V69  1  0.37392736  0.24976387  0.12631554  1
  V  V70  1  -0.00896548  0.62286855  0.12915248  1
  V  V71  1  0.00120841  0.75157989  0.75410841  1
  V  V72  1  0.75307834  0.25539528  0.00029381  1
  V  V73  1  0.00252109  0.49837354  0.00301432  1
  V  V74  1  0.01199052  0.00557855  0.50492926  1
  V  V75  1  0.37232713  0.00013836  0.87401518  1
  V  V76  1  -0.00677979  0.87554333  0.87901416  1
  V  V77  1  0.49973533  0.86717215  0.36995208  1
  V  V78  1  0.02027659  0.37514753  0.36447974  1
  V  V79  1  0.12515262  0.88353326  0.74822154  1
  V  V80  1  0.87394265  0.75103285  0.62653158  1
  V  V81  1  -0.00431958  0.37241356  0.88220731  1
  V  V82  1  0.87947700  0.38322479  0.48546586  1
  V  V83  1  0.50171340  0.62547424  0.13050707  1
  V  V84  1  0.74563526  0.12472452  0.88114104  1
  Zn  Zn85  1  0.49670604  0.12694778  0.62280509  1
  Zn  Zn86  1  0.37165292  0.12432703  0.25234556  1
  Zn  Zn87  1  0.51218406  0.38279797  0.37324122  1
  Zn  Zn88  1  0.24416662  0.00653608  0.74675916  1
  Zn  Zn89  1  0.24563360  0.49911374  0.25112419  1
  Zn  Zn90  1  0.87172504  0.12879227  0.24856438  1
  Zn  Zn91  1  0.02485699  0.55095958  0.44678763  1
  Zn  Zn92  1  0.74834755  0.87527847  0.62511105  1
  Zn  Zn93  1  0.11582932  0.84727602  0.24262209  1
  Zn  Zn94  1  0.23923448  0.62145116  0.40224471  1
  Zn  Zn95  1  0.37564294  0.62127189  0.75246705  1
  Zn  Zn96  1  0.87578630  0.62147794  0.28383036  1
  Zn  Zn97  1  0.74717986  0.00116798  0.24812022  1
  Zn  Zn98  1  0.87662869  0.12326540  0.75084402  1
  Zn  Zn99  1  0.86909024  -0.00278682  0.87944199  1
  Zn  Zn100  1  0.63114487  0.25457237  0.36398704  1
  Zn  Zn101  1  0.75633740  0.75131779  -0.00225548  1
  Zn  Zn102  1  0.12794972  0.73092668  0.38387939  1
  Zn  Zn103  1  0.16426215  0.55327259  0.56249025  1
  Zn  Zn104  1  0.62120093  0.12708430  0.49711907  1
  Zn  Zn105  1  0.62646809  0.74199115  0.36798652  1
  Zn  Zn106  1  0.12715808  0.75134901  0.87655266  1
  Zn  Zn107  1  0.18926763  0.18431193  0.18918165  1
  Zn  Zn108  1  0.18935912  0.19679467  0.68715117  1
  Zn  Zn109  1  0.17471443  0.65910131  0.20861011  1
  Zn  Zn110  1  0.18961866  0.69057785  0.69178987  1
  Zn  Zn111  1  0.68738327  0.18744953  0.18399901  1
  Zn  Zn112  1  0.68645606  0.18603856  0.68725120  1
  Zn  Zn113  1  0.69510181  0.68163675  0.18703809  1
  Zn  Zn114  1  0.68943905  0.68914467  0.68645450  1
  Zn  Zn115  1  0.31315963  0.31336414  0.31376540  1
  Zn  Zn116  1  0.31079556  0.31517099  0.81409304  1
  Zn  Zn117  1  0.29895482  0.80562745  0.31546089  1
  Zn  Zn118  1  0.31182330  0.80987878  0.81243545  1
  Zn  Zn119  1  0.81296732  0.31390501  0.30497558  1
  Zn  Zn120  1  0.81162242  0.31109275  0.81196778  1
  Zn  Zn121  1  0.81429554  0.81249159  0.30378421  1
  Zn  Zn122  1  0.81090038  0.81356855  0.81220778  1
  Zn  Zn123  1  0.19780563  0.43925328  0.42891628  1
  Zn  Zn124  1  0.19014441  0.43508159  0.93943332  1
  Zn  Zn125  1  0.16776970  0.89430675  0.45281152  1
  Zn  Zn126  1  0.18360614  0.93592871  0.93684196  1
  Zn  Zn127  1  0.68695176  0.43417727  0.43745960  1
  Zn  Zn128  1  0.68823948  0.43169805  0.93908151  1
  Zn  Zn129  1  0.68547405  0.93504780  0.43600352  1
  Zn  Zn130  1  0.68402577  0.93825914  0.93903380  1
  Zn  Zn131  1  0.31215582  0.06017301  0.06239396  1
  Zn  Zn132  1  0.30702816  0.06635452  0.56123016  1
  Zn  Zn133  1  0.32359854  0.56352675  0.06496012  1
  Zn  Zn134  1  0.32906179  0.55847233  0.56277143  1
  Zn  Zn135  1  0.80930093  0.06737665  0.06321221  1
  Zn  Zn136  1  0.81235000  0.06506244  0.56327517  1
  Zn  Zn137  1  0.81074309  0.56447201  0.06133058  1
  Zn  Zn138  1  0.81562473  0.56349880  0.56065198  1
  Zn  Zn139  1  0.44722457  0.43843502  0.17650884  1
  Zn  Zn140  1  0.43500262  0.43816279  0.68965510  1
  Zn  Zn141  1  0.43553997  0.93315225  0.18981875  1
  Zn  Zn142  1  0.43536825  0.93823317  0.68852753  1
  Zn  Zn143  1  0.92693329  0.43928363  0.19418601  1
  Zn  Zn144  1  0.93674499  0.43234645  0.69146748  1
  Zn  Zn145  1  0.93118602  0.94122638  0.18640694  1
  Zn  Zn146  1  0.93844093  0.93918689  0.68644819  1
  Zn  Zn147  1  0.05697544  0.06103962  0.31241953  1
  Zn  Zn148  1  0.05926897  0.06297781  0.81319635  1
  Zn  Zn149  1  0.07000954  0.56557410  0.30163561  1
  Zn  Zn150  1  0.06356568  0.56219764  0.81625834  1
  Zn  Zn151  1  0.56157974  0.06225793  0.30825320  1
  Zn  Zn152  1  0.55977899  0.06536357  0.81177643  1
  Zn  Zn153  1  0.56633528  0.55916107  0.30430915  1
  Zn  Zn154  1  0.56506943  0.56412770  0.81040469  1
  Zn  Zn155  1  0.43028181  0.18708346  0.43679618  1
  Zn  Zn156  1  0.43707838  0.18744774  0.93865289  1
  Zn  Zn157  1  0.43802693  0.68310755  0.43704961  1
  Zn  Zn158  1  0.43854976  0.68407339  0.94148627  1
  Zn  Zn159  1  0.94029390  0.19018936  0.43944488  1
  Zn  Zn160  1  0.93260106  0.18270585  0.93850048  1
  Zn  Zn161  1  0.93666179  0.69693272  0.44113402  1
  Zn  Zn162  1  0.93337770  0.68848443  0.94261107  1
  Zn  Zn163  1  0.06318469  0.31329543  0.06618043  1
  Zn  Zn164  1  0.08404677  0.36868390  0.53859861  1
  Zn  Zn165  1  0.06479240  0.80740481  0.06078571  1
  Zn  Zn166  1  0.06454966  0.80173922  0.56784164  1
  Zn  Zn167  1  0.56519251  0.31065966  0.06464398  1
  Zn  Zn168  1  0.56086002  0.31430719  0.56424228  1
  Zn  Zn169  1  0.56030190  0.81081323  0.06522546  1
  Zn  Zn170  1  0.56104238  0.81178575  0.56004834  1
  O  O171  1  0.11933879  0.11674626  0.11844344  1
  O  O172  1  0.11481749  0.13127654  0.62808204  1
  O  O173  1  0.10396209  0.63619834  0.10864832  1
  O  O174  1  0.11151833  0.62585148  0.63721206  1
  O  O175  1  0.61459095  0.11271930  0.13028141  1
  O  O176  1  0.62071041  0.11240046  0.62276223  1
  O  O177  1  0.62501145  0.62432608  0.10994863  1
  O  O178  1  0.62159362  0.61870190  0.62080055  1
  O  O179  1  0.38139350  0.38493735  0.37962765  1
  O  O180  1  0.37150006  0.38616958  0.88240888  1
  O  O181  1  0.37864011  0.88078204  0.38265828  1
  O  O182  1  0.37896666  0.87937318  0.88067954  1
  O  O183  1  0.87024590  0.37432070  0.38536655  1
  O  O184  1  0.88379549  0.38276329  0.87013248  1
  O  O185  1  0.87839562  0.88626634  0.38010152  1
  O  O186  1  0.88818862  0.87770595  0.86984516  1
  O  O187  1  0.25739425  0.00357651  0.37259185  1
  O  O188  1  0.25437352  0.00724723  0.87537620  1
  O  O189  1  0.26930099  0.50695019  0.37034021  1
  O  O190  1  0.25663232  0.50842050  0.87230030  1
  O  O191  1  0.75438008  0.00889294  0.37620382  1
  O  O192  1  0.74539271  0.00693247  0.86878716  1
  O  O193  1  0.75255639  0.50098118  0.37408510  1
  O  O194  1  0.75689081  0.50162519  0.87127336  1
  O  O195  1  0.26407815  0.48350315  0.12197895  1
  O  O196  1  0.25266366  0.50611136  0.64309858  1
  O  O197  1  0.24075590  0.99140351  0.12846174  1
  O  O198  1  0.25928522  0.98570305  0.62970167  1
  O  O199  1  0.75218002  0.48244114  0.11219714  1
  O  O200  1  0.74364466  0.49554082  0.63242313  1
  O  O201  1  0.74121838  0.99515695  0.12426095  1
  O  O202  1  0.74004185  1.00044845  0.63244433  1
  O  O203  1  -0.00563881  0.36113389  0.25448351  1
  O  O204  1  0.00513953  0.37023686  0.76453583  1
  O  O205  1  -0.00807085  0.87844850  0.25993350  1
  O  O206  1  0.00554184  0.87029072  0.75571427  1
  O  O207  1  0.49562256  0.35805682  0.24623069  1
  O  O208  1  0.51018064  0.36510228  0.74393255  1
  O  O209  1  0.50876321  0.87925816  0.25906717  1
  O  O210  1  0.50396521  0.87063529  0.75707439  1
  O  O211  1  0.49270838  0.12871163  0.23761740  1
  O  O212  1  0.49214718  0.13622888  0.74752736  1
  O  O213  1  0.49618156  0.62695273  0.24022827  1
  O  O214  1  0.50179386  0.63197937  0.73992593  1
  O  O215  1  0.99605231  0.13513782  0.24376939  1
  O  O216  1  0.99760767  0.12975581  0.74169158  1
  O  O217  1  0.99292185  0.61651091  0.22820992  1
  O  O218  1  0.99576079  0.63388060  0.74911399  1
  O  O219  1  0.37010493  0.25492190  0.00689936  1
  O  O220  1  0.37141295  0.25680879  0.50735243  1
  O  O221  1  0.36227314  0.75435327  -0.00454596  1
  O  O222  1  0.38498389  0.75891319  0.51234125  1
  O  O223  1  0.86476074  0.24478971  0.00856841  1
  O  O224  1  0.86715500  0.25638832  0.50713859  1
  O  O225  1  0.87111933  0.74861179  0.01564893  1
  O  O226  1  0.86835757  0.76138278  0.50602785  1
  O  O227  1  0.14475049  0.26986753  0.50610659  1
  O  O228  1  0.12847289  0.24325262  0.99627365  1
  O  O229  1  0.12852542  0.78987792  0.48202059  1
  O  O230  1  0.13650641  0.74104925  0.99538735  1
  O  O231  1  0.64091584  0.24799433  0.50888552  1
  O  O232  1  0.63114830  0.25324037  0.98631045  1
  O  O233  1  0.63449567  0.74379464  0.50062623  1
  O  O234  1  0.62685251  0.74909138  0.98562948  1
  O  O235  1  0.49320857  0.24140810  0.13088990  1
  O  O236  1  0.49080480  0.24846678  0.63482596  1
  O  O237  1  0.50923638  0.72964224  0.12036283  1
  O  O238  1  0.49429589  0.74521534  0.63162679  1
  O  O239  1  0.99236616  0.24719418  0.13012021  1
  O  O240  1  0.99096811  0.24096488  0.63114013  1
  O  O241  1  0.98791785  0.74103626  0.11959763  1
  O  O242  1  0.99416006  0.74638196  0.63918883  1
  O  O243  1  -0.00523487  0.25304827  0.35812733  1
  O  O244  1  0.00157259  0.25442344  0.87270298  1
  O  O245  1  -0.00268467  0.77743047  0.38323268  1
  O  O246  1  -0.00206333  0.75619235  0.86779866  1
  O  O247  1  0.49388681  0.24285422  0.35652617  1
  O  O248  1  0.50785658  0.24367258  0.86409434  1
  O  O249  1  0.50323820  0.76496326  0.38418336  1
  O  O250  1  0.50611550  0.75420389  0.87121985  1
  O  O251  1  0.25202390  0.14004232  0.49343684  1
  O  O252  1  0.24420405  0.12994857  0.99609075  1
  O  O253  1  0.24664609  0.61386216  0.51531478  1
  O  O254  1  0.24535399  0.62791235  0.99949574  1
  O  O255  1  0.74891494  0.13289884  0.49166179  1
  O  O256  1  0.74851852  0.13455353  0.98913224  1
  O  O257  1  0.74245417  0.63583628  0.50729452  1
  O  O258  1  0.73565685  0.62620689  0.99336804  1
  O  O259  1  0.26050390  0.36824584  0.00815721  1
  O  O260  1  0.26975067  0.36123337  0.48729746  1
  O  O261  1  0.25169556  0.86663178  0.00594077  1
  O  O262  1  0.26606473  0.88166272  0.51112699  1
  O  O263  1  0.74816451  0.36077153  0.00724209  1
  O  O264  1  0.76225038  0.36670422  0.50617021  1
  O  O265  1  0.74443789  0.87473150  0.01378958  1
  O  O266  1  0.75838581  0.87001603  0.50170924  1
  O  O267  1  0.14799126  0.54573245  0.22678429  1
  O  O268  1  0.13389830  0.49143509  0.76242480  1
  O  O269  1  0.12494302  1.00432680  0.23401114  1
  O  O270  1  0.12410722  0.98827251  0.75308768  1
  O  O271  1  0.64823874  0.50587829  0.25013279  1
  O  O272  1  0.63074872  0.49215172  0.74437090  1
  O  O273  1  0.62444160  0.98968274  0.23831947  1
  O  O274  1  0.62913090  0.99656833  0.74325880  1
  O  O275  1  0.36673134  -0.00348505  0.26107752  1
  O  O276  1  0.37395699  0.00796372  0.75752787  1
  O  O277  1  0.37692843  0.49289302  0.25752475  1
  O  O278  1  0.36534976  0.49740638  0.76255213  1
  O  O279  1  0.87065078  0.00565325  0.26258709  1
  O  O280  1  0.86042181  -0.00028612  0.74971711  1
  O  O281  1  0.85468511  0.50751866  0.24385740  1
  O  O282  1  0.87008175  0.50355884  0.76108386  1
  O  O283  1  0.11859017  0.36801408  0.37051515  1
  O  O284  1  0.11474120  0.36829302  0.87262949  1
  O  O285  1  0.10378336  0.89747276  0.35732373  1
  O  O286  1  0.11428119  0.87240853  0.86683143  1
  O  O287  1  0.62113392  0.36378365  0.38427692  1
  O  O288  1  0.63111290  0.36427438  0.86178803  1
  O  O289  1  0.61679416  0.87528561  0.36577351  1
  O  O290  1  0.61807530  0.86818114  0.87090192  1
  O  O291  1  0.37916794  0.13346682  0.12546346  1
  O  O292  1  0.37471290  0.13594936  0.63082150  1
  O  O293  1  0.38999167  0.62960643  0.13332724  1
  O  O294  1  0.38761502  0.63193364  0.62926454  1
  O  O295  1  0.88026664  0.13425041  0.12598510  1
  O  O296  1  0.87935632  0.13569291  0.62611037  1
  O  O297  1  0.88369792  0.63446504  0.11743390  1
  O  O298  1  0.88308382  0.63058873  0.63482107  1
  O  O299  1  0.25829815  0.25463463  0.12189590  1
  O  O300  1  0.26186785  0.24916028  0.61255686  1
  O  O301  1  0.24140053  0.76007078  0.11586788  1
  O  O302  1  0.26429993  0.75981572  0.63469164  1
  O  O303  1  0.75463317  0.25528344  0.11873665  1
  O  O304  1  0.75870245  0.25282343  0.62037749  1
  O  O305  1  0.75818832  0.75736218  0.12185138  1
  O  O306  1  0.75644578  0.75444554  0.61755269  1
  O  O307  1  0.25704568  0.23935337  0.38491345  1
  O  O308  1  0.24449503  0.24472419  0.88193640  1
  O  O309  1  0.24913985  0.73439562  0.38259077  1
  O  O310  1  0.25157389  0.73631926  0.88340742  1
  O  O311  1  0.75326375  0.24217701  0.38262886  1
  O  O312  1  0.74388674  0.24438197  0.88014373  1
  O  O313  1  0.75148550  0.75656355  0.38818577  1
  O  O314  1  0.74128180  0.74437255  0.87415110  1
  O  O315  1  0.00516171  0.11487459  0.00380814  1
  O  O316  1  -0.00277534  0.11380308  0.50561585  1
  O  O317  1  0.00626686  0.61594126  -0.00048848  1
  O  O318  1  -0.00194326  0.63209245  0.52741384  1
  O  O319  1  0.49313174  0.11837487  0.01395425  1
  O  O320  1  0.49925634  0.11266201  0.49886425  1
  O  O321  1  0.51490791  0.62536849  0.00396887  1
  O  O322  1  0.51089331  0.63191175  0.51649929  1
  O  O323  1  0.48621283  0.36304973  0.49252056  1
  O  O324  1  0.48660556  0.36706124  1.00407143  1
  O  O325  1  0.49188992  0.88420333  0.49344691  1
  O  O326  1  0.49283891  0.87939114  0.99588153  1
  O  O327  1  0.98774236  0.36232588  0.47536067  1
  O  O328  1  1.00560037  0.38258473  0.99060248  1
  O  O329  1  0.98563052  0.89204565  0.49412711  1
  O  O330  1  1.00844767  0.88275761  0.99060555  1
  O  O331  1  0.49012435  0.49824628  0.36802993  1
  O  O332  1  0.48555953  0.50259438  0.86627571  1
  O  O333  1  0.49125839  0.99250941  0.38088986  1
  O  O334  1  0.49459908  0.99557440  0.88033456  1
  O  O335  1  1.00760135  0.47573638  0.35488047  1
  O  O336  1  0.99272085  0.49226971  0.88186756  1
  O  O337  1  0.98706527  1.00035416  0.38637546  1
  O  O338  1  0.99769664  0.99343135  0.88439489  1
  O  O339  1  0.00432878  0.00244916  0.11887744  1
  O  O340  1  -0.00576012  0.00926492  0.61230321  1
  O  O341  1  -0.01402177  0.51022291  0.11140512  1
  O  O342  1  -0.00368894  0.51394786  0.63637609  1
  O  O343  1  0.50318083  0.00431236  0.12192362  1
  O  O344  1  0.50483455  -0.00019166  0.61597763  1
  O  O345  1  0.50112742  0.52050899  0.12371852  1
  O  O346  1  0.51202959  0.50944656  0.63458546  1
  O  O347  1  0.25484730  0.37482176  0.23501830  1
  O  O348  1  0.23839657  0.38388963  0.75942425  1
  O  O349  1  0.24478813  0.87924931  0.24149620  1
  O  O350  1  0.24212785  0.87700155  0.74726735  1
  O  O351  1  0.75263735  0.38579574  0.23778921  1
  O  O352  1  0.74165590  0.37800882  0.74458467  1
  O  O353  1  0.74130718  0.87954506  0.23881716  1
  O  O354  1  0.74205941  0.88576670  0.75001414  1
  O  O355  1  0.25139451  0.11633205  0.25962231  1
  O  O356  1  0.25476088  0.12765925  0.75668291  1
  O  O357  1  0.28285664  0.62484479  0.24061766  1
  O  O358  1  0.25068403  0.61808060  0.76279869  1
  O  O359  1  0.74978248  0.12496081  0.26160455  1
  O  O360  1  0.74898952  0.11605373  0.75789715  1
  O  O361  1  0.75512014  0.61933194  0.26074169  1
  O  O362  1  0.75389329  0.61929473  0.75626031  1
  O  O363  1  0.36703482  0.11059080  0.37549542  1
  O  O364  1  0.36880172  0.12126233  0.87058118  1
  O  O365  1  0.38750705  0.61475988  0.35964341  1
  O  O366  1  0.36816951  0.61236232  0.87766659  1
  O  O367  1  0.86509117  0.11885549  0.37779240  1
  O  O368  1  0.86074295  0.12061326  0.87090164  1
  O  O369  1  0.92680405  0.60645333  0.38333961  1
  O  O370  1  0.86890883  0.61710048  0.87129916  1
  O  O371  1  0.14352215  0.37439023  0.11768291  1
  O  O372  1  0.11261250  0.37319036  0.64707456  1
  O  O373  1  0.13014945  0.88038468  0.12703617  1
  O  O374  1  0.13706325  0.86687569  0.63743927  1
  O  O375  1  0.63856082  0.36972066  0.12474730  1
  O  O376  1  0.63043038  0.38217140  0.63248157  1
  O  O377  1  0.62932440  0.88062434  0.13135346  1
  O  O378  1  0.62319104  0.88592864  0.63053835  1
  O  O379  1  0.10807632  0.24666472  0.24077654  1
  O  O380  1  0.12009307  0.25783122  0.75927214  1
  O  O381  1  0.12443521  0.73933853  0.26713823  1
  O  O382  1  0.11464935  0.75900879  0.75491324  1
  O  O383  1  0.60741954  0.24273840  0.24584457  1
  O  O384  1  0.61812447  0.25615192  0.75408670  1
  O  O385  1  0.63346818  0.76161640  0.25103458  1
  O  O386  1  0.62108368  0.75434636  0.75984675  1
  O  O387  1  0.38175522  0.24711418  0.23908188  1
  O  O388  1  0.37970587  0.25070382  0.74407514  1
  O  O389  1  0.38153556  0.74899416  0.25424863  1
  O  O390  1  0.38227235  0.74723139  0.74235847  1
  O  O391  1  0.88174694  0.24744819  0.23812758  1
  O  O392  1  0.88053300  0.25028913  0.74111494  1
  O  O393  1  0.86938800  0.73865663  0.23360119  1
  O  O394  1  0.88207091  0.74625942  0.74756195  1
  O  O395  1  0.37971198  0.48548367  0.49099570  1
  O  O396  1  0.37420740  0.49256444  0.98613915  1
  O  O397  1  0.38154382  0.99237540  0.49447164  1
  O  O398  1  0.37905604  0.99292398  0.99352161  1
  O  O399  1  0.87726790  0.48139152  0.50784073  1
  O  O400  1  0.88354985  0.50592420  0.98627020  1
  O  O401  1  0.87263726  0.99495249  0.49224290  1
  O  O402  1  0.88721992  1.00274954  1.00240192  1
  O  O403  1  0.11758159  0.00278223  0.01077030  1
  O  O404  1  0.10863630  -0.00849632  0.49796034  1
  O  O405  1  0.11433045  0.50801543  -0.00542799  1
  O  O406  1  0.11231489  0.47579601  0.49934989  1
  O  O407  1  0.61461906  -0.00675922  0.01358204  1
  O  O408  1  0.61541493  -0.00206368  0.50686243  1
  O  O409  1  0.62338552  0.50830668  -0.00840521  1
  O  O410  1  0.63435324  0.50798100  0.51536668  1
  O  O411  1  0.37164550  0.36367183  0.11709544  1
  O  O412  1  0.38077357  0.36966622  0.61090143  1
  O  O413  1  0.36024432  0.88210823  0.11810084  1
  O  O414  1  0.37155991  0.86695486  0.62028765  1
  O  O415  1  0.86605960  0.36297814  0.12550077  1
  O  O416  1  0.87442079  0.36396489  0.61925263  1
  O  O417  1  0.86655204  0.86345267  0.13131926  1
  O  O418  1  0.87461042  0.87154870  0.61549687  1
  O  O419  1  0.13557091  0.11704139  0.37396655  1
  O  O420  1  0.12872619  0.13005055  0.88044287  1
  O  O421  1  0.11465097  0.61379067  0.39509845  1
  O  O422  1  0.13423412  0.62610445  0.88613840  1
  O  O423  1  0.63359858  0.12866931  0.37645090  1
  O  O424  1  0.63411081  0.13605190  0.86715443  1
  O  O425  1  0.61291012  0.62555954  0.39254330  1
  O  O426  1  0.62762716  0.63120766  0.88246499  1
