# generated using pymatgen
data_V85Zn86O256
_symmetry_space_group_name_H-M   'P 1'
_cell_length_a   17.00222753
_cell_length_b   16.99120819
_cell_length_c   16.99831368
_cell_angle_alpha   90.14577948
_cell_angle_beta   90.02899221
_cell_angle_gamma   89.96474025
_symmetry_Int_Tables_number   1
_chemical_formula_structural   V85Zn86O256
_chemical_formula_sum   'V85 Zn86 O256'
_cell_volume   4910.59798093
_cell_formula_units_Z   1
loop_
 _symmetry_equiv_pos_site_id
 _symmetry_equiv_pos_as_xyz
  1  'x, y, z'
loop_
 _atom_site_type_symbol
 _atom_site_label
 _atom_site_symmetry_multiplicity
 _atom_site_fract_x
 _atom_site_fract_y
 _atom_site_fract_z
 _atom_site_occupancy
  V  V0  1  0.25683780  0.62676083  0.87089030  1
  V  V1  1  -0.00204245  0.87547246  0.87321657  1
  V  V2  1  0.25150965  0.25033052  0.49981340  1
  V  V3  1  0.50153440  0.86858870  0.87579829  1
  V  V4  1  0.75421677  0.50115566  0.24523116  1
  V  V5  1  0.37611454  0.86030118  0.49583377  1
  V  V6  1  0.86510935  0.25029141  0.62320546  1
  V  V7  1  0.13678815  0.00424620  0.62611226  1
  V  V8  1  -0.00182224  0.25010338  0.75035204  1
  V  V9  1  0.74202887  0.12672305  0.88656095  1
  V  V10  1  0.75137599  0.73898998  0.49499923  1
  V  V11  1  -0.00243893  0.50050594  -0.00537561  1
  V  V12  1  0.25102556  0.87635839  0.12859779  1
  V  V13  1  0.12751155  0.37495553  0.24597364  1
  V  V14  1  0.87834285  0.75019005  0.12800167  1
  V  V15  1  0.12982898  0.49551742  0.12474992  1
  V  V16  1  0.37608349  0.87789609  0.00100658  1
  V  V17  1  0.48852491  0.63384502  0.62994006  1
  V  V18  1  0.62188712  0.86370919  0.74963656  1
  V  V19  1  -0.00382032  -0.00097566  0.49367607  1
  V  V20  1  0.00227788  0.62925175  0.12960679  1
  V  V21  1  0.86705969  0.36882567  0.49895590  1
  V  V22  1  0.12489885  0.37364007  0.74923249  1
  V  V23  1  0.74643690  0.87301031  0.12648529  1
  V  V24  1  0.50081637  0.25737089  0.75369417  1
  V  V25  1  0.62769623  0.74075906  0.37375139  1
  V  V26  1  0.12661998  0.12623737  0.49586046  1
  V  V27  1  0.25076225  0.00502709  0.25620249  1
  V  V28  1  0.75374579  0.00121180  0.26206598  1
  V  V29  1  0.24670976  0.63446431  0.37788065  1
  V  V30  1  0.37538183  0.62339226  0.25089293  1
  V  V31  1  0.12796156  0.12428419  -0.00202789  1
  V  V32  1  0.76564456  0.62149398  0.87308213  1
  V  V33  1  0.37738542  0.75028414  0.12551804  1
  V  V34  1  0.87198705  0.12465935  0.75063440  1
  V  V35  1  0.37983068  0.13075978  0.25838212  1
  V  V36  1  -0.00221420  0.12456860  0.62515513  1
  V  V37  1  0.12532743  0.49908178  0.62439043  1
  V  V38  1  0.12859613  0.88003917  0.74561834  1
  V  V39  1  0.37581133  0.25456810  0.62399932  1
  V  V40  1  0.12906116  0.24666021  0.37556471  1
  V  V41  1  0.25292941  0.25799446  0.00552949  1
  V  V42  1  0.12840658  0.63044165  0.49679743  1
  V  V43  1  0.87496346  0.87469753  -0.00054968  1
  V  V44  1  0.49930477  0.49437697  -0.00461855  1
  V  V45  1  0.12708637  0.62929318  -0.00112122  1
  V  V46  1  -0.00225561  0.74656297  0.74724301  1
  V  V47  1  0.87604202  0.74798670  0.62795434  1
  V  V48  1  0.00006988  -0.00174249  -0.00221303  1
  V  V49  1  0.25762289  0.85851517  0.62402008  1
  V  V50  1  0.87633388  0.37319568  -0.00415979  1
  V  V51  1  0.25298512  0.37673111  0.61881748  1
  V  V52  1  -0.00280197  0.37733057  0.87340283  1
  V  V53  1  0.62684117  0.50085934  0.12267354  1
  V  V54  1  -0.00101561  0.62511933  0.62666603  1
  V  V55  1  0.12789431  -0.00329726  0.12155487  1
  V  V56  1  0.25575194  0.50303990  0.74947484  1
  V  V57  1  0.62461813  0.00301414  0.12612418  1
  V  V58  1  0.49521540  0.49304770  0.50355993  1
  V  V59  1  0.87678870  0.24362523  0.12433943  1
  V  V60  1  0.62539780  0.24571104  0.88370571  1
  V  V61  1  0.87687625  0.87895128  0.48993825  1
  V  V62  1  0.37563189  0.49287604  0.38012445  1
  V  V63  1  0.50213199  0.62466645  0.12566396  1
  V  V64  1  0.50083723  0.13561483  0.12409897  1
  V  V65  1  0.62344168  0.38067088  0.75455293  1
  V  V66  1  0.50333809  0.00171392  0.00219495  1
  V  V67  1  0.49935496  -0.00419427  0.49255439  1
  V  V68  1  0.63299407  0.14180919  0.49823282  1
  V  V69  1  0.75356711  0.37277605  0.11760715  1
  V  V70  1  0.74659216  -0.00063359  0.75089473  1
  V  V71  1  0.00008786  0.37468598  0.37198553  1
  V  V72  1  0.76900419  0.50082280  0.75293685  1
  V  V73  1  0.12363053  0.74971733  0.87416517  1
  V  V74  1  0.87048150  0.50081665  0.37339368  1
  V  V75  1  0.87206222  0.00039293  0.87388558  1
  V  V76  1  0.25147276  0.49582632  0.24714785  1
  V  V77  1  0.87711339  0.62653149  0.25327049  1
  V  V78  1  0.50056565  0.12672622  0.62432936  1
  V  V79  1  0.62415318  -0.00349133  0.62212499  1
  V  V80  1  0.12565996  0.24895010  0.87450317  1
  V  V81  1  0.50177001  0.75456369  0.25572934  1
  V  V82  1  0.75025016  0.87120332  0.62639616  1
  V  V83  1  0.37764389  0.49150766  0.87514506  1
  V  V84  1  -0.00056486  0.49783999  0.49956942  1
  Zn  Zn85  1  0.36610239  -0.00148511  0.86193955  1
  Zn  Zn86  1  0.74856004  0.74670551  -0.00252185  1
  Zn  Zn87  1  0.61936299  0.36242903  0.25114014  1
  Zn  Zn88  1  0.50288233  0.35705307  0.36239492  1
  Zn  Zn89  1  0.74548583  0.37518014  0.62325811  1
  Zn  Zn90  1  0.62495000  0.50199740  0.62597567  1
  Zn  Zn91  1  0.46725574  0.74539101  0.74402601  1
  Zn  Zn92  1  0.74453707  0.14724726  0.37791055  1
  Zn  Zn93  1  0.62556380  0.74293134  0.87541071  1
  Zn  Zn94  1  -0.00115131  0.12104469  0.12624002  1
  Zn  Zn95  1  0.03261998  0.84698660  0.35351063  1
  Zn  Zn96  1  0.24996734  0.11565808  0.86683441  1
  Zn  Zn97  1  0.62629503  0.62666584  -0.00571165  1
  Zn  Zn98  1  0.00530565  0.23639727  0.25046005  1
  Zn  Zn99  1  0.62501863  0.62138975  0.50130491  1
  Zn  Zn100  1  0.25039008  0.75054845  0.00124347  1
  Zn  Zn101  1  0.36414713  0.11765218  0.74852046  1
  Zn  Zn102  1  0.61696046  0.87902972  0.26074122  1
  Zn  Zn103  1  0.37281622  0.26217249  0.13683755  1
  Zn  Zn104  1  0.88202153  0.11634173  0.26996091  1
  Zn  Zn105  1  0.37923238  -0.00153223  0.37609447  1
  Zn  Zn106  1  0.37263184  0.37625894  0.00690636  1
  Zn  Zn107  1  0.18999598  0.18364453  0.18725202  1
  Zn  Zn108  1  0.18692585  0.18765997  0.68646536  1
  Zn  Zn109  1  0.19383697  0.68528944  0.18727046  1
  Zn  Zn110  1  0.18759700  0.68732815  0.68704355  1
  Zn  Zn111  1  0.69464544  0.18403200  0.18321462  1
  Zn  Zn112  1  0.68279526  0.18569912  0.69364462  1
  Zn  Zn113  1  0.68778269  0.68519016  0.18875605  1
  Zn  Zn114  1  0.68662877  0.67701848  0.68494643  1
  Zn  Zn115  1  0.31266124  0.31452965  0.31494360  1
  Zn  Zn116  1  0.31037437  0.30805030  0.81326834  1
  Zn  Zn117  1  0.31405912  0.81488739  0.31246927  1
  Zn  Zn118  1  0.30953655  0.81737340  0.81573938  1
  Zn  Zn119  1  0.81512799  0.30984277  0.30515339  1
  Zn  Zn120  1  0.80789248  0.31159432  0.81400754  1
  Zn  Zn121  1  0.81001609  0.81022105  0.31273626  1
  Zn  Zn122  1  0.81014067  0.80987549  0.81193067  1
  Zn  Zn123  1  0.18637563  0.44201054  0.43394584  1
  Zn  Zn124  1  0.18581364  0.43845107  0.93461445  1
  Zn  Zn125  1  0.19567778  0.94028040  0.43939077  1
  Zn  Zn126  1  0.18890268  0.93553572  0.93566358  1
  Zn  Zn127  1  0.68278190  0.42982295  0.43804687  1
  Zn  Zn128  1  0.68792285  0.43813453  0.93280741  1
  Zn  Zn129  1  0.68391003  0.92506452  0.43831707  1
  Zn  Zn130  1  0.68487146  0.93770407  0.93823777  1
  Zn  Zn131  1  0.31562791  0.06847008  0.06324200  1
  Zn  Zn132  1  0.31585768  0.06608566  0.56036685  1
  Zn  Zn133  1  0.31426612  0.56163968  0.06063684  1
  Zn  Zn134  1  0.31400192  0.56757618  0.56088064  1
  Zn  Zn135  1  0.80868986  0.05848337  0.06260253  1
  Zn  Zn136  1  0.81031637  0.06149460  0.56203912  1
  Zn  Zn137  1  0.81528381  0.56265607  0.05875675  1
  Zn  Zn138  1  0.81506078  0.55823659  0.56679264  1
  Zn  Zn139  1  0.43901120  0.43232217  0.18722097  1
  Zn  Zn140  1  0.43759022  0.43956419  0.68657604  1
  Zn  Zn141  1  0.43655653  0.94062445  0.18836947  1
  Zn  Zn142  1  0.43733363  0.93308034  0.68511513  1
  Zn  Zn143  1  0.94263461  0.43765731  0.18409311  1
  Zn  Zn144  1  0.93842418  0.43429123  0.68396074  1
  Zn  Zn145  1  0.93293862  0.93801901  0.18666761  1
  Zn  Zn146  1  0.93981053  0.93739793  0.68278141  1
  Zn  Zn147  1  0.04288527  0.02141809  0.28913229  1
  Zn  Zn148  1  0.06232838  0.06273357  0.81163167  1
  Zn  Zn149  1  0.06523307  0.67708658  0.31558577  1
  Zn  Zn150  1  0.06611336  0.56160267  0.81142719  1
  Zn  Zn151  1  0.56603487  0.07214252  0.31277554  1
  Zn  Zn152  1  0.53478024  0.04979960  0.79915942  1
  Zn  Zn153  1  0.58480888  0.53193270  0.33429834  1
  Zn  Zn154  1  0.56372614  0.56788331  0.81199960  1
  Zn  Zn155  1  0.43949717  0.19013894  0.43886756  1
  Zn  Zn156  1  0.43574382  0.18465694  0.93463770  1
  Zn  Zn157  1  0.44103644  0.67659058  0.43615132  1
  Zn  Zn158  1  0.43658764  0.68626740  0.93832004  1
  Zn  Zn159  1  0.93793315  0.18716294  0.43876253  1
  Zn  Zn160  1  0.93694734  0.18680853  0.93792725  1
  Zn  Zn161  1  0.93709918  0.68733314  0.44208223  1
  Zn  Zn162  1  0.93842166  0.68994545  0.94100601  1
  Zn  Zn163  1  0.06012355  0.30960303  0.06140462  1
  Zn  Zn164  1  0.05879268  0.31198811  0.56319590  1
  Zn  Zn165  1  0.06356653  0.82011861  0.18440127  1
  Zn  Zn166  1  0.08788868  0.83441367  0.52658093  1
  Zn  Zn167  1  0.56444825  0.31794348  0.06258040  1
  Zn  Zn168  1  0.56298601  0.31733925  0.56310763  1
  Zn  Zn169  1  0.56662088  0.81063167  0.06313828  1
  Zn  Zn170  1  0.56100058  0.80834693  0.55788614  1
  O  O171  1  0.12595858  0.11391547  0.11427267  1
  O  O172  1  0.11719615  0.12238869  0.61675046  1
  O  O173  1  0.11973573  0.61705576  0.11698280  1
  O  O174  1  0.11825270  0.61634428  0.62026049  1
  O  O175  1  0.61164969  0.11717217  0.13434913  1
  O  O176  1  0.62182723  0.11530525  0.61661263  1
  O  O177  1  0.61861144  0.61808920  0.11965106  1
  O  O178  1  0.61407851  0.61874941  0.62092125  1
  O  O179  1  0.37971225  0.38969201  0.36876937  1
  O  O180  1  0.36674630  0.38819212  0.88027693  1
  O  O181  1  0.36600756  0.88043278  0.39261091  1
  O  O182  1  0.38401888  0.87840381  0.88581434  1
  O  O183  1  0.88095852  0.37427586  0.37981590  1
  O  O184  1  0.88166801  0.36592796  0.88656617  1
  O  O185  1  0.87290009  0.87126375  0.39089377  1
  O  O186  1  0.87659536  0.88080211  0.87760838  1
  O  O187  1  0.24984318  0.00000424  0.35836420  1
  O  O188  1  0.25354996  -0.00075550  0.87465636  1
  O  O189  1  0.25663774  0.50381190  0.36538802  1
  O  O190  1  0.25479416  0.50673171  0.86801257  1
  O  O191  1  0.74132957  -0.00911865  0.36118286  1
  O  O192  1  0.75181547  0.00534067  0.86957528  1
  O  O193  1  0.76530606  0.49056355  0.36159636  1
  O  O194  1  0.75065696  0.50854115  0.86350786  1
  O  O195  1  0.24036927  0.50728351  0.13337479  1
  O  O196  1  0.24755290  0.49438555  0.63108874  1
  O  O197  1  0.24685858  0.99395024  0.12639746  1
  O  O198  1  0.23853515  1.00338955  0.62244838  1
  O  O199  1  0.74635101  0.49489691  0.12536581  1
  O  O200  1  0.74990479  0.50010811  0.64189304  1
  O  O201  1  0.74141411  0.99318766  0.13162226  1
  O  O202  1  0.74089065  0.99279979  0.63039357  1
  O  O203  1  0.01106249  0.37506270  0.25749659  1
  O  O204  1  0.00478658  0.37068010  0.75372273  1
  O  O205  1  0.01625333  0.90248795  0.25462410  1
  O  O206  1  0.00731921  0.86581511  0.75155805  1
  O  O207  1  0.50566267  0.36864743  0.24733762  1
  O  O208  1  0.50758690  0.36604146  0.74435401  1
  O  O209  1  0.49866370  0.85942541  0.24242845  1
  O  O210  1  0.50717092  0.86740327  0.75791666  1
  O  O211  1  0.48843496  0.11946957  0.23813531  1
  O  O212  1  0.51399871  0.14256741  0.73144329  1
  O  O213  1  0.49385683  0.63053703  0.23518009  1
  O  O214  1  0.50342913  0.62742111  0.73506512  1
  O  O215  1  0.99524516  0.11682673  0.24429759  1
  O  O216  1  0.99214121  0.12987316  0.74518767  1
  O  O217  1  0.99023828  0.61801003  0.23532557  1
  O  O218  1  1.01043796  0.63483075  0.73945096  1
  O  O219  1  0.35942582  0.25125050  -0.00430702  1
  O  O220  1  0.36180359  0.24135446  0.51185443  1
  O  O221  1  0.37566392  0.76212495  0.00627236  1
  O  O222  1  0.38193553  0.76226569  0.49405486  1
  O  O223  1  0.88466926  0.26180599  0.01196201  1
  O  O224  1  0.88030625  0.25927070  0.51205235  1
  O  O225  1  0.87183016  0.75572168  0.01159046  1
  O  O226  1  0.87059704  0.75894170  0.50909640  1
  O  O227  1  0.12980875  0.24566892  0.49616641  1
  O  O228  1  0.13040734  0.24208096  0.99609809  1
  O  O229  1  0.11888442  0.72708330  0.51290230  1
  O  O230  1  0.12418431  0.73353051  0.99403258  1
  O  O231  1  0.63133153  0.23961378  0.51316899  1
  O  O232  1  0.61771846  0.25477695  0.98195224  1
  O  O233  1  0.63633309  0.74868139  0.49331118  1
  O  O234  1  0.63164066  0.74687303  0.99622272  1
  O  O235  1  0.50443159  0.23660215  0.11905523  1
  O  O236  1  0.49161295  0.24695057  0.62677760  1
  O  O237  1  0.49708755  0.74179320  0.13052237  1
  O  O238  1  0.50179458  0.73823205  0.62543248  1
  O  O239  1  0.99104696  0.24504390  0.12713676  1
  O  O240  1  0.99040452  0.24471306  0.63121415  1
  O  O241  1  0.98847127  0.74297994  0.12639411  1
  O  O242  1  0.99316315  0.74194197  0.63195941  1
  O  O243  1  0.01113516  0.26055630  0.37397717  1
  O  O244  1  0.00510566  0.25577332  0.86928043  1
  O  O245  1  -0.01182163  0.74487914  0.36327093  1
  O  O246  1  0.00351052  0.75345818  0.86604278  1
  O  O247  1  0.51505951  0.25489469  0.39890247  1
  O  O248  1  0.51138055  0.24211247  0.86258055  1
  O  O249  1  0.50688112  0.73829666  0.36145737  1
  O  O250  1  0.50079262  0.76091605  0.87558422  1
  O  O251  1  0.23744342  0.13775033  0.50779912  1
  O  O252  1  0.23879616  0.13211482  0.99763782  1
  O  O253  1  0.24002538  0.61468146  0.48971113  1
  O  O254  1  0.24188582  0.62444392  0.99160859  1
  O  O255  1  0.73538572  0.12033749  0.50155694  1
  O  O256  1  0.74832472  0.11831092  0.98590637  1
  O  O257  1  0.75357645  0.63646421  0.50768458  1
  O  O258  1  0.75091451  0.62084023  0.98502709  1
  O  O259  1  0.24256404  0.36064642  -0.00184225  1
  O  O260  1  0.24118448  0.36790075  0.51170997  1
  O  O261  1  0.26001443  0.87413052  0.01013620  1
  O  O262  1  0.26530138  0.88218722  0.51617457  1
  O  O263  1  0.76268208  0.38543149  0.00811962  1
  O  O264  1  0.76294219  0.37964426  0.50091572  1
  O  O265  1  0.75632781  0.87759262  0.01173192  1
  O  O266  1  0.76135132  0.86575800  0.50748678  1
  O  O267  1  0.13539847  0.49064796  0.23931663  1
  O  O268  1  0.13420894  0.49270332  0.74445735  1
  O  O269  1  0.14505407  1.01045760  0.23578760  1
  O  O270  1  0.11224947  0.98807280  0.73763892  1
  O  O271  1  0.63963667  0.50996888  0.23141575  1
  O  O272  1  0.62485370  0.48793738  0.75232485  1
  O  O273  1  0.63154798  0.99725326  0.24256881  1
  O  O274  1  0.62382649  0.98968454  0.73805808  1
  O  O275  1  0.36814222  0.00898505  0.25193144  1
  O  O276  1  0.42072852  0.01459374  0.75970410  1
  O  O277  1  0.36713648  0.50446720  0.25445070  1
  O  O278  1  0.36220273  0.49400113  0.75794188  1
  O  O279  1  0.85799984  0.00075591  0.24618034  1
  O  O280  1  0.86878178  0.00389469  0.75371240  1
  O  O281  1  0.87326042  0.50542894  0.25259625  1
  O  O282  1  0.86780246  0.49554443  0.75066737  1
  O  O283  1  0.11781624  0.36929095  0.36781208  1
  O  O284  1  0.11776249  0.36966549  0.86813809  1
  O  O285  1  0.11874433  0.86508362  0.42056659  1
  O  O286  1  0.11905486  0.87015340  0.86479384  1
  O  O287  1  0.61083435  0.41586016  0.35596594  1
  O  O288  1  0.63271179  0.36045897  0.86480313  1
  O  O289  1  0.62633281  0.85161188  0.37320154  1
  O  O290  1  0.61848094  0.87266819  0.86598925  1
  O  O291  1  0.38797243  0.13073063  0.13310819  1
  O  O292  1  0.38614285  0.13496856  0.62609425  1
  O  O293  1  0.38121408  0.62979841  0.12926983  1
  O  O294  1  0.38812024  0.62364785  0.62369720  1
  O  O295  1  0.87114892  0.13873609  0.11890151  1
  O  O296  1  0.87750270  0.13109541  0.62958349  1
  O  O297  1  0.88377942  0.63068042  0.12866005  1
  O  O298  1  0.88890507  0.63410444  0.61871076  1
  O  O299  1  0.24968200  0.24330172  0.10856665  1
  O  O300  1  0.25509567  0.25925366  0.61905908  1
  O  O301  1  0.25836455  0.75930002  0.12394456  1
  O  O302  1  0.24578753  0.76064535  0.62099195  1
  O  O303  1  0.76372156  0.26085424  0.12641611  1
  O  O304  1  0.76284832  0.25133022  0.63567364  1
  O  O305  1  0.75753837  0.75817652  0.12469852  1
  O  O306  1  0.75989122  0.75082475  0.62103819  1
  O  O307  1  0.23947470  0.26089444  0.38861436  1
  O  O308  1  0.24031921  0.24798003  0.88543403  1
  O  O309  1  0.25601997  0.73286173  0.36752063  1
  O  O310  1  0.24025750  0.74281345  0.87963194  1
  O  O311  1  0.71658339  0.25825787  0.33589982  1
  O  O312  1  0.73622932  0.24000368  0.86882206  1
  O  O313  1  0.74594247  0.74856722  0.38562694  1
  O  O314  1  0.75075835  0.73425450  0.87275635  1
  O  O315  1  0.01018133  0.11736717  0.00038098  1
  O  O316  1  0.00610459  0.12012836  0.50567460  1
  O  O317  1  0.00628565  0.61889553  0.00750703  1
  O  O318  1  0.00562379  0.61611994  0.50820902  1
  O  O319  1  0.49271091  0.11396726  0.01515863  1
  O  O320  1  0.51359499  0.11764534  0.51092139  1
  O  O321  1  0.49798174  0.61699929  0.01199477  1
  O  O322  1  0.50153865  0.61680586  0.51293216  1
  O  O323  1  0.49925698  0.39199340  0.50388489  1
  O  O324  1  0.49951762  0.39161658  1.00236048  1
  O  O325  1  0.48332962  0.88369490  0.51243931  1
  O  O326  1  0.49418076  0.87958994  0.99711197  1
  O  O327  1  0.99161649  0.37784598  0.49256961  1
  O  O328  1  0.99668154  0.38263795  0.99409704  1
  O  O329  1  0.98230822  0.88248861  0.50990302  1
  O  O330  1  0.99032468  0.88291964  0.98773561  1
  O  O331  1  0.48664013  0.51256673  0.39227467  1
  O  O332  1  0.48761425  0.51138644  0.88382714  1
  O  O333  1  0.50544708  1.00349932  0.38948302  1
  O  O334  1  0.50902110  0.98534144  0.89173764  1
  O  O335  1  0.98644018  0.48341879  0.38087809  1
  O  O336  1  1.00885449  0.49528440  0.88685748  1
  O  O337  1  1.00400359  1.00274686  0.39425481  1
  O  O338  1  0.99185073  0.99534429  0.87687843  1
  O  O339  1  0.01075851  -0.00241573  0.11554828  1
  O  O340  1  0.00805286  0.00591661  0.61525401  1
  O  O341  1  0.01052069  0.50826733  0.11581299  1
  O  O342  1  0.00375799  0.50686457  0.62157450  1
  O  O343  1  0.50788686  0.00446446  0.12067271  1
  O  O344  1  0.50846818  0.00801380  0.61691572  1
  O  O345  1  0.50888793  0.50779421  0.11821617  1
  O  O346  1  0.49590280  0.50755453  0.61475947  1
  O  O347  1  0.23844039  0.38364167  0.25560490  1
  O  O348  1  0.24434137  0.38159078  0.74016975  1
  O  O349  1  0.26259259  0.89090250  0.23782577  1
  O  O350  1  0.23733369  0.87319028  0.73633020  1
  O  O351  1  0.75836803  0.39033880  0.23212547  1
  O  O352  1  0.74522211  0.38901430  0.75234192  1
  O  O353  1  0.75045795  0.88307840  0.23926651  1
  O  O354  1  0.74130866  0.88034347  0.74631887  1
  O  O355  1  0.26650648  0.11221873  0.23971422  1
  O  O356  1  0.25157937  0.12944337  0.75186987  1
  O  O357  1  0.25499052  0.61322532  0.25665001  1
  O  O358  1  0.23910563  0.61250712  0.75917581  1
  O  O359  1  0.74795661  0.10716081  0.25286418  1
  O  O360  1  0.75360515  0.11653882  0.75655221  1
  O  O361  1  0.76587118  0.61219800  0.23898957  1
  O  O362  1  0.75052999  0.61077945  0.75925338  1
  O  O363  1  0.38302904  0.12148179  0.36130062  1
  O  O364  1  0.37285781  0.11863656  0.87006792  1
  O  O365  1  0.36562490  0.61440426  0.36954035  1
  O  O366  1  0.36077376  0.61578411  0.88252923  1
  O  O367  1  0.85610550  0.15876196  0.37047972  1
  O  O368  1  0.86588945  0.12061050  0.87012226  1
  O  O369  1  0.88321873  0.61071985  0.36472264  1
  O  O370  1  0.86562668  0.62615249  0.87760724  1
  O  O371  1  0.11579428  0.38456834  0.13310678  1
  O  O372  1  0.13137556  0.37917706  0.62941911  1
  O  O373  1  0.13846286  0.88709034  0.12133012  1
  O  O374  1  0.13777904  0.88394551  0.62459881  1
  O  O375  1  0.63734468  0.38266685  0.12561612  1
  O  O376  1  0.62936953  0.37851018  0.63733597  1
  O  O377  1  0.63342117  0.88215484  0.13018234  1
  O  O378  1  0.62839448  0.87834027  0.63074930  1
  O  O379  1  0.12882500  0.25582678  0.25724665  1
  O  O380  1  0.11697204  0.25551541  0.75323451  1
  O  O381  1  0.12126228  0.74573740  0.24490587  1
  O  O382  1  0.11639099  0.75947358  0.75204987  1
  O  O383  1  0.65984944  0.25394145  0.27086721  1
  O  O384  1  0.61825141  0.26138326  0.75296113  1
  O  O385  1  0.61875912  0.74749188  0.25570756  1
  O  O386  1  0.63175355  0.76165797  0.74832252  1
  O  O387  1  0.36427610  0.23414664  0.25178141  1
  O  O388  1  0.38463459  0.25145016  0.74025634  1
  O  O389  1  0.38257767  0.74406359  0.24536168  1
  O  O390  1  0.35880642  0.74276869  0.75496343  1
  O  O391  1  0.88291147  0.25193184  0.23141334  1
  O  O392  1  0.87968717  0.24536009  0.74401299  1
  O  O393  1  0.86606579  0.73903731  0.23870237  1
  O  O394  1  0.88640189  0.75562493  0.73980057  1
  O  O395  1  0.38277374  0.50247618  0.49286164  1
  O  O396  1  0.38154410  0.49870773  0.99276688  1
  O  O397  1  0.38574531  1.00153388  0.49781033  1
  O  O398  1  0.38701316  0.98892089  1.00820881  1
  O  O399  1  0.87867984  0.49126931  0.49242296  1
  O  O400  1  0.89062632  0.48921219  1.00853851  1
  O  O401  1  0.87938239  0.98708300  0.50721748  1
  O  O402  1  0.87939090  0.99501589  0.99390908  1
  O  O403  1  0.12130653  0.00550823  0.00440150  1
  O  O404  1  0.12008292  0.01169412  0.50869902  1
  O  O405  1  0.11975464  0.50736711  0.00615398  1
  O  O406  1  0.11782934  0.50331635  0.50645673  1
  O  O407  1  0.61591829  -0.00653355  0.01492544  1
  O  O408  1  0.61884330  -0.00912842  0.51232672  1
  O  O409  1  0.61887443  0.49994942  0.00812084  1
  O  O410  1  0.61093488  0.50119431  0.50150170  1
  O  O411  1  0.37316697  0.37236640  0.12034233  1
  O  O412  1  0.36405552  0.36597755  0.62856973  1
  O  O413  1  0.37027068  0.87109043  0.11842232  1
  O  O414  1  0.36288374  0.87562507  0.62162429  1
  O  O415  1  0.87336527  0.36812290  0.11610857  1
  O  O416  1  0.87380091  0.36717807  0.61581295  1
  O  O417  1  0.86822356  0.86765675  0.12126371  1
  O  O418  1  0.86899824  0.86475990  0.62201158  1
  O  O419  1  0.12007489  0.13946697  0.38774256  1
  O  O420  1  0.12174032  0.13025699  0.88426969  1
  O  O421  1  0.13412633  0.61807648  0.38487559  1
  O  O422  1  0.13322281  0.62777157  0.88122173  1
  O  O423  1  0.62751061  0.12303151  0.39479467  1
  O  O424  1  0.63001709  0.13778945  0.86637080  1
  O  O425  1  0.62476360  0.63376096  0.37860543  1
  O  O426  1  0.63693114  0.62601520  0.87647992  1
