# generated using pymatgen
data_V85Zn86O256
_symmetry_space_group_name_H-M   'P 1'
_cell_length_a   17.00278143
_cell_length_b   16.96610870
_cell_length_c   17.00311384
_cell_angle_alpha   89.99202783
_cell_angle_beta   89.83555769
_cell_angle_gamma   89.54909713
_symmetry_Int_Tables_number   1
_chemical_formula_structural   V85Zn86O256
_chemical_formula_sum   'V85 Zn86 O256'
_cell_volume   4904.73377714
_cell_formula_units_Z   1
loop_
 _symmetry_equiv_pos_site_id
 _symmetry_equiv_pos_as_xyz
  1  'x, y, z'
loop_
 _atom_site_type_symbol
 _atom_site_label
 _atom_site_symmetry_multiplicity
 _atom_site_fract_x
 _atom_site_fract_y
 _atom_site_fract_z
 _atom_site_occupancy
  V  V0  1  0.24490909  -0.00551639  0.24613884  1
  V  V1  1  0.00531371  0.75093761  0.25403819  1
  V  V2  1  0.50124306  0.00306126  0.49805334  1
  V  V3  1  0.88213186  -0.00526179  0.87542218  1
  V  V4  1  0.37721193  0.50015178  0.87380453  1
  V  V5  1  0.00345469  0.49404189  -0.00310407  1
  V  V6  1  0.12318542  0.37340569  0.75934277  1
  V  V7  1  0.62918952  0.49706462  0.12346460  1
  V  V8  1  0.49699608  0.50131397  0.50008308  1
  V  V9  1  0.00157280  0.25154694  0.76033033  1
  V  V10  1  0.24559305  0.75013949  0.49451245  1
  V  V11  1  0.25106604  0.50258728  0.75594483  1
  V  V12  1  -0.00457254  0.25014307  0.24716999  1
  V  V13  1  0.87603856  0.62884715  0.24714783  1
  V  V14  1  0.75324529  0.63351501  0.88363448  1
  V  V15  1  0.75068566  0.49915718  0.24676285  1
  V  V16  1  0.00140083  0.50313002  0.50053493  1
  V  V17  1  -0.00456315  -0.00137809  0.49895656  1
  V  V18  1  0.74041775  0.64016364  0.37037555  1
  V  V19  1  0.50344749  0.49474496  -0.00628155  1
  V  V20  1  0.13336041  0.37948514  0.24872740  1
  V  V21  1  0.62539599  0.63158781  -0.00085853  1
  V  V22  1  0.37934954  0.24680815  0.12439998  1
  V  V23  1  0.12251809  0.87677184  0.75706027  1
  V  V24  1  0.24663907  0.37262132  0.62595132  1
  V  V25  1  0.87579220  0.50214493  0.37688993  1
  V  V26  1  0.00569901  0.86916427  0.37838972  1
  V  V27  1  0.37235775  0.37278842  0.49814237  1
  V  V28  1  0.00330495  0.75507406  0.75606077  1
  V  V29  1  0.00270043  -0.00715503  0.00021296  1
  V  V30  1  0.13182721  0.62409376  -0.00372556  1
  V  V31  1  0.86311221  0.87186599  0.00367213  1
  V  V32  1  0.50364562  0.24643659  0.24994537  1
  V  V33  1  0.12524018  0.62872253  0.49885476  1
  V  V34  1  0.37568284  0.24453327  0.62603617  1
  V  V35  1  0.38076336  0.37181116  -0.00510833  1
  V  V36  1  0.49336627  0.62830854  0.12201168  1
  V  V37  1  0.25910225  -0.00139034  0.75410060  1
  V  V38  1  0.12261715  0.25152968  0.37962308  1
  V  V39  1  0.63235304  0.87349627  0.74534716  1
  V  V40  1  0.87142435  0.87273547  0.50176738  1
  V  V41  1  0.62288717  0.75172633  0.87453825  1
  V  V42  1  0.87981579  0.49379503  0.88005815  1
  V  V43  1  0.36656251  0.49581597  0.36486288  1
  V  V44  1  -0.00389984  0.62875365  0.62719454  1
  V  V45  1  0.74880493  0.12702779  0.87369280  1
  V  V46  1  0.62742214  0.37407807  0.24737041  1
  V  V47  1  0.37707561  0.12259168  0.24981764  1
  V  V48  1  0.25134283  0.24582687  0.00182754  1
  V  V49  1  0.49703534  0.25365294  0.76144702  1
  V  V50  1  0.86881324  0.75453360  0.12268270  1
  V  V51  1  0.50818650  0.10997404  0.12400754  1
  V  V52  1  0.74936768  0.25611576  0.00585437  1
  V  V53  1  0.12506206  0.00024929  0.62669481  1
  V  V54  1  0.63839479  0.12861249  0.49683538  1
  V  V55  1  0.74291793  0.75062798  0.50967776  1
  V  V56  1  0.48994732  0.89065391  0.87858962  1
  V  V57  1  0.36463236  0.62082069  0.24219402  1
  V  V58  1  -0.00020996  0.37902041  0.37782165  1
  V  V59  1  0.62363898  0.11247485  0.00164763  1
  V  V60  1  0.25662976  0.11867266  0.87713346  1
  V  V61  1  0.37562832  -0.00078117  0.37624388  1
  V  V62  1  0.25062111  0.87471991  0.62532370  1
  V  V63  1  0.87897342  0.63004326  0.75708816  1
  V  V64  1  0.75020010  0.00567070  0.23179506  1
  V  V65  1  0.37706948  0.74506305  0.62479077  1
  V  V66  1  0.49893314  0.74728164  0.25714347  1
  V  V67  1  0.49878846  0.37319298  0.37303176  1
  V  V68  1  0.87586126  0.12658191  0.74826820  1
  V  V69  1  0.63810191  0.24819199  0.37864872  1
  V  V70  1  0.24403892  0.62418376  0.37158343  1
  V  V71  1  0.24615913  0.12378466  0.37345381  1
  V  V72  1  0.74761675  0.50193574  0.75148577  1
  V  V73  1  0.87352015  0.37490289  0.00840799  1
  V  V74  1  -0.00198484  0.13153875  0.62664877  1
  V  V75  1  0.37356262  0.62377574  0.75113477  1
  V  V76  1  0.63278590  -0.00615445  0.62174110  1
  V  V77  1  0.13303215  0.74600870  0.87502920  1
  V  V78  1  0.25483154  0.75999979  0.00481981  1
  V  V79  1  0.37555776  0.87516576  0.49928180  1
  V  V80  1  0.12604260  0.50152940  0.62750101  1
  V  V81  1  0.13245350  0.50012587  0.12708292  1
  V  V82  1  0.12184351  0.12472118  0.49968954  1
  V  V83  1  0.12764578  0.87455344  0.24716196  1
  V  V84  1  -0.00513322  0.12668285  0.12401780  1
  Zn  Zn85  1  0.50095757  0.74973360  0.74837558  1
  Zn  Zn86  1  0.50822659  0.61886016  0.62497139  1
  Zn  Zn87  1  0.61731347  0.62985504  0.49585087  1
  Zn  Zn88  1  0.86814882  0.25187863  0.13235745  1
  Zn  Zn89  1  0.61501862  0.38195769  0.75045327  1
  Zn  Zn90  1  0.12445934  -0.00086362  0.12518224  1
  Zn  Zn91  1  0.75466464  -0.00465643  0.74580880  1
  Zn  Zn92  1  0.24901664  0.24725553  0.50072329  1
  Zn  Zn93  1  0.49993970  0.12380083  0.62672711  1
  Zn  Zn94  1  0.84897707  0.03785450  0.36267684  1
  Zn  Zn95  1  0.12531680  0.25084457  0.88069827  1
  Zn  Zn96  1  0.00352632  0.62745272  0.12355676  1
  Zn  Zn97  1  0.25625960  0.37671006  0.12835343  1
  Zn  Zn98  1  0.50567597  0.86580490  0.37774861  1
  Zn  Zn99  1  0.12580705  0.12198352  0.00056915  1
  Zn  Zn100  1  0.37940173  0.11713108  0.75517081  1
  Zn  Zn101  1  0.37064475  0.77311215  0.11857410  1
  Zn  Zn102  1  0.86883423  0.75725726  0.63145361  1
  Zn  Zn103  1  0.65248044  0.48772384  0.60109251  1
  Zn  Zn104  1  0.63367757  0.88113927  0.24617649  1
  Zn  Zn105  1  0.78302415  0.31046977  0.57247684  1
  Zn  Zn106  1  0.61715727  0.26006982  0.87967393  1
  Zn  Zn107  1  0.18295978  0.18394408  0.18678062  1
  Zn  Zn108  1  0.18663734  0.18566870  0.69055696  1
  Zn  Zn109  1  0.18666867  0.68999230  0.18202901  1
  Zn  Zn110  1  0.18893044  0.68760197  0.68539450  1
  Zn  Zn111  1  0.69045800  0.18023685  0.18883261  1
  Zn  Zn112  1  0.67963354  0.18056488  0.68387996  1
  Zn  Zn113  1  0.66241036  0.72886560  0.15397819  1
  Zn  Zn114  1  0.68412751  0.67501072  0.68518866  1
  Zn  Zn115  1  0.31207103  0.30646372  0.31161095  1
  Zn  Zn116  1  0.31465773  0.31016919  0.81500256  1
  Zn  Zn117  1  0.31706361  0.81022841  0.31115950  1
  Zn  Zn118  1  0.31093305  0.81180006  0.81513790  1
  Zn  Zn119  1  0.81442026  0.31774649  0.31513366  1
  Zn  Zn120  1  0.78683138  0.29266878  0.77022335  1
  Zn  Zn121  1  0.81791388  0.82648228  0.31023870  1
  Zn  Zn122  1  0.81315429  0.81347784  0.81843931  1
  Zn  Zn123  1  0.18573885  0.43835551  0.43966991  1
  Zn  Zn124  1  0.19407134  0.43578887  0.94058489  1
  Zn  Zn125  1  0.18406545  0.93671602  0.43333692  1
  Zn  Zn126  1  0.18691870  0.93773013  0.93657411  1
  Zn  Zn127  1  0.68744761  0.43750136  0.43098048  1
  Zn  Zn128  1  0.69070666  0.43488393  0.92754972  1
  Zn  Zn129  1  0.68858066  0.92859600  0.41865295  1
  Zn  Zn130  1  0.68995920  0.93599638  0.93120450  1
  Zn  Zn131  1  0.31825588  0.05397339  0.06604416  1
  Zn  Zn132  1  0.30917823  0.06189255  0.56202987  1
  Zn  Zn133  1  0.31005356  0.56288318  0.05535850  1
  Zn  Zn134  1  0.31386629  0.55974197  0.56107799  1
  Zn  Zn135  1  0.81455967  0.06547587  0.06128887  1
  Zn  Zn136  1  0.81419250  0.06106169  0.56335389  1
  Zn  Zn137  1  0.81398833  0.56654439  0.06407904  1
  Zn  Zn138  1  0.82315920  0.46954856  0.56654618  1
  Zn  Zn139  1  0.44127332  0.43587385  0.18289241  1
  Zn  Zn140  1  0.43876400  0.43116356  0.68383922  1
  Zn  Zn141  1  0.44033469  0.93961059  0.19277436  1
  Zn  Zn142  1  0.44593927  0.93167783  0.68690454  1
  Zn  Zn143  1  0.94406769  0.43947232  0.18578283  1
  Zn  Zn144  1  0.94042246  0.44051397  0.69857564  1
  Zn  Zn145  1  0.93344054  0.94085555  0.18766673  1
  Zn  Zn146  1  0.93751666  0.93799929  0.68465487  1
  Zn  Zn147  1  0.02780343  0.08088678  0.33013107  1
  Zn  Zn148  1  0.06739746  0.06571651  0.81775735  1
  Zn  Zn149  1  0.06446153  0.56399508  0.31036345  1
  Zn  Zn150  1  0.06422662  0.56449965  0.81510220  1
  Zn  Zn151  1  0.57492329  0.05715003  0.31413657  1
  Zn  Zn152  1  0.56301269  0.06476641  0.80904518  1
  Zn  Zn153  1  0.55808051  0.56371342  0.31090886  1
  Zn  Zn154  1  0.56059698  0.56705761  0.81324241  1
  Zn  Zn155  1  0.43979657  0.18638027  0.43670436  1
  Zn  Zn156  1  0.43715796  0.17626217  0.94012582  1
  Zn  Zn157  1  0.42722054  0.68102879  0.43604872  1
  Zn  Zn158  1  0.43710811  0.68960935  0.93422118  1
  Zn  Zn159  1  0.90263339  0.19373867  0.44001779  1
  Zn  Zn160  1  0.93502031  0.18511005  0.93922197  1
  Zn  Zn161  1  0.93162078  0.68827881  0.43852292  1
  Zn  Zn162  1  0.94534985  0.68879692  0.94030942  1
  Zn  Zn163  1  0.06342855  0.31436169  0.06431938  1
  Zn  Zn164  1  -0.04633825  0.31628162  0.56385728  1
  Zn  Zn165  1  0.06015554  0.81226156  0.06514355  1
  Zn  Zn166  1  0.06330594  0.81410098  0.56812395  1
  Zn  Zn167  1  0.56566021  0.30818977  0.06350488  1
  Zn  Zn168  1  0.56510955  0.31635961  0.56842377  1
  Zn  Zn169  1  0.56527605  0.84578413  0.05942798  1
  Zn  Zn170  1  0.56169870  0.81396537  0.56194629  1
  O  O171  1  0.11374032  0.12226207  0.11912242  1
  O  O172  1  0.11750189  0.12002414  0.62155022  1
  O  O173  1  0.12427193  0.61650224  0.11682043  1
  O  O174  1  0.11871971  0.62089583  0.62085387  1
  O  O175  1  0.62049263  0.13060304  0.10914685  1
  O  O176  1  0.62062098  0.11499481  0.61134875  1
  O  O177  1  0.61348560  0.62055897  0.11502744  1
  O  O178  1  0.62337167  0.60921205  0.61442237  1
  O  O179  1  0.37672938  0.37836647  0.37606852  1
  O  O180  1  0.37360780  0.38429759  0.88597731  1
  O  O181  1  0.37909017  0.88126026  0.38221440  1
  O  O182  1  0.39251153  0.87033792  0.86317178  1
  O  O183  1  0.88699927  0.39217477  0.36694163  1
  O  O184  1  0.87621428  0.39336361  0.88855376  1
  O  O185  1  0.89120610  0.87166417  0.39054714  1
  O  O186  1  0.87343987  0.88478721  0.88695557  1
  O  O187  1  0.25514947  0.00532605  0.36931988  1
  O  O188  1  0.24614229  0.00422582  0.86432432  1
  O  O189  1  0.25779081  0.50824755  0.37885909  1
  O  O190  1  0.26194921  0.49592128  0.86496849  1
  O  O191  1  0.74559549  0.00696521  0.36792906  1
  O  O192  1  0.76192631  0.01040370  0.87421873  1
  O  O193  1  0.75934607  0.50941246  0.36667591  1
  O  O194  1  0.76188390  0.51579177  0.87283124  1
  O  O195  1  0.23668572  0.49616169  0.11503122  1
  O  O196  1  0.24818686  0.49181273  0.63355988  1
  O  O197  1  0.24569659  1.00650412  0.14337944  1
  O  O198  1  0.24315305  0.99451422  0.63232513  1
  O  O199  1  0.73839345  0.51224260  0.13463433  1
  O  O200  1  0.75926361  0.51918409  0.64996880  1
  O  O201  1  0.75630263  1.00067559  0.13052286  1
  O  O202  1  0.73706043  1.00040199  0.62429990  1
  O  O203  1  0.01206848  0.37286402  0.25731113  1
  O  O204  1  0.01205014  0.36406539  0.74774478  1
  O  O205  1  0.00491804  0.86940683  0.26011637  1
  O  O206  1  0.01203471  0.86675008  0.74195349  1
  O  O207  1  0.50721937  0.36802321  0.25306847  1
  O  O208  1  0.48777330  0.35740684  0.75431517  1
  O  O209  1  0.49016590  0.85231145  0.24487338  1
  O  O210  1  0.51395646  0.87035617  0.75891320  1
  O  O211  1  0.49824586  0.12755830  0.24396792  1
  O  O212  1  0.49397440  0.13245891  0.74452605  1
  O  O213  1  0.48331300  0.62632675  0.24217210  1
  O  O214  1  0.48677641  0.62472543  0.74427291  1
  O  O215  1  1.00994252  0.14115210  0.23601356  1
  O  O216  1  0.99710509  0.12849840  0.74451247  1
  O  O217  1  0.99130924  0.63285599  0.25166300  1
  O  O218  1  1.00021886  0.63433966  0.74559218  1
  O  O219  1  0.37307517  0.25461847  0.00403927  1
  O  O220  1  0.37186959  0.25449712  0.50679871  1
  O  O221  1  0.35877340  0.74283276  -0.00195829  1
  O  O222  1  0.36512756  0.75281113  0.50760827  1
  O  O223  1  0.86800319  0.26039326  -0.00215355  1
  O  O224  1  0.86774962  0.26547031  0.50874725  1
  O  O225  1  0.88618861  0.76527306  0.00471885  1
  O  O226  1  0.86499137  0.75508605  0.50464109  1
  O  O227  1  0.12346794  0.24475866  0.48446613  1
  O  O228  1  0.14082769  0.25235372  1.00092365  1
  O  O229  1  0.13914664  0.74623758  0.50840855  1
  O  O230  1  0.12937071  0.74410775  0.99412842  1
  O  O231  1  0.61964336  0.23744782  0.49658477  1
  O  O232  1  0.63481159  0.24583842  0.99576947  1
  O  O233  1  0.63848565  0.75101549  0.50207392  1
  O  O234  1  0.61743642  0.73605436  0.99194619  1
  O  O235  1  0.49742476  0.24148414  0.13154876  1
  O  O236  1  0.48588369  0.24964614  0.63174967  1
  O  O237  1  0.48730409  0.73404859  0.12774289  1
  O  O238  1  0.48632972  0.74716931  0.62437726  1
  O  O239  1  0.99988394  0.24683836  0.13166363  1
  O  O240  1  1.00102517  0.23655491  0.63761627  1
  O  O241  1  0.99092144  0.74852716  0.13599163  1
  O  O242  1  1.00484342  0.74288009  0.63843315  1
  O  O243  1  0.00768417  0.26441283  0.36631680  1
  O  O244  1  0.00610359  0.24005755  0.86420114  1
  O  O245  1  -0.00486391  0.75511951  0.36464704  1
  O  O246  1  0.01279481  0.74647591  0.86209994  1
  O  O247  1  0.50745722  0.25474259  0.36853664  1
  O  O248  1  0.49378901  0.24142318  0.86423604  1
  O  O249  1  0.48273920  0.74493608  0.36008705  1
  O  O250  1  0.51311119  0.74897790  0.86970571  1
  O  O251  1  0.23917593  0.12448774  0.49261512  1
  O  O252  1  0.25655191  0.12802903  0.99628147  1
  O  O253  1  0.24647927  0.63081033  0.49267533  1
  O  O254  1  0.23671074  0.63321456  1.00042128  1
  O  O255  1  0.73747230  0.12399478  0.50292481  1
  O  O256  1  0.74268084  0.13353162  0.99242241  1
  O  O257  1  0.75063382  0.64247100  0.47909461  1
  O  O258  1  0.73882780  0.61958601  0.99292794  1
  O  O259  1  0.26346218  0.36399436  0.00251872  1
  O  O260  1  0.25224714  0.37347088  0.51071238  1
  O  O261  1  0.24271121  0.85877414  -0.00371508  1
  O  O262  1  0.25410359  0.86853803  0.50367047  1
  O  O263  1  0.75955591  0.36692222  -0.00583112  1
  O  O264  1  0.73627374  0.40616675  0.52621013  1
  O  O265  1  0.76439624  0.87602698  -0.00207687  1
  O  O266  1  0.75753474  0.85735822  0.48838364  1
  O  O267  1  0.11970779  0.49212820  0.23890971  1
  O  O268  1  0.13273514  0.49542735  0.74929223  1
  O  O269  1  0.13342300  0.98970290  0.25499432  1
  O  O270  1  0.13111516  0.99266039  0.74717890  1
  O  O271  1  0.63020063  0.49762897  0.24246730  1
  O  O272  1  0.64415312  0.50977532  0.75944085  1
  O  O273  1  0.63819735  1.00042529  0.24231048  1
  O  O274  1  0.62664854  0.99287923  0.73846932  1
  O  O275  1  0.36737179  0.00391839  0.25717077  1
  O  O276  1  0.36138338  -0.00336498  0.73797421  1
  O  O277  1  0.37783424  0.50434545  0.25628586  1
  O  O278  1  0.37023422  0.50292311  0.75526785  1
  O  O279  1  0.86170177  -0.00606166  0.25457658  1
  O  O280  1  0.87766209  0.00526818  0.75854471  1
  O  O281  1  0.87171230  0.50864498  0.25297723  1
  O  O282  1  0.87703711  0.51305746  0.76501861  1
  O  O283  1  0.12037732  0.37268847  0.36804261  1
  O  O284  1  0.13494785  0.37399188  0.86257686  1
  O  O285  1  0.11421212  0.87110786  0.36786304  1
  O  O286  1  0.12755369  0.86582554  0.86210808  1
  O  O287  1  0.61880233  0.36744662  0.36783262  1
  O  O288  1  0.62832201  0.37148400  0.86138981  1
  O  O289  1  0.61457600  0.87163161  0.35983626  1
  O  O290  1  0.61981822  0.86754185  0.86774840  1
  O  O291  1  0.38816912  0.12653230  0.12882645  1
  O  O292  1  0.37114209  0.13585878  0.62481008  1
  O  O293  1  0.38006343  0.61233330  0.13069444  1
  O  O294  1  0.37276102  0.63203387  0.63164111  1
  O  O295  1  0.89026498  0.13360593  0.11586554  1
  O  O296  1  0.88563415  0.11427536  0.63816387  1
  O  O297  1  0.88141306  0.62986740  0.13445161  1
  O  O298  1  0.89272316  0.63062246  0.63654929  1
  O  O299  1  0.26019858  0.24545252  0.11621705  1
  O  O300  1  0.25493806  0.25744423  0.62589833  1
  O  O301  1  0.25215901  0.75034182  0.11038228  1
  O  O302  1  0.25856190  0.75394808  0.61693073  1
  O  O303  1  0.75165427  0.24490096  0.11050836  1
  O  O304  1  0.74670012  0.26493058  0.66636771  1
  O  O305  1  0.77120639  0.73749033  0.12633015  1
  O  O306  1  0.75141692  0.74099303  0.61216049  1
  O  O307  1  0.23919529  0.24283278  0.37521330  1
  O  O308  1  0.25348096  0.24072946  0.88693213  1
  O  O309  1  0.25966153  0.73823945  0.38632102  1
  O  O310  1  0.23933454  0.74991679  0.88336425  1
  O  O311  1  0.73763554  0.25812983  0.37485124  1
  O  O312  1  0.75069630  0.23579125  0.87562169  1
  O  O313  1  0.75437534  0.74035862  0.36676191  1
  O  O314  1  0.73859278  0.74221708  0.87479342  1
  O  O315  1  0.00182464  0.11575013  0.00570634  1
  O  O316  1  0.00399075  0.11589528  0.51296977  1
  O  O317  1  0.01352798  0.61697302  0.00263936  1
  O  O318  1  0.00595055  0.62522747  0.50806237  1
  O  O319  1  0.51570261  0.12629587  0.00680396  1
  O  O320  1  0.50392939  0.11434658  0.50315108  1
  O  O321  1  0.50427452  0.61521022  0.00368942  1
  O  O322  1  0.49640345  0.61588359  0.49702477  1
  O  O323  1  0.49113549  0.38034432  0.49135723  1
  O  O324  1  0.49308523  0.38481409  1.00650007  1
  O  O325  1  0.49365947  0.88461288  0.49895505  1
  O  O326  1  0.50226106  0.87221568  0.97841925  1
  O  O327  1  1.00695999  0.38585418  0.48426470  1
  O  O328  1  0.99461519  0.38677032  1.00126960  1
  O  O329  1  0.99717678  0.87832218  0.49779404  1
  O  O330  1  0.99540796  0.88847176  1.00358626  1
  O  O331  1  0.48638297  0.49386957  0.37705706  1
  O  O332  1  0.49297324  0.50403716  0.88534827  1
  O  O333  1  0.49347105  1.00261137  0.38485009  1
  O  O334  1  0.50057330  0.99010469  0.86876120  1
  O  O335  1  0.99602227  0.49797859  0.37782022  1
  O  O336  1  0.99246130  0.51013421  0.88736324  1
  O  O337  1  1.00814237  0.98554773  0.39275223  1
  O  O338  1  0.99038879  1.00833948  0.88482783  1
  O  O339  1  -0.00093075  0.00927671  0.11771322  1
  O  O340  1  0.00675016  0.00609035  0.61838577  1
  O  O341  1  0.01308100  0.50240729  0.11394237  1
  O  O342  1  0.00744095  0.51121617  0.62273421  1
  O  O343  1  0.50487265  0.01077659  0.13031129  1
  O  O344  1  0.50916457  -0.00115851  0.61366234  1
  O  O345  1  0.50900183  0.50857887  0.11613651  1
  O  O346  1  0.47855536  0.50183348  0.60440176  1
  O  O347  1  0.23797087  0.36866824  0.24801875  1
  O  O348  1  0.24774507  0.38253361  0.74471904  1
  O  O349  1  0.24052523  0.88128677  0.26041817  1
  O  O350  1  0.24218819  0.88035359  0.74577138  1
  O  O351  1  0.74504929  0.39219456  0.25533949  1
  O  O352  1  0.76257556  0.40342974  0.76208124  1
  O  O353  1  0.75043370  0.89055764  0.25161661  1
  O  O354  1  0.73765724  0.87679209  0.75741109  1
  O  O355  1  0.25514484  0.11796686  0.25596799  1
  O  O356  1  0.25095629  0.11474931  0.75795942  1
  O  O357  1  0.25570194  0.63157650  0.25699993  1
  O  O358  1  0.25873802  0.61165234  0.74302221  1
  O  O359  1  0.75316124  0.11004333  0.24762464  1
  O  O360  1  0.75897382  0.11987918  0.75722534  1
  O  O361  1  0.76177102  0.61615429  0.25940160  1
  O  O362  1  0.75975051  0.62460364  0.76562081  1
  O  O363  1  0.36830407  0.12030935  0.36925914  1
  O  O364  1  0.36178963  0.12063321  0.87525331  1
  O  O365  1  0.36304620  0.61432990  0.36261102  1
  O  O366  1  0.37870337  0.61306119  0.86323246  1
  O  O367  1  0.92177853  0.11804098  0.36945031  1
  O  O368  1  0.86863822  0.11513013  0.86863012  1
  O  O369  1  0.86998487  0.61990927  0.36365969  1
  O  O370  1  0.86948529  0.62582231  0.87766567  1
  O  O371  1  0.12836284  0.38209822  0.13313364  1
  O  O372  1  0.13787985  0.38381470  0.64045011  1
  O  O373  1  0.11718013  0.87830242  0.14267589  1
  O  O374  1  0.13224900  0.87965396  0.63567627  1
  O  O375  1  0.61981862  0.38980021  0.12976265  1
  O  O376  1  0.60412435  0.39276535  0.63992970  1
  O  O377  1  0.63134945  0.83790255  0.14048410  1
  O  O378  1  0.62005013  0.88144569  0.63398659  1
  O  O379  1  0.11806206  0.25936109  0.25833906  1
  O  O380  1  0.11988392  0.25743172  0.75335061  1
  O  O381  1  0.11287083  0.75549008  0.24421244  1
  O  O382  1  0.12419017  0.75563409  0.75598853  1
  O  O383  1  0.62342188  0.25317163  0.25737242  1
  O  O384  1  0.60134753  0.24373887  0.75039400  1
  O  O385  1  0.59680240  0.72744948  0.25034875  1
  O  O386  1  0.62589784  0.75384583  0.75601652  1
  O  O387  1  0.38247695  0.24179305  0.24476722  1
  O  O388  1  0.37917757  0.24475995  0.74281545  1
  O  O389  1  0.37592056  0.73839864  0.23737847  1
  O  O390  1  0.37006080  0.73937972  0.74127958  1
  O  O391  1  0.89053791  0.26430142  0.24862611  1
  O  O392  1  0.88750720  0.23338842  0.75915797  1
  O  O393  1  0.88392417  0.74617176  0.24349737  1
  O  O394  1  0.88572216  0.74974437  0.75241768  1
  O  O395  1  0.37623599  0.49347759  0.48472811  1
  O  O396  1  0.38219434  0.49346310  0.99227004  1
  O  O397  1  0.38139291  0.99555230  0.49732814  1
  O  O398  1  0.36853091  0.94622071  1.04185228  1
  O  O399  1  0.88668757  0.51392553  0.48362952  1
  O  O400  1  0.88349307  0.49749709  0.99942340  1
  O  O401  1  0.88527331  0.99248944  0.50229742  1
  O  O402  1  0.88117776  0.99015048  0.99443189  1
  O  O403  1  0.11588853  -0.00126959  0.00248442  1
  O  O404  1  0.11792918  0.00344171  0.50714423  1
  O  O405  1  0.12159659  0.50394721  0.00232481  1
  O  O406  1  0.12049973  0.50859586  0.50716384  1
  O  O407  1  0.63422457  0.01412532  -0.00274701  1
  O  O408  1  0.61868454  0.00843793  0.50290772  1
  O  O409  1  0.61992026  0.50649310  0.00386036  1
  O  O410  1  0.60498968  0.50250798  0.48861527  1
  O  O411  1  0.37626464  0.36812315  0.11462318  1
  O  O412  1  0.36302617  0.36561260  0.62004853  1
  O  O413  1  0.37347865  0.89713526  0.10723590  1
  O  O414  1  0.37029264  0.86463134  0.62031745  1
  O  O415  1  0.87880383  0.37640383  0.11264235  1
  O  O416  1  0.88221395  0.38646968  0.62104188  1
  O  O417  1  0.87909774  0.86904363  0.11135496  1
  O  O418  1  0.87917811  0.87354448  0.60961730  1
  O  O419  1  0.12397638  0.13355334  0.37875451  1
  O  O420  1  0.14120435  0.12821755  0.88092636  1
  O  O421  1  0.13673992  0.61903541  0.38087228  1
  O  O422  1  0.12401448  0.63449387  0.88346571  1
  O  O423  1  0.62016726  0.13455119  0.38986158  1
  O  O424  1  0.63212214  0.12656724  0.88509274  1
  O  O425  1  0.63834117  0.62168441  0.37194223  1
  O  O426  1  0.63228633  0.63171937  0.88131489  1
