# generated using pymatgen
data_V85Zn86O256
_symmetry_space_group_name_H-M   'P 1'
_cell_length_a   16.94755399
_cell_length_b   16.95403260
_cell_length_c   16.94832099
_cell_angle_alpha   89.93103345
_cell_angle_beta   89.97839093
_cell_angle_gamma   90.12118461
_symmetry_Int_Tables_number   1
_chemical_formula_structural   V85Zn86O256
_chemical_formula_sum   'V85 Zn86 O256'
_cell_volume   4869.73583821
_cell_formula_units_Z   1
loop_
 _symmetry_equiv_pos_site_id
 _symmetry_equiv_pos_as_xyz
  1  'x, y, z'
loop_
 _atom_site_type_symbol
 _atom_site_label
 _atom_site_symmetry_multiplicity
 _atom_site_fract_x
 _atom_site_fract_y
 _atom_site_fract_z
 _atom_site_occupancy
  V  V0  1  0.12448967  0.50058821  0.62594739  1
  V  V1  1  0.00371703  0.37695920  0.37007179  1
  V  V2  1  0.25095681  0.37446182  0.11866853  1
  V  V3  1  0.12479999  0.00076184  0.62222108  1
  V  V4  1  0.24969666  0.12391659  0.87386450  1
  V  V5  1  0.00540744  0.11977147  0.12417164  1
  V  V6  1  0.62227230  0.01792060  0.62857376  1
  V  V7  1  0.25107689  0.62857133  0.88093642  1
  V  V8  1  0.87322760  0.24850545  0.62811798  1
  V  V9  1  0.50169544  0.87184052  0.85896719  1
  V  V10  1  0.24296886  0.49323097  0.24933318  1
  V  V11  1  0.87228968  0.37818919  0.00006923  1
  V  V12  1  -0.00865350  0.87541008  0.87615183  1
  V  V13  1  0.38682824  0.87440012  0.49471428  1
  V  V14  1  0.38038933  -0.00230776  0.36976705  1
  V  V15  1  0.25034213  0.50091070  0.75066446  1
  V  V16  1  0.37592038  -0.00025236  0.87307099  1
  V  V17  1  0.87484399  0.51376366  0.87482500  1
  V  V18  1  0.37435358  0.62536469  0.25007800  1
  V  V19  1  0.12568803  0.62848570  0.49864818  1
  V  V20  1  0.25084717  0.75162075  0.49733514  1
  V  V21  1  0.87248784  0.87545314  0.49179800  1
  V  V22  1  0.37642102  0.25459404  0.11752341  1
  V  V23  1  0.87427414  0.37643181  0.50130561  1
  V  V24  1  0.62394361  0.24802765  0.37820236  1
  V  V25  1  0.12318477  0.24764387  0.88248619  1
  V  V26  1  0.23319759  -0.00244780  0.24681393  1
  V  V27  1  0.62838442  0.62246345  0.00407673  1
  V  V28  1  0.62654152  0.00448380  0.12328684  1
  V  V29  1  0.87527449  0.50113787  0.37575580  1
  V  V30  1  0.75255570  0.51243551  0.75509902  1
  V  V31  1  0.50778673  0.01713996  0.49689796  1
  V  V32  1  0.87189307  0.11520356  0.75543683  1
  V  V33  1  0.87344752  0.74911575  0.61704550  1
  V  V34  1  -0.00448909  0.74753322  0.74581167  1
  V  V35  1  0.87343390  0.25292904  0.12800392  1
  V  V36  1  0.23900689  0.87627215  0.12447193  1
  V  V37  1  0.74039860  0.86916096  0.62361499  1
  V  V38  1  0.37276098  0.87069783  0.00092573  1
  V  V39  1  -0.00324240  0.37819544  0.88065976  1
  V  V40  1  0.38124577  0.63063428  0.74972859  1
  V  V41  1  0.38188869  0.37414954  0.49666192  1
  V  V42  1  0.50180133  0.12635683  0.12440599  1
  V  V43  1  0.62373359  0.37896806  0.24905957  1
  V  V44  1  0.61845300  0.24350539  0.88198254  1
  V  V45  1  0.61863539  0.74902895  0.86481575  1
  V  V46  1  0.62540863  0.75083556  0.37698387  1
  V  V47  1  0.25236848  0.87619507  0.62172492  1
  V  V48  1  0.37364155  0.75059994  0.12295060  1
  V  V49  1  0.11785567  0.49705342  0.11792327  1
  V  V50  1  0.74961054  0.12375417  0.88590675  1
  V  V51  1  0.75707559  0.87465576  0.12366681  1
  V  V52  1  0.49768991  0.49551780  0.00581808  1
  V  V53  1  0.74874101  0.37415571  0.62964225  1
  V  V54  1  0.12655637  0.87409541  0.74637843  1
  V  V55  1  0.37955208  0.49506435  0.37476362  1
  V  V56  1  0.75160115  0.75470754  -0.00608741  1
  V  V57  1  0.24823588  0.24702955  0.50010423  1
  V  V58  1  0.75016181  0.62916452  0.38002214  1
  V  V59  1  0.87352736  0.12565288  0.25831389  1
  V  V60  1  0.25219663  0.00158979  0.74805528  1
  V  V61  1  0.49873523  0.75309959  0.25392204  1
  V  V62  1  0.37741858  0.49338608  0.87699244  1
  V  V63  1  0.75361639  0.00180387  0.25801243  1
  V  V64  1  -0.00114839  0.12285220  0.62592491  1
  V  V65  1  -0.00234753  0.24786464  0.75190083  1
  V  V66  1  0.49992392  0.62641439  0.62756567  1
  V  V67  1  0.49822439  0.25631887  0.25647483  1
  V  V68  1  0.62122440  0.87603254  0.25414883  1
  V  V69  1  0.61882784  0.37027414  0.75516206  1
  V  V70  1  -0.00453028  0.62414768  0.62667129  1
  V  V71  1  0.12296250  0.37483803  0.75081860  1
  V  V72  1  0.62474765  0.62309954  0.49935901  1
  V  V73  1  0.12637707  0.25615011  0.36893611  1
  V  V74  1  0.01428957  0.87254555  0.37339463  1
  V  V75  1  0.50332702  -0.00040065  0.00126417  1
  V  V76  1  0.01757806  0.75345743  0.25259967  1
  V  V77  1  0.74542983  0.50205623  0.24240985  1
  V  V78  1  0.87334481  0.63340260  0.24773093  1
  V  V79  1  0.24943775  0.37464634  0.62530175  1
  V  V80  1  0.13048574  0.74945820  0.87752229  1
  V  V81  1  0.38543196  0.24485769  0.63208213  1
  V  V82  1  0.24610726  0.62851843  0.37383574  1
  V  V83  1  -0.00543563  0.00044769  0.49249465  1
  V  V84  1  0.74459539  0.24243026  0.50182888  1
  Zn  Zn85  1  0.12971016  0.11080360  0.00865244  1
  Zn  Zn86  1  0.24674630  0.12344087  0.37157708  1
  Zn  Zn87  1  0.74124048  -0.00833441  0.75609289  1
  Zn  Zn88  1  0.87877761  0.75329030  0.11766179  1
  Zn  Zn89  1  0.74925027  0.11973053  0.38335726  1
  Zn  Zn90  1  0.50340978  0.62194009  0.12689089  1
  Zn  Zn91  1  0.74559591  0.24596120  0.00574550  1
  Zn  Zn92  1  0.37362783  0.12456835  0.25001078  1
  Zn  Zn93  1  0.50361289  0.49535013  0.49666974  1
  Zn  Zn94  1  0.74556123  0.37962751  0.12274219  1
  Zn  Zn95  1  0.11971528  0.62312198  -0.00265982  1
  Zn  Zn96  1  0.00078664  0.50033006  0.49959699  1
  Zn  Zn97  1  -0.00149438  0.62376958  0.12123156  1
  Zn  Zn98  1  0.39700388  0.12745462  0.74746851  1
  Zn  Zn99  1  0.00054123  -0.01548195  0.01254348  1
  Zn  Zn100  1  0.25633860  0.25150777  -0.00243306  1
  Zn  Zn101  1  0.86342330  -0.01360181  0.89461051  1
  Zn  Zn102  1  0.12249511  0.12531557  0.49800055  1
  Zn  Zn103  1  0.62303250  0.49839605  0.62752025  1
  Zn  Zn104  1  0.38126992  0.75451636  0.62831321  1
  Zn  Zn105  1  0.00514613  0.25372493  0.24907650  1
  Zn  Zn106  1  0.49500808  0.36864775  0.87626957  1
  Zn  Zn107  1  0.19108946  0.18828372  0.18961705  1
  Zn  Zn108  1  0.18740737  0.18794474  0.68820496  1
  Zn  Zn109  1  0.19186639  0.68379367  0.18145842  1
  Zn  Zn110  1  0.19020213  0.68804654  0.68769716  1
  Zn  Zn111  1  0.68710352  0.18953666  0.19154130  1
  Zn  Zn112  1  0.68440197  0.18702734  0.69856183  1
  Zn  Zn113  1  0.68823110  0.68878556  0.18486286  1
  Zn  Zn114  1  0.68698536  0.68909079  0.68284746  1
  Zn  Zn115  1  0.31224779  0.31331730  0.30920050  1
  Zn  Zn116  1  0.31026485  0.31163285  0.81146667  1
  Zn  Zn117  1  0.30812292  0.81655573  0.31096147  1
  Zn  Zn118  1  0.31471610  0.81356940  0.81122119  1
  Zn  Zn119  1  0.81061633  0.31404158  0.31471755  1
  Zn  Zn120  1  0.80829592  0.30970368  0.81543630  1
  Zn  Zn121  1  0.81124789  0.81567621  0.31324567  1
  Zn  Zn122  1  0.80821174  0.80587546  0.80483467  1
  Zn  Zn123  1  0.19042539  0.43841267  0.43908061  1
  Zn  Zn124  1  0.18845065  0.43835765  0.93836586  1
  Zn  Zn125  1  0.18928981  0.93957268  0.43652422  1
  Zn  Zn126  1  0.18189314  0.93692222  0.93900331  1
  Zn  Zn127  1  0.68715733  0.43538923  0.43247482  1
  Zn  Zn128  1  0.68750086  0.43739919  0.93591465  1
  Zn  Zn129  1  0.68597385  0.93504480  0.44209813  1
  Zn  Zn130  1  0.68346087  0.93296799  0.93585382  1
  Zn  Zn131  1  0.31410719  0.06161934  0.06266978  1
  Zn  Zn132  1  0.31706534  0.06333693  0.55970683  1
  Zn  Zn133  1  0.31242525  0.56117358  0.06269455  1
  Zn  Zn134  1  0.31433057  0.56157882  0.56264340  1
  Zn  Zn135  1  0.82233943  0.05804119  0.06677097  1
  Zn  Zn136  1  0.81206302  0.05752264  0.56692106  1
  Zn  Zn137  1  0.81388701  0.56708365  0.05858249  1
  Zn  Zn138  1  0.81053143  0.56044452  0.56335466  1
  Zn  Zn139  1  0.43450975  0.43589788  0.18799865  1
  Zn  Zn140  1  0.43733799  0.43972853  0.68541961  1
  Zn  Zn141  1  0.43643022  0.93541486  0.18680861  1
  Zn  Zn142  1  0.43825003  0.94487281  0.68086180  1
  Zn  Zn143  1  0.93351222  0.44022699  0.19042643  1
  Zn  Zn144  1  0.93589978  0.43870534  0.69165781  1
  Zn  Zn145  1  0.93905928  0.93807518  0.19553783  1
  Zn  Zn146  1  0.93579010  0.93367956  0.68427608  1
  Zn  Zn147  1  0.05950325  0.06881539  0.31460352  1
  Zn  Zn148  1  0.06389879  0.05970059  0.81349379  1
  Zn  Zn149  1  0.06152934  0.56363533  0.30910052  1
  Zn  Zn150  1  0.06107788  0.56344816  0.81273712  1
  Zn  Zn151  1  0.56327261  0.06707916  0.31217758  1
  Zn  Zn152  1  0.56254472  0.06133035  0.81223085  1
  Zn  Zn153  1  0.56160174  0.56430892  0.31010110  1
  Zn  Zn154  1  0.56500043  0.56226167  0.81685457  1
  Zn  Zn155  1  0.43281129  0.18658297  0.43657195  1
  Zn  Zn156  1  0.43832285  0.18200617  0.93715639  1
  Zn  Zn157  1  0.43773472  0.68442743  0.43809070  1
  Zn  Zn158  1  0.44121544  0.68411919  0.93723355  1
  Zn  Zn159  1  0.93702155  0.19224356  0.43968312  1
  Zn  Zn160  1  0.93318893  0.18699529  0.94192340  1
  Zn  Zn161  1  0.94025013  0.69032409  0.43508747  1
  Zn  Zn162  1  0.94048611  0.69203838  0.93772607  1
  Zn  Zn163  1  0.06134857  0.31482413  0.06601218  1
  Zn  Zn164  1  0.06079236  0.31243258  0.56020672  1
  Zn  Zn165  1  0.05891638  0.79957184  0.05842784  1
  Zn  Zn166  1  0.06285252  0.81343530  0.55848882  1
  Zn  Zn167  1  0.56422560  0.31436444  0.06433337  1
  Zn  Zn168  1  0.56421749  0.31059226  0.56478518  1
  Zn  Zn169  1  0.56428969  0.81218731  0.06227705  1
  Zn  Zn170  1  0.56043711  0.80769362  0.56022325  1
  O  O171  1  0.10903983  0.13731236  0.12678048  1
  O  O172  1  0.11658395  0.11963623  0.62433319  1
  O  O173  1  0.13044895  0.61004775  0.12039195  1
  O  O174  1  0.11806456  0.62111084  0.61792303  1
  O  O175  1  0.61623217  0.11482048  0.13133221  1
  O  O176  1  0.63243810  0.11612795  0.62366918  1
  O  O177  1  0.62208625  0.63033147  0.11013420  1
  O  O178  1  0.62067983  0.62346527  0.61497854  1
  O  O179  1  0.36721637  0.38397845  0.38376108  1
  O  O180  1  0.37553984  0.38812894  0.86914824  1
  O  O181  1  0.36958291  0.88621456  0.38327059  1
  O  O182  1  0.38110628  0.87805185  0.88292801  1
  O  O183  1  0.88112754  0.38078033  0.38183307  1
  O  O184  1  0.88047286  0.37626622  0.88241414  1
  O  O185  1  0.88153980  0.86946687  0.38658923  1
  O  O186  1  0.88798675  0.86918454  0.86347383  1
  O  O187  1  0.25649668  -0.00222737  0.36037890  1
  O  O188  1  0.25481200  0.00498246  0.86948933  1
  O  O189  1  0.25644657  0.50676008  0.36775559  1
  O  O190  1  0.25708924  0.50661902  0.87029578  1
  O  O191  1  0.74007469  0.00138281  0.36238825  1
  O  O192  1  0.74812646  0.00417390  0.87354285  1
  O  O193  1  0.75539067  0.51057706  0.36631624  1
  O  O194  1  0.76080195  0.49818317  0.86428238  1
  O  O195  1  0.24550036  0.49292952  0.13036921  1
  O  O196  1  0.24471297  0.49515468  0.63054920  1
  O  O197  1  0.25448385  0.98956475  0.13589702  1
  O  O198  1  0.24611132  0.99603772  0.62642194  1
  O  O199  1  0.75561641  0.50276460  0.13878232  1
  O  O200  1  0.75086332  0.49088647  0.63756657  1
  O  O201  1  0.74205530  0.99501386  0.13276665  1
  O  O202  1  0.73405422  0.98953988  0.62062777  1
  O  O203  1  -0.00734081  0.37437105  0.26620845  1
  O  O204  1  0.00252117  0.36809106  0.75961381  1
  O  O205  1  -0.00353423  0.86267716  0.25936199  1
  O  O206  1  0.00614671  0.86436595  0.75130147  1
  O  O207  1  0.50639245  0.36475775  0.24514288  1
  O  O208  1  0.51497128  0.38573911  0.75377376  1
  O  O209  1  0.51130040  0.86683279  0.24583665  1
  O  O210  1  0.49141975  0.87887041  0.76027652  1
  O  O211  1  0.49905890  0.13520809  0.23919991  1
  O  O212  1  0.50638712  0.13128166  0.75146984  1
  O  O213  1  0.49370309  0.63393392  0.24570253  1
  O  O214  1  0.49206514  0.61551393  0.74194422  1
  O  O215  1  0.99114025  0.13043924  0.24312618  1
  O  O216  1  0.99207524  0.12802513  0.74746108  1
  O  O217  1  0.99248330  0.63861186  0.25033272  1
  O  O218  1  1.00627548  0.63420557  0.73641208  1
  O  O219  1  0.37798041  0.24670217  0.01285160  1
  O  O220  1  0.36689108  0.25614901  0.50620127  1
  O  O221  1  0.38360702  0.75928090  0.00975531  1
  O  O222  1  0.36770323  0.75684664  0.49883074  1
  O  O223  1  0.87219154  0.26061491  0.01016687  1
  O  O224  1  0.86557749  0.25734748  0.50821240  1
  O  O225  1  0.85480155  0.74460395  -0.00233694  1
  O  O226  1  0.88215956  0.75919269  0.50860904  1
  O  O227  1  0.13451674  0.25045258  0.49384466  1
  O  O228  1  0.12454311  0.24979485  0.98820748  1
  O  O229  1  0.13672641  0.73905561  0.50462822  1
  O  O230  1  0.12964665  0.75157574  0.97977199  1
  O  O231  1  0.63416753  0.25776653  0.49235383  1
  O  O232  1  0.62895667  0.25569250  0.98766504  1
  O  O233  1  0.61869213  0.73763762  0.48630038  1
  O  O234  1  0.63041057  0.74212354  0.99430491  1
  O  O235  1  0.49582718  0.24413508  0.13058206  1
  O  O236  1  0.48397270  0.25256393  0.62050818  1
  O  O237  1  0.49077672  0.75082295  0.13590798  1
  O  O238  1  0.49869799  0.73259664  0.62080636  1
  O  O239  1  0.98935053  0.24762979  0.12993887  1
  O  O240  1  0.99378360  0.24441116  0.63102994  1
  O  O241  1  0.99503867  0.75511190  0.14258205  1
  O  O242  1  0.99553988  0.74377530  0.62765614  1
  O  O243  1  0.00884921  0.25967860  0.37671664  1
  O  O244  1  0.00497289  0.25634063  0.87233239  1
  O  O245  1  -0.00039429  0.75595818  0.36133597  1
  O  O246  1  0.00723515  0.75520203  0.86138670  1
  O  O247  1  0.50486075  0.24350228  0.36422261  1
  O  O248  1  0.51335772  0.25026570  0.88292959  1
  O  O249  1  0.50895779  0.74279810  0.36258740  1
  O  O250  1  0.50932338  0.75781734  0.87791652  1
  O  O251  1  0.24902299  0.13674205  0.49755226  1
  O  O252  1  0.24851033  0.12526666  0.98806476  1
  O  O253  1  0.24600077  0.63165010  0.49449371  1
  O  O254  1  0.25001824  0.62072628  0.98363265  1
  O  O255  1  0.75809947  0.13834547  0.50231864  1
  O  O256  1  0.75916675  0.12284054  0.98978505  1
  O  O257  1  0.74109016  0.62013707  0.48920900  1
  O  O258  1  0.73694221  0.63710231  1.00249669  1
  O  O259  1  0.24852853  0.37248616  0.01271918  1
  O  O260  1  0.25801967  0.36647886  0.50557402  1
  O  O261  1  0.26341218  0.88451298  0.01194785  1
  O  O262  1  0.25766267  0.86823849  0.50160622  1
  O  O263  1  0.76028454  0.37546448  0.00302152  1
  O  O264  1  0.75316350  0.37008242  0.51208199  1
  O  O265  1  0.74093787  0.86330528  0.01026038  1
  O  O266  1  0.76075837  0.87984616  0.51074196  1
  O  O267  1  0.13762083  0.50724303  0.24046691  1
  O  O268  1  0.12914386  0.49449188  0.74582104  1
  O  O269  1  0.13502187  1.00167205  0.25297294  1
  O  O270  1  0.13165293  0.99399700  0.74222756  1
  O  O271  1  0.63334638  0.49269228  0.25828865  1
  O  O272  1  0.64038206  0.49206154  0.75574975  1
  O  O273  1  0.62924758  0.99394285  0.24306448  1
  O  O274  1  0.62353330  0.99891043  0.73156446  1
  O  O275  1  0.37652148  -0.00074454  0.25964650  1
  O  O276  1  0.36910412  0.00383594  0.75456966  1
  O  O277  1  0.36606309  0.50483951  0.25564844  1
  O  O278  1  0.37004472  0.50800432  0.75773425  1
  O  O279  1  0.86295635  0.01111840  0.24549255  1
  O  O280  1  0.87306204  0.00980470  0.74773781  1
  O  O281  1  0.86776353  0.51291968  0.25640386  1
  O  O282  1  0.86249721  0.49488500  0.76134571  1
  O  O283  1  0.11547636  0.36973875  0.38402431  1
  O  O284  1  0.11658226  0.36973666  0.87193239  1
  O  O285  1  0.11406464  0.87257670  0.38055835  1
  O  O286  1  0.11954398  0.86638574  0.86417095  1
  O  O287  1  0.62836441  0.36265073  0.36299844  1
  O  O288  1  0.62616834  0.36360850  0.87021968  1
  O  O289  1  0.63321043  0.86356326  0.36468051  1
  O  O290  1  0.61311732  0.86189190  0.87890040  1
  O  O291  1  0.38553799  0.13222393  0.12680005  1
  O  O292  1  0.36848454  0.14077708  0.62674229  1
  O  O293  1  0.37098169  0.63646600  0.13092323  1
  O  O294  1  0.38226736  0.62328771  0.63263425  1
  O  O295  1  0.88347089  0.13537224  0.13548080  1
  O  O296  1  0.87825561  0.12870555  0.63545868  1
  O  O297  1  0.87619733  0.62852982  0.13551667  1
  O  O298  1  0.88636022  0.63326151  0.61379845  1
  O  O299  1  0.25828057  0.25611561  0.12423307  1
  O  O300  1  0.25287929  0.25594249  0.61685801  1
  O  O301  1  0.26270856  0.76481388  0.13422736  1
  O  O302  1  0.25452928  0.75553714  0.61379717  1
  O  O303  1  0.76086839  0.25179261  0.12521558  1
  O  O304  1  0.75180134  0.25703311  0.62220679  1
  O  O305  1  0.74884198  0.75895206  0.11479284  1
  O  O306  1  0.75999985  0.75908325  0.62641739  1
  O  O307  1  0.24423551  0.25221620  0.38302083  1
  O  O308  1  0.24166093  0.24291783  0.87581240  1
  O  O309  1  0.25562759  0.73948904  0.38303087  1
  O  O310  1  0.24199438  0.74007615  0.86312624  1
  O  O311  1  0.74354896  0.25087588  0.38688857  1
  O  O312  1  0.74255182  0.24019665  0.88040662  1
  O  O313  1  0.73871692  0.73861943  0.36746017  1
  O  O314  1  0.73650064  0.76130800  0.88627325  1
  O  O315  1  -0.00243256  0.12956389  0.01917949  1
  O  O316  1  -0.00380109  0.11660270  0.50641866  1
  O  O317  1  0.00822657  0.64496711  0.01076437  1
  O  O318  1  0.01016270  0.62583697  0.50677462  1
  O  O319  1  0.49630593  0.10975257  0.01044752  1
  O  O320  1  0.49869357  0.11543154  0.50160273  1
  O  O321  1  0.50980115  0.61721767  0.00355391  1
  O  O322  1  0.50811869  0.62015028  0.50532659  1
  O  O323  1  0.48600176  0.37569084  0.50381907  1
  O  O324  1  0.50964275  0.39261444  0.99737193  1
  O  O325  1  0.48971927  0.87687729  0.50037300  1
  O  O326  1  0.49095705  0.88380062  0.99993643  1
  O  O327  1  0.99203420  0.37790233  0.49263967  1
  O  O328  1  0.98965770  0.37252278  0.98889599  1
  O  O329  1  0.99402107  0.88076378  0.49274842  1
  O  O330  1  1.00158111  0.86312577  0.97857112  1
  O  O331  1  0.48311542  0.50713021  0.37415931  1
  O  O332  1  0.49193052  0.50022692  0.88477541  1
  O  O333  1  0.49589393  1.00519140  0.38647462  1
  O  O334  1  0.49853605  0.99062743  0.88405914  1
  O  O335  1  0.99472182  0.49520851  0.37652025  1
  O  O336  1  0.98510101  0.49004082  0.86420092  1
  O  O337  1  1.00379895  0.99251583  0.38519617  1
  O  O338  1  0.99860362  0.97902665  0.86550575  1
  O  O339  1  -0.00218311  0.01669036  0.13364789  1
  O  O340  1  0.00524302  0.00259327  0.61620015  1
  O  O341  1  0.01542902  0.50089788  0.13548462  1
  O  O342  1  0.00355171  0.50850114  0.62565758  1
  O  O343  1  0.50620826  0.00581352  0.12175771  1
  O  O344  1  0.51339604  -0.00338597  0.61050544  1
  O  O345  1  0.49166797  0.50215956  0.11064677  1
  O  O346  1  0.50369005  0.51041603  0.61965846  1
  O  O347  1  0.25302324  0.38583548  0.23943201  1
  O  O348  1  0.24211695  0.38112582  0.74576282  1
  O  O349  1  0.25109070  0.88636736  0.23784580  1
  O  O350  1  0.24779490  0.88114306  0.74211089  1
  O  O351  1  0.74470456  0.38674776  0.25056052  1
  O  O352  1  0.74367760  0.37777137  0.74246780  1
  O  O353  1  0.74144529  0.88221654  0.24434304  1
  O  O354  1  0.75907862  0.87833758  0.72841706  1
  O  O355  1  0.25361208  0.10842312  0.24681387  1
  O  O356  1  0.24759365  0.11961727  0.76239661  1
  O  O357  1  0.25528074  0.61895651  0.25784665  1
  O  O358  1  0.25847109  0.61853116  0.75597450  1
  O  O359  1  0.75685075  0.11725122  0.25012270  1
  O  O360  1  0.75795807  0.12096150  0.76226107  1
  O  O361  1  0.75346852  0.62096543  0.25754186  1
  O  O362  1  0.74866460  0.61063628  0.74365380  1
  O  O363  1  0.36880291  0.11193216  0.37314498  1
  O  O364  1  0.36550363  0.11905402  0.87290957  1
  O  O365  1  0.36397369  0.61702421  0.37154218  1
  O  O366  1  0.37049278  0.61857257  0.86806572  1
  O  O367  1  0.87241636  0.13395625  0.36256635  1
  O  O368  1  0.86888610  0.12246051  0.86859978  1
  O  O369  1  0.86755853  0.62348236  0.36980583  1
  O  O370  1  0.88126051  0.61213667  0.87546463  1
  O  O371  1  0.13273402  0.38738003  0.12425943  1
  O  O372  1  0.12763937  0.37993249  0.63060298  1
  O  O373  1  0.14164537  0.86579641  0.11388031  1
  O  O374  1  0.13164513  0.87999291  0.62667711  1
  O  O375  1  0.62935937  0.36895274  0.14233021  1
  O  O376  1  0.63322320  0.37541164  0.63452156  1
  O  O377  1  0.63223670  0.88276428  0.13571248  1
  O  O378  1  0.63912750  0.86751370  0.61737266  1
  O  O379  1  0.12749505  0.25087770  0.26451982  1
  O  O380  1  0.11876600  0.25524594  0.76072296  1
  O  O381  1  0.11588869  0.74468294  0.24704498  1
  O  O382  1  0.11690662  0.75427057  0.75213140  1
  O  O383  1  0.61766368  0.25754712  0.25702803  1
  O  O384  1  0.63039815  0.26040185  0.76657429  1
  O  O385  1  0.61832218  0.75586019  0.25488885  1
  O  O386  1  0.63113062  0.74327195  0.76641222  1
  O  O387  1  0.38295969  0.24842592  0.24183933  1
  O  O388  1  0.37038812  0.25194432  0.73522057  1
  O  O389  1  0.38168801  0.74834925  0.24599718  1
  O  O390  1  0.37235855  0.73536552  0.74795007  1
  O  O391  1  0.87335740  0.24528787  0.24296751  1
  O  O392  1  0.87800257  0.24006788  0.74751227  1
  O  O393  1  0.87268361  0.73966442  0.24971680  1
  O  O394  1  0.88673006  0.75195542  0.73464389  1
  O  O395  1  0.37144578  0.49058055  0.49145164  1
  O  O396  1  0.38845210  0.50823982  0.99053499  1
  O  O397  1  0.38735285  0.99456373  0.49366074  1
  O  O398  1  0.38402719  0.99145004  0.99476368  1
  O  O399  1  0.87513414  0.49434182  0.49374255  1
  O  O400  1  0.86742969  0.49385965  0.98411151  1
  O  O401  1  0.88584520  0.99035946  0.50646733  1
  O  O402  1  0.88830876  0.99439250  1.00357546  1
  O  O403  1  0.11097814  0.00048364  -0.00423322  1
  O  O404  1  0.11556017  0.00181473  0.50478392  1
  O  O405  1  0.12548363  0.50030052  0.01314548  1
  O  O406  1  0.12686706  0.51151469  0.50781608  1
  O  O407  1  0.61526134  -0.00970147  0.01368430  1
  O  O408  1  0.61327077  -0.00110471  0.50492915  1
  O  O409  1  0.61673824  0.51497369  -0.00972344  1
  O  O410  1  0.62446870  0.50953332  0.49817252  1
  O  O411  1  0.36589458  0.36479193  0.12828608  1
  O  O412  1  0.36869326  0.36736829  0.61816986  1
  O  O413  1  0.37088055  0.86832298  0.11830973  1
  O  O414  1  0.37055154  0.87565813  0.61317353  1
  O  O415  1  0.87594410  0.37131333  0.11710904  1
  O  O416  1  0.86697285  0.36952836  0.62426317  1
  O  O417  1  0.86034234  0.87408348  0.13454501  1
  O  O418  1  0.87070149  0.86679470  0.61319037  1
  O  O419  1  0.12671789  0.13854801  0.37935481  1
  O  O420  1  0.13072996  0.13331364  0.87550371  1
  O  O421  1  0.13652741  0.61709624  0.38498688  1
  O  O422  1  0.13363061  0.63098147  0.87181836  1
  O  O423  1  0.63095532  0.14211255  0.36814618  1
  O  O424  1  0.63428364  0.13628417  0.87338961  1
  O  O425  1  0.63117849  0.63052758  0.37945632  1
  O  O426  1  0.61786211  0.64060052  0.88758108  1
