# generated using pymatgen
data_V85Zn86O256
_symmetry_space_group_name_H-M   'P 1'
_cell_length_a   16.94885183
_cell_length_b   16.95569252
_cell_length_c   16.97175912
_cell_angle_alpha   90.08578674
_cell_angle_beta   90.11317787
_cell_angle_gamma   89.80708910
_symmetry_Int_Tables_number   1
_chemical_formula_structural   V85Zn86O256
_chemical_formula_sum   'V85 Zn86 O256'
_cell_volume   4877.29341294
_cell_formula_units_Z   1
loop_
 _symmetry_equiv_pos_site_id
 _symmetry_equiv_pos_as_xyz
  1  'x, y, z'
loop_
 _atom_site_type_symbol
 _atom_site_label
 _atom_site_symmetry_multiplicity
 _atom_site_fract_x
 _atom_site_fract_y
 _atom_site_fract_z
 _atom_site_occupancy
  V  V0  1  0.12124724  0.50737776  0.62534770  1
  V  V1  1  0.50043706  0.86363108  0.37565269  1
  V  V2  1  0.36955649  0.50133762  0.37564281  1
  V  V3  1  0.49583701  0.62294115  0.12505888  1
  V  V4  1  0.62729010  0.87930125  0.74490498  1
  V  V5  1  0.74675950  0.74030438  -0.00770689  1
  V  V6  1  0.12924761  0.25270944  0.88570207  1
  V  V7  1  0.37622443  0.86665257  0.50875965  1
  V  V8  1  0.87790084  0.49834084  0.37506506  1
  V  V9  1  0.86680691  0.62171126  0.75247714  1
  V  V10  1  0.12229817  0.12134337  0.51239480  1
  V  V11  1  0.43849148  0.79760857  0.19363683  1
  V  V12  1  0.87196219  0.62480764  0.25338305  1
  V  V13  1  0.49901126  0.87509470  0.87619390  1
  V  V14  1  0.62920308  0.62258317  0.49131511  1
  V  V15  1  0.87900597  0.37320221  0.49650606  1
  V  V16  1  0.11993376  0.50042233  0.11959621  1
  V  V17  1  0.00245398  0.12481489  0.12559304  1
  V  V18  1  0.49897800  0.36586491  0.37110119  1
  V  V19  1  0.62132864  0.36822487  0.25110342  1
  V  V20  1  0.13720805  -0.00562753  0.12858364  1
  V  V21  1  0.12849774  0.62188059  0.49035304  1
  V  V22  1  0.50083786  0.50215239  -0.00050746  1
  V  V23  1  0.49702241  0.75148579  0.74059444  1
  V  V24  1  0.39295572  0.24754598  0.13218777  1
  V  V25  1  0.36920752  -0.00041951  0.86352387  1
  V  V26  1  -0.00077114  0.38514753  0.88020324  1
  V  V27  1  0.87621812  0.24994930  0.12474059  1
  V  V28  1  0.75009100  0.25203294  -0.00087676  1
  V  V29  1  0.74722122  0.50321843  0.25745990  1
  V  V30  1  0.26438060  0.75480234  0.00670485  1
  V  V31  1  0.37468690  0.62196678  0.24870345  1
  V  V32  1  0.62139218  0.12556021  0.00611454  1
  V  V33  1  -0.00238266  0.62194252  0.11797525  1
  V  V34  1  0.00429994  0.00156746  0.50860266  1
  V  V35  1  0.24967864  0.12686804  0.87656773  1
  V  V36  1  0.00029154  0.25096787  0.25309620  1
  V  V37  1  0.24939431  0.50197296  0.75036545  1
  V  V38  1  0.24691621  0.50410986  0.25249893  1
  V  V39  1  0.62693562  0.37778589  0.75035678  1
  V  V40  1  0.75146960  0.37565329  0.62670236  1
  V  V41  1  0.87123735  0.75389482  0.12444277  1
  V  V42  1  0.49790537  0.37102573  0.87449139  1
  V  V43  1  0.25340560  0.24678046  0.50647890  1
  V  V44  1  0.87522281  0.00246055  0.87588889  1
  V  V45  1  0.25455990  0.37024497  0.62773590  1
  V  V46  1  0.62437801  0.50287852  0.12335356  1
  V  V47  1  0.25146851  0.62625633  0.87641882  1
  V  V48  1  0.88516201  -0.00490147  0.37130420  1
  V  V49  1  0.37243871  -0.00255025  0.37208759  1
  V  V50  1  -0.00189826  0.25060555  0.74642202  1
  V  V51  1  0.75136308  0.12176175  0.37384153  1
  V  V52  1  0.00004412  0.50142187  0.50097458  1
  V  V53  1  0.74870281  0.87883712  0.62113432  1
  V  V54  1  0.86491449  0.87796207  0.00435044  1
  V  V55  1  0.49457790  0.00442664  0.00206738  1
  V  V56  1  0.63876132  0.86889433  0.24292662  1
  V  V57  1  0.12014572  0.37474512  0.25553851  1
  V  V58  1  0.49640641  0.12762871  0.62622521  1
  V  V59  1  0.12425483  0.37623146  0.75156889  1
  V  V60  1  0.74857706  0.12544424  0.87265674  1
  V  V61  1  0.12076453  0.25030161  0.37720767  1
  V  V62  1  0.50004961  0.49848410  0.50006105  1
  V  V63  1  0.37384086  0.63016310  0.74113000  1
  V  V64  1  0.00137802  0.87483348  0.87729373  1
  V  V65  1  0.24020483  0.88359460  0.62691362  1
  V  V66  1  0.87815508  0.38388731  0.00099758  1
  V  V67  1  0.25048947  0.74396105  0.50071531  1
  V  V68  1  0.88079682  0.74476360  0.62292835  1
  V  V69  1  0.37472730  0.37159663  0.50220587  1
  V  V70  1  0.00183780  0.74825319  0.74806386  1
  V  V71  1  0.87762604  0.12867330  0.74487560  1
  V  V72  1  0.75078640  0.74386772  0.49211703  1
  V  V73  1  0.62986524  0.11892091  0.50539642  1
  V  V74  1  0.25083229  0.12141037  0.37018665  1
  V  V75  1  0.50783787  -0.00500479  0.50490139  1
  V  V76  1  0.00234865  0.00227019  0.00196306  1
  V  V77  1  0.24865737  0.36473173  0.12425032  1
  V  V78  1  0.88374523  0.87097443  0.49570073  1
  V  V79  1  0.12613404  0.75291660  0.87562760  1
  V  V80  1  0.62693778  0.50186469  0.62697894  1
  V  V81  1  0.12683898  0.87382181  0.25759132  1
  V  V82  1  0.39117592  0.13102432  0.25319946  1
  V  V83  1  0.37043552  0.36712138  0.00162495  1
  V  V84  1  0.87632037  0.12431503  0.24983859  1
  Zn  Zn85  1  0.49622154  0.62925413  0.62040682  1
  Zn  Zn86  1  0.72928048  0.60507573  0.86948926  1
  Zn  Zn87  1  0.37323912  0.49864227  0.87615817  1
  Zn  Zn88  1  0.62095478  0.24184287  0.37035035  1
  Zn  Zn89  1  0.35829359  0.13006487  0.73620400  1
  Zn  Zn90  1  0.75652093  -0.00351325  0.23759788  1
  Zn  Zn91  1  0.75039953  0.24912343  0.49841693  1
  Zn  Zn92  1  0.13535804  0.13158278  0.00765814  1
  Zn  Zn93  1  0.86985867  0.50199927  0.87428575  1
  Zn  Zn94  1  0.26340280  0.87229723  0.12654214  1
  Zn  Zn95  1  0.62330352  0.74386124  0.87400240  1
  Zn  Zn96  1  0.12118381  0.62433979  -0.00112874  1
  Zn  Zn97  1  0.75038280  0.37577560  0.12685498  1
  Zn  Zn98  1  0.62177390  0.24871683  0.86962534  1
  Zn  Zn99  1  0.75072373  0.00244279  0.74211722  1
  Zn  Zn100  1  0.49002132  0.25708583  0.73640883  1
  Zn  Zn101  1  0.11911688  0.75000851  0.37705771  1
  Zn  Zn102  1  0.87784837  0.24756789  0.62164118  1
  Zn  Zn103  1  0.62675930  0.73841000  0.36455673  1
  Zn  Zn104  1  -0.00337234  0.75579486  0.25709162  1
  Zn  Zn105  1  0.63149221  -0.00450686  0.12102015  1
  Zn  Zn106  1  0.14480825  0.90382714  0.75930220  1
  Zn  Zn107  1  0.18992587  0.18376050  0.19019431  1
  Zn  Zn108  1  0.18365344  0.18607105  0.69557795  1
  Zn  Zn109  1  0.18569030  0.68886745  0.18781487  1
  Zn  Zn110  1  0.18955711  0.69488748  0.68341781  1
  Zn  Zn111  1  0.68931337  0.18464280  0.18620589  1
  Zn  Zn112  1  0.68441399  0.19277822  0.68573398  1
  Zn  Zn113  1  0.68815809  0.68761216  0.18131081  1
  Zn  Zn114  1  0.68657901  0.69209745  0.68354920  1
  Zn  Zn115  1  0.30940106  0.31030895  0.31321115  1
  Zn  Zn116  1  0.31435687  0.30727714  0.81149174  1
  Zn  Zn117  1  0.29879610  0.81686217  0.31975991  1
  Zn  Zn118  1  0.31434860  0.81296092  0.81227938  1
  Zn  Zn119  1  0.80938474  0.31266314  0.31292989  1
  Zn  Zn120  1  0.81241418  0.31620737  0.81401731  1
  Zn  Zn121  1  0.81495959  0.80970445  0.31448166  1
  Zn  Zn122  1  0.81567576  0.81362113  0.81100507  1
  Zn  Zn123  1  0.18761208  0.43501303  0.43915431  1
  Zn  Zn124  1  0.18862918  0.43765875  0.93861126  1
  Zn  Zn125  1  0.18975494  0.93681411  0.44277869  1
  Zn  Zn126  1  0.19206569  0.93578393  0.94468062  1
  Zn  Zn127  1  0.68873633  0.43586549  0.43735445  1
  Zn  Zn128  1  0.68775347  0.43871308  0.93614977  1
  Zn  Zn129  1  0.69119229  0.93297296  0.42967059  1
  Zn  Zn130  1  0.68361387  0.93809782  0.93259204  1
  Zn  Zn131  1  0.31752804  0.07025658  0.06263616  1
  Zn  Zn132  1  0.31454881  0.05742445  0.55638604  1
  Zn  Zn133  1  0.31039593  0.55968262  0.06298664  1
  Zn  Zn134  1  0.30846608  0.55934990  0.56260516  1
  Zn  Zn135  1  0.81037196  0.06405608  0.06358991  1
  Zn  Zn136  1  0.81825869  0.05880353  0.56028813  1
  Zn  Zn137  1  0.80839761  0.56466800  0.06597505  1
  Zn  Zn138  1  0.81176200  0.56168587  0.56535586  1
  Zn  Zn139  1  0.43641148  0.43502193  0.18717319  1
  Zn  Zn140  1  0.43694444  0.44309764  0.68868803  1
  Zn  Zn141  1  0.44687348  0.96272215  0.19143662  1
  Zn  Zn142  1  0.43802368  0.93985734  0.68638685  1
  Zn  Zn143  1  0.93726514  0.43734272  0.18664963  1
  Zn  Zn144  1  0.93898331  0.43711054  0.68656569  1
  Zn  Zn145  1  0.94353300  0.93638256  0.18650150  1
  Zn  Zn146  1  0.97694754  0.96188393  0.71053349  1
  Zn  Zn147  1  0.06570873  0.06079932  0.31379814  1
  Zn  Zn148  1  0.06703279  0.07056658  0.81727713  1
  Zn  Zn149  1  0.05485344  0.56289698  0.31114478  1
  Zn  Zn150  1  0.06013143  0.56774221  0.81027998  1
  Zn  Zn151  1  0.56708431  0.05158538  0.31774654  1
  Zn  Zn152  1  0.56323318  0.05997209  0.81326117  1
  Zn  Zn153  1  0.55610327  0.55665201  0.31089832  1
  Zn  Zn154  1  0.55913123  0.56326290  0.81143932  1
  Zn  Zn155  1  0.43838788  0.18388394  0.44207185  1
  Zn  Zn156  1  0.43191369  0.18683809  0.93644772  1
  Zn  Zn157  1  0.43636350  0.68381927  0.43803505  1
  Zn  Zn158  1  0.43990067  0.68653206  0.93279942  1
  Zn  Zn159  1  0.93800920  0.18428074  0.43877741  1
  Zn  Zn160  1  0.94030622  0.19177004  0.93511097  1
  Zn  Zn161  1  0.94290442  0.68319460  0.43518689  1
  Zn  Zn162  1  0.93436575  0.68800865  0.93572554  1
  Zn  Zn163  1  0.05982879  0.31612899  0.06562798  1
  Zn  Zn164  1  0.06450475  0.31534883  0.56299372  1
  Zn  Zn165  1  0.06068948  0.81060582  0.06437231  1
  Zn  Zn166  1  0.06399390  0.81116091  0.56222905  1
  Zn  Zn167  1  0.56502747  0.31523367  0.06072351  1
  Zn  Zn168  1  0.56679197  0.30847019  0.55672219  1
  Zn  Zn169  1  0.56520867  0.81566829  0.05683656  1
  Zn  Zn170  1  0.56795491  0.80903923  0.56123615  1
  O  O171  1  0.12342380  0.11352245  0.12578908  1
  O  O172  1  0.13073789  0.12876657  0.61096267  1
  O  O173  1  0.11521523  0.61694282  0.12693153  1
  O  O174  1  0.13188503  0.61142837  0.61815073  1
  O  O175  1  0.62615865  0.12685912  0.10885291  1
  O  O176  1  0.62114559  0.12369222  0.61151907  1
  O  O177  1  0.61052524  0.61326565  0.13272529  1
  O  O178  1  0.62405663  0.61533943  0.61636437  1
  O  O179  1  0.37916697  0.38094846  0.37972985  1
  O  O180  1  0.37901178  0.37570015  0.88497692  1
  O  O181  1  0.37989877  0.87964970  0.38139031  1
  O  O182  1  0.38419185  0.88975975  0.86786091  1
  O  O183  1  0.86802482  0.38440716  0.38567229  1
  O  O184  1  0.88343704  0.37614786  0.88342308  1
  O  O185  1  0.86947265  0.88268054  0.38553448  1
  O  O186  1  0.88089760  0.88187561  0.88490398  1
  O  O187  1  0.26285257  0.00952676  0.38784028  1
  O  O188  1  0.26416922  0.00124071  0.87908754  1
  O  O189  1  0.25922021  0.49082723  0.36543976  1
  O  O190  1  0.24798389  0.51048237  0.86963998  1
  O  O191  1  0.76281888  0.00801842  0.37119543  1
  O  O192  1  0.75613296  0.01142746  0.87332005  1
  O  O193  1  0.75810551  0.49825859  0.36497880  1
  O  O194  1  0.75639368  0.49635035  0.87281376  1
  O  O195  1  0.24176149  0.49113486  0.13615444  1
  O  O196  1  0.24081347  0.48976632  0.63025432  1
  O  O197  1  0.23977868  0.99720164  0.11478598  1
  O  O198  1  0.25363992  0.98331068  0.61682704  1
  O  O199  1  0.73887362  0.49935982  0.13354537  1
  O  O200  1  0.73796636  0.48865534  0.61968410  1
  O  O201  1  0.74510168  1.00095611  0.12526774  1
  O  O202  1  0.75972461  0.98349537  0.62411790  1
  O  O203  1  0.01317516  0.36923070  0.24588581  1
  O  O204  1  0.00374060  0.37051159  0.76017463  1
  O  O205  1  0.01965955  0.87283183  0.24165126  1
  O  O206  1  -0.00850361  0.85827003  0.76273514  1
  O  O207  1  0.50908688  0.38350414  0.26032834  1
  O  O208  1  0.50364252  0.37749105  0.75875828  1
  O  O209  1  0.49603496  0.86438467  0.25326801  1
  O  O210  1  0.50545182  0.87058098  0.75376285  1
  O  O211  1  0.49073220  0.12204459  0.26228877  1
  O  O212  1  0.51026802  0.11981610  0.72902917  1
  O  O213  1  0.48763022  0.61861454  0.23960715  1
  O  O214  1  0.49024509  0.63356350  0.74680025  1
  O  O215  1  0.99657513  0.13074532  0.24550389  1
  O  O216  1  0.98758104  0.14024531  0.76294502  1
  O  O217  1  0.98622550  0.62440882  0.23923434  1
  O  O218  1  0.98964930  0.64096348  0.75435881  1
  O  O219  1  0.37976754  0.26067799  0.01214917  1
  O  O220  1  0.36013332  0.25348906  0.49536274  1
  O  O221  1  0.36331923  0.74553329  -0.00404156  1
  O  O222  1  0.36686337  0.75767730  0.49240893  1
  O  O223  1  0.86778889  0.25617253  0.00424480  1
  O  O224  1  0.87706112  0.25913420  0.50183149  1
  O  O225  1  0.86812200  0.75904372  0.00460034  1
  O  O226  1  0.87227275  0.75081791  0.50280845  1
  O  O227  1  0.13037157  0.24382746  0.49439614  1
  O  O228  1  0.11840211  0.25125163  0.99041481  1
  O  O229  1  0.12802703  0.73574319  0.50220896  1
  O  O230  1  0.13078374  0.74848829  0.98804570  1
  O  O231  1  0.62943156  0.23472996  0.49174800  1
  O  O232  1  0.63397048  0.24573772  0.99676586  1
  O  O233  1  0.63350654  0.73890299  0.49680191  1
  O  O234  1  0.64416826  0.75595650  1.00107508  1
  O  O235  1  0.49200056  0.25556511  0.12719542  1
  O  O236  1  0.50243398  0.23204134  0.61648854  1
  O  O237  1  0.49583399  0.74355161  0.12472488  1
  O  O238  1  0.50167314  0.75027593  0.63616608  1
  O  O239  1  0.99685595  0.24431174  0.13262991  1
  O  O240  1  1.00024807  0.25952670  0.64197274  1
  O  O241  1  0.98830631  0.74086256  0.12749495  1
  O  O242  1  0.99095579  0.75691146  0.63397944  1
  O  O243  1  0.01377961  0.24211639  0.37053902  1
  O  O244  1  0.00780720  0.26198492  0.86820064  1
  O  O245  1  0.00557021  0.74674493  0.37043455  1
  O  O246  1  0.00902778  0.75437450  0.87286951  1
  O  O247  1  0.49864217  0.26227868  0.38060197  1
  O  O248  1  0.50029100  0.26437959  0.87981977  1
  O  O249  1  0.50194327  0.75993644  0.37856978  1
  O  O250  1  0.49810272  0.76186078  0.86698510  1
  O  O251  1  0.24415169  0.13063739  0.49390905  1
  O  O252  1  0.25087037  0.12187169  0.98460228  1
  O  O253  1  0.24189686  0.63062313  0.50399905  1
  O  O254  1  0.24925932  0.63168458  0.99069568  1
  O  O255  1  0.74637139  0.12041573  0.49219975  1
  O  O256  1  0.74414063  0.13365250  0.99057123  1
  O  O257  1  0.74079036  0.63116652  0.50476461  1
  O  O258  1  0.75800617  0.63756401  0.99256298  1
  O  O259  1  0.26074269  0.38283457  0.01178740  1
  O  O260  1  0.25281288  0.36607181  0.50835848  1
  O  O261  1  0.25289729  0.86000944  0.00515065  1
  O  O262  1  0.25754614  0.86847259  0.50847498  1
  O  O263  1  0.75662839  0.36425048  0.00145518  1
  O  O264  1  0.75975916  0.37395268  0.50688825  1
  O  O265  1  0.76152863  0.87134241  -0.00577692  1
  O  O266  1  0.75639920  0.86606119  0.50271759  1
  O  O267  1  0.12959964  0.49339005  0.24670972  1
  O  O268  1  0.12827362  0.49735841  0.74329574  1
  O  O269  1  0.12321718  0.99284350  0.23585171  1
  O  O270  1  0.08424446  0.99355827  0.74174961  1
  O  O271  1  0.63058163  0.49333667  0.24475233  1
  O  O272  1  0.61593236  0.48933522  0.73769688  1
  O  O273  1  0.62049928  0.98085189  0.24619624  1
  O  O274  1  0.62884263  0.98391819  0.75405410  1
  O  O275  1  0.37768926  0.01078331  0.26461734  1
  O  O276  1  0.37983659  0.00851964  0.76090201  1
  O  O277  1  0.36600598  0.50227510  0.25590920  1
  O  O278  1  0.36734475  0.51036511  0.75409929  1
  O  O279  1  0.87915906  0.00422082  0.25586252  1
  O  O280  1  0.87966957  0.01239150  0.75926084  1
  O  O281  1  0.86782111  0.50283642  0.25556898  1
  O  O282  1  0.88183149  0.51994784  0.74285046  1
  O  O283  1  0.13264001  0.36308655  0.36647779  1
  O  O284  1  0.11972735  0.37177625  0.87257456  1
  O  O285  1  0.13121278  0.88337583  0.35910187  1
  O  O286  1  0.12270386  0.86878619  0.87412824  1
  O  O287  1  0.61620114  0.37472973  0.36838887  1
  O  O288  1  0.61556019  0.37542819  0.86633458  1
  O  O289  1  0.61501218  0.87211853  0.36109090  1
  O  O290  1  0.61589300  0.87046710  0.86478295  1
  O  O291  1  0.37055258  0.13582834  0.13966396  1
  O  O292  1  0.39127083  0.11587666  0.62114228  1
  O  O293  1  0.38254138  0.61678531  0.13649436  1
  O  O294  1  0.37410404  0.61892563  0.63690158  1
  O  O295  1  0.88226898  0.13101144  0.13035349  1
  O  O296  1  0.86683375  0.12791368  0.64039169  1
  O  O297  1  0.88029812  0.62991387  0.13208381  1
  O  O298  1  0.86969716  0.63708812  0.63322995  1
  O  O299  1  0.25069599  0.26227257  0.12978469  1
  O  O300  1  0.24078190  0.25901312  0.61782430  1
  O  O301  1  0.24814761  0.74527828  0.10904381  1
  O  O302  1  0.24786962  0.76156870  0.61023509  1
  O  O303  1  0.75673625  0.24962425  0.11407066  1
  O  O304  1  0.75185778  0.26307853  0.62039336  1
  O  O305  1  0.76359027  0.74265432  0.11063388  1
  O  O306  1  0.75847030  0.75686348  0.61261435  1
  O  O307  1  0.24061506  0.24242059  0.38573669  1
  O  O308  1  0.23760288  0.24460665  0.87299960  1
  O  O309  1  0.23789082  0.75648832  0.39403466  1
  O  O310  1  0.24507862  0.74533253  0.88253142  1
  O  O311  1  0.75223973  0.23307734  0.37626373  1
  O  O312  1  0.74917156  0.24293616  0.88315957  1
  O  O313  1  0.74911164  0.75070572  0.38852883  1
  O  O314  1  0.75273234  0.75187519  0.88722217  1
  O  O315  1  -0.00014906  0.11612993  0.00558939  1
  O  O316  1  0.00771406  0.11196601  0.49552585  1
  O  O317  1  -0.00173651  0.62803825  0.01302472  1
  O  O318  1  0.00858917  0.60837913  0.50085256  1
  O  O319  1  0.50880635  0.11386109  -0.01233563  1
  O  O320  1  0.50869520  0.11437373  0.50471543  1
  O  O321  1  0.48829058  0.61295980  0.01090797  1
  O  O322  1  0.50780456  0.61793827  0.50238131  1
  O  O323  1  0.49495451  0.37882004  0.49289933  1
  O  O324  1  0.49191829  0.38237588  0.99447192  1
  O  O325  1  0.49689284  0.87590569  0.49479677  1
  O  O326  1  0.50883800  0.88947204  0.98621329  1
  O  O327  1  0.98938732  0.38490050  0.50435705  1
  O  O328  1  0.98945936  0.36996142  0.99208309  1
  O  O329  1  0.99291233  0.88454952  0.50131647  1
  O  O330  1  0.99199708  0.88372383  0.99709976  1
  O  O331  1  0.48826540  0.48845203  0.38049752  1
  O  O332  1  0.49707771  0.49007475  0.88398290  1
  O  O333  1  0.49220952  0.98488037  0.38294785  1
  O  O334  1  0.49061798  0.99472437  0.87890872  1
  O  O335  1  0.98739577  0.49799967  0.38312130  1
  O  O336  1  0.99849307  0.48869847  0.87085051  1
  O  O337  1  0.98964611  1.00296353  0.38057147  1
  O  O338  1  0.99538863  0.99724888  0.88833755  1
  O  O339  1  0.00902187  0.00565746  0.11695888  1
  O  O340  1  -0.01033906  0.00191061  0.60543866  1
  O  O341  1  0.00973324  0.50735001  0.13181173  1
  O  O342  1  0.01290879  0.49224880  0.61608788  1
  O  O343  1  0.50690991  -0.00165667  0.10530576  1
  O  O344  1  0.50116979  0.00464045  0.61063192  1
  O  O345  1  0.50447751  0.50401564  0.11936535  1
  O  O346  1  0.50988178  0.49920487  0.61677759  1
  O  O347  1  0.24008848  0.38200533  0.24368251  1
  O  O348  1  0.24511562  0.38010564  0.74533527  1
  O  O349  1  0.23586348  0.87060413  0.23988482  1
  O  O350  1  0.25198444  0.86906500  0.73356791  1
  O  O351  1  0.74164335  0.38538267  0.24863047  1
  O  O352  1  0.73824168  0.36941168  0.74082082  1
  O  O353  1  0.74109380  0.87697125  0.25413199  1
  O  O354  1  0.74516306  0.87339414  0.74033288  1
  O  O355  1  0.25782352  0.12916559  0.26706768  1
  O  O356  1  0.24464900  0.12255100  0.76737127  1
  O  O357  1  0.25866211  0.61290262  0.24337997  1
  O  O358  1  0.25461524  0.62472554  0.75665114  1
  O  O359  1  0.75733529  0.12210757  0.25769072  1
  O  O360  1  0.75443401  0.12689399  0.75819319  1
  O  O361  1  0.75990713  0.61416831  0.24181024  1
  O  O362  1  0.76317745  0.63518741  0.75167394  1
  O  O363  1  0.37027944  0.11844403  0.37332753  1
  O  O364  1  0.36842989  0.11338294  0.87423955  1
  O  O365  1  0.38217079  0.61059372  0.36364024  1
  O  O366  1  0.36430743  0.62311706  0.86584952  1
  O  O367  1  0.87058096  0.11595231  0.36990280  1
  O  O368  1  0.86534806  0.12418870  0.86994644  1
  O  O369  1  0.87728313  0.61314201  0.36304580  1
  O  O370  1  0.87483496  0.62427618  0.86091317  1
  O  O371  1  0.12997190  0.38097991  0.13373586  1
  O  O372  1  0.13510880  0.38306795  0.63101313  1
  O  O373  1  0.12705279  0.88686960  0.12651213  1
  O  O374  1  0.13762982  0.87550998  0.62392072  1
  O  O375  1  0.62388024  0.38542717  0.13446800  1
  O  O376  1  0.63007217  0.38098560  0.62837269  1
  O  O377  1  0.61861770  0.87178250  0.14074722  1
  O  O378  1  0.63754694  0.86829466  0.63103416  1
  O  O379  1  0.12219503  0.25544096  0.25817578  1
  O  O380  1  0.11659162  0.25717747  0.76105648  1
  O  O381  1  0.12479487  0.76159594  0.25154280  1
  O  O382  1  0.11884281  0.74833003  0.76203366  1
  O  O383  1  0.63286658  0.26398577  0.25057878  1
  O  O384  1  0.61376239  0.26375914  0.74855037  1
  O  O385  1  0.63201368  0.76036201  0.25053445  1
  O  O386  1  0.61537734  0.76017334  0.75000609  1
  O  O387  1  0.37282222  0.24373776  0.24511785  1
  O  O388  1  0.38045871  0.24019463  0.75266038  1
  O  O389  1  0.37358476  0.74248905  0.25249016  1
  O  O390  1  0.38423088  0.74102628  0.75528041  1
  O  O391  1  0.88047451  0.24614327  0.24599031  1
  O  O392  1  0.88126953  0.24632644  0.75037259  1
  O  O393  1  0.87099049  0.74163159  0.24141931  1
  O  O394  1  0.88074083  0.74319133  0.74192933  1
  O  O395  1  0.37678449  0.49365217  0.49242952  1
  O  O396  1  0.38377751  0.48753979  1.00261555  1
  O  O397  1  0.38707462  0.98894914  0.48989678  1
  O  O398  1  0.39023963  1.00610036  0.99201361  1
  O  O399  1  0.88056081  0.49613929  0.49480408  1
  O  O400  1  0.86899679  0.48586254  1.00513271  1
  O  O401  1  0.88555935  0.99229991  0.49057754  1
  O  O402  1  0.88289555  0.99588643  0.99784325  1
  O  O403  1  0.11643561  -0.00031333  0.00987466  1
  O  O404  1  0.11158263  0.00523787  0.49409130  1
  O  O405  1  0.13107905  0.50219198  0.01600464  1
  O  O406  1  0.12054456  0.50147232  0.50553945  1
  O  O407  1  0.61611957  0.00935833  -0.00494907  1
  O  O408  1  0.61721721  0.00473652  0.48837443  1
  O  O409  1  0.61257841  0.49017219  0.01218245  1
  O  O410  1  0.62112699  0.50454990  0.50571749  1
  O  O411  1  0.36789843  0.36657671  0.12309306  1
  O  O412  1  0.36180935  0.38269071  0.61992146  1
  O  O413  1  0.38407132  0.86699058  0.14243098  1
  O  O414  1  0.37188880  0.87792178  0.61234074  1
  O  O415  1  0.87454455  0.36784476  0.11833529  1
  O  O416  1  0.86632792  0.37768020  0.61678781  1
  O  O417  1  0.88212448  0.86512719  0.11632663  1
  O  O418  1  0.86658799  0.86059475  0.60833776  1
  O  O419  1  0.13382005  0.13049016  0.38189291  1
  O  O420  1  0.13065053  0.13557056  0.88287135  1
  O  O421  1  0.12440872  0.61622515  0.38760591  1
  O  O422  1  0.13473589  0.63268656  0.87574869  1
  O  O423  1  0.63530100  0.12110426  0.38066809  1
  O  O424  1  0.63400371  0.12753758  0.87989183  1
  O  O425  1  0.61767533  0.62042673  0.38609702  1
  O  O426  1  0.62007982  0.63077337  0.87436811  1
