# generated using pymatgen
data_V85Zn86O256
_symmetry_space_group_name_H-M   'P 1'
_cell_length_a   16.95282360
_cell_length_b   16.95319754
_cell_length_c   16.96481681
_cell_angle_alpha   89.97933949
_cell_angle_beta   89.95846639
_cell_angle_gamma   90.06491398
_symmetry_Int_Tables_number   1
_chemical_formula_structural   V85Zn86O256
_chemical_formula_sum   'V85 Zn86 O256'
_cell_volume   4875.76110552
_cell_formula_units_Z   1
loop_
 _symmetry_equiv_pos_site_id
 _symmetry_equiv_pos_as_xyz
  1  'x, y, z'
loop_
 _atom_site_type_symbol
 _atom_site_label
 _atom_site_symmetry_multiplicity
 _atom_site_fract_x
 _atom_site_fract_y
 _atom_site_fract_z
 _atom_site_occupancy
  V  V0  1  0.49366704  0.87484979  0.37743594  1
  V  V1  1  0.25261217  0.50979173  0.24522269  1
  V  V2  1  0.49997510  0.37788099  0.37007529  1
  V  V3  1  0.25070260  0.24885657  0.49678196  1
  V  V4  1  0.75060600  -0.00586668  0.24793239  1
  V  V5  1  0.12407799  0.87531401  0.24680806  1
  V  V6  1  0.37529881  0.37649547  0.49910622  1
  V  V7  1  0.25214254  0.87590548  0.62064635  1
  V  V8  1  0.75091995  0.37713163  0.62279534  1
  V  V9  1  0.25439586  0.00491247  0.75107462  1
  V  V10  1  0.88524791  0.38395646  0.49602278  1
  V  V11  1  0.12176437  0.62510311  -0.00645102  1
  V  V12  1  0.62814688  0.87366782  0.75121224  1
  V  V13  1  0.75064097  0.25151513  0.50021486  1
  V  V14  1  0.24412586  0.74946517  -0.00558157  1
  V  V15  1  0.76024212  0.75581009  0.50278946  1
  V  V16  1  -0.00423495  0.74358278  0.24833112  1
  V  V17  1  0.75467700  0.62077048  0.87807797  1
  V  V18  1  0.49528409  -0.00489332  0.50060023  1
  V  V19  1  0.50126858  0.62557663  0.62439396  1
  V  V20  1  -0.00026053  -0.00286312  0.00270525  1
  V  V21  1  0.62022446  0.00435351  0.62741647  1
  V  V22  1  0.12722288  0.12445219  -0.00366836  1
  V  V23  1  0.87622023  0.00515175  0.87388803  1
  V  V24  1  0.37092341  0.37803069  0.00074200  1
  V  V25  1  0.49391728  0.37001423  0.87003581  1
  V  V26  1  0.37441038  0.87419380  -0.00157147  1
  V  V27  1  0.86299740  0.75219722  0.12290010  1
  V  V28  1  0.49599939  0.74533556  0.25057475  1
  V  V29  1  0.62064174  0.37249227  0.75022360  1
  V  V30  1  0.50084693  0.25358618  0.24654269  1
  V  V31  1  0.49895652  -0.00190260  0.00154670  1
  V  V32  1  0.11754717  0.25403276  0.86802106  1
  V  V33  1  -0.00631947  0.49216940  -0.00801275  1
  V  V34  1  0.62674828  0.75144489  0.37541599  1
  V  V35  1  0.85805598  0.25442132  0.12767781  1
  V  V36  1  0.75791676  0.87683735  0.62191205  1
  V  V37  1  -0.00178736  -0.00023263  0.50105311  1
  V  V38  1  0.24982932  0.74363774  0.49785533  1
  V  V39  1  0.74954787  0.12533692  0.37314162  1
  V  V40  1  0.62950587  -0.00715120  0.12642539  1
  V  V41  1  0.62941525  0.62293187  0.00337376  1
  V  V42  1  -0.00470132  0.12534907  0.64035430  1
  V  V43  1  0.62408261  0.25626218  0.37187442  1
  V  V44  1  0.24967745  0.25515176  0.00525211  1
  V  V45  1  0.75595808  0.50132486  0.75259654  1
  V  V46  1  0.87351502  -0.00272676  0.37919915  1
  V  V47  1  0.38683830  0.24625755  0.63330121  1
  V  V48  1  0.63073906  0.62671201  0.50059583  1
  V  V49  1  0.37268587  0.74576785  0.12716603  1
  V  V50  1  -0.00329326  0.87481274  0.37849609  1
  V  V51  1  0.62772705  0.13169326  0.00215994  1
  V  V52  1  0.36970669  0.51412659  0.37015730  1
  V  V53  1  0.88141838  0.63224167  0.75154489  1
  V  V54  1  0.75033874  0.13060882  0.88074482  1
  V  V55  1  0.37599983  0.62044634  0.75440523  1
  V  V56  1  0.63271162  0.74870122  0.88092638  1
  V  V57  1  0.87819611  0.24660702  0.63644172  1
  V  V58  1  0.75437370  0.00762984  0.74997231  1
  V  V59  1  0.12672816  0.36997537  0.23882655  1
  V  V60  1  0.86082264  0.87351673  0.00324608  1
  V  V61  1  -0.00084802  0.13509882  0.12894200  1
  V  V62  1  0.37419876  0.12355560  0.25334154  1
  V  V63  1  0.49761325  0.12197671  0.12648038  1
  V  V64  1  0.50157562  0.74905409  0.75089833  1
  V  V65  1  0.75208382  0.49026053  0.24639217  1
  V  V66  1  0.12232453  0.86336567  0.75426574  1
  V  V67  1  0.25014472  0.62259261  0.87469757  1
  V  V68  1  0.12967626  0.74375269  0.37459542  1
  V  V69  1  0.49503075  0.50147155  -0.00904103  1
  V  V70  1  0.11223286  0.25131339  0.37361080  1
  V  V71  1  0.25124942  -0.00207170  0.25046537  1
  V  V72  1  0.61785158  0.12469011  0.50201797  1
  V  V73  1  0.49999461  0.62174666  0.12570768  1
  V  V74  1  0.24838517  0.37517630  0.62506886  1
  V  V75  1  0.24894895  0.49793007  0.75075431  1
  V  V76  1  0.37628141  0.75507811  0.61988994  1
  V  V77  1  0.50026970  0.87363119  0.87643290  1
  V  V78  1  0.85558767  0.37144242  -0.00021606  1
  V  V79  1  0.50070797  0.50328874  0.49621304  1
  V  V80  1  0.00322490  0.63222353  0.61937749  1
  V  V81  1  0.12429708  0.00054210  0.62549172  1
  V  V82  1  0.11974133  0.50030496  0.61707526  1
  V  V83  1  0.00244676  0.86055661  0.87336681  1
  V  V84  1  -0.00376774  0.62116250  0.12469337  1
  Zn  Zn85  1  0.62917772  0.86982673  0.24423193  1
  Zn  Zn86  1  0.37720637  0.00463691  0.87373633  1
  Zn  Zn87  1  0.40977483  0.12861438  0.75147340  1
  Zn  Zn88  1  0.88433210  0.13367926  0.25731644  1
  Zn  Zn89  1  0.00052226  0.38822098  0.37129049  1
  Zn  Zn90  1  0.12445047  0.12545827  0.50041152  1
  Zn  Zn91  1  0.12378487  0.00007330  0.12520086  1
  Zn  Zn92  1  0.12378788  0.61455062  0.48727226  1
  Zn  Zn93  1  0.88887016  0.52349869  0.35814913  1
  Zn  Zn94  1  0.36672859  0.25529117  0.12915952  1
  Zn  Zn95  1  0.76413614  0.62937999  0.36358491  1
  Zn  Zn96  1  0.24825077  0.87359983  0.12257670  1
  Zn  Zn97  1  0.24820788  0.12349613  0.37656011  1
  Zn  Zn98  1  0.13140669  0.49301330  0.11971619  1
  Zn  Zn99  1  0.62542066  0.50081810  0.62294196  1
  Zn  Zn100  1  0.62104270  0.24676880  0.87081563  1
  Zn  Zn101  1  0.37030299  -0.00403414  0.38381381  1
  Zn  Zn102  1  0.88744035  0.76118158  0.62889432  1
  Zn  Zn103  1  0.25837890  0.12828908  0.87142347  1
  Zn  Zn104  1  0.63115922  0.46781104  0.13525412  1
  Zn  Zn105  1  0.11338094  0.37087826  0.74475810  1
  Zn  Zn106  1  -0.01566048  0.37008108  0.86335951  1
  Zn  Zn107  1  0.18546975  0.18600722  0.18859201  1
  Zn  Zn108  1  0.18674675  0.18623461  0.68293392  1
  Zn  Zn109  1  0.18253204  0.68439874  0.18313651  1
  Zn  Zn110  1  0.18867914  0.68565252  0.68547500  1
  Zn  Zn111  1  0.68364488  0.18636070  0.18827806  1
  Zn  Zn112  1  0.68342078  0.18819209  0.68843278  1
  Zn  Zn113  1  0.68606010  0.67671810  0.19276737  1
  Zn  Zn114  1  0.69135278  0.68907458  0.68846137  1
  Zn  Zn115  1  0.30975011  0.31891070  0.31153143  1
  Zn  Zn116  1  0.30904761  0.31214002  0.81693698  1
  Zn  Zn117  1  0.31253024  0.81042420  0.31217520  1
  Zn  Zn118  1  0.31141612  0.81256059  0.81019635  1
  Zn  Zn119  1  0.81512816  0.31609602  0.30979029  1
  Zn  Zn120  1  0.80875025  0.31460976  0.81371993  1
  Zn  Zn121  1  0.81435451  0.80913618  0.31182495  1
  Zn  Zn122  1  0.81510829  0.81480263  0.81398043  1
  Zn  Zn123  1  0.19009739  0.43488349  0.43158304  1
  Zn  Zn124  1  0.18551774  0.43767670  0.93543723  1
  Zn  Zn125  1  0.18509327  0.93413561  0.43762259  1
  Zn  Zn126  1  0.18759961  0.93648739  0.93331197  1
  Zn  Zn127  1  0.69565047  0.44303309  0.42868522  1
  Zn  Zn128  1  0.67917383  0.44108125  0.93677248  1
  Zn  Zn129  1  0.68427691  0.93583028  0.43793897  1
  Zn  Zn130  1  0.68441680  0.94298724  0.93695167  1
  Zn  Zn131  1  0.31136775  0.06208835  0.06467786  1
  Zn  Zn132  1  0.31392637  0.06761649  0.56762319  1
  Zn  Zn133  1  0.31323890  0.56125375  0.06378823  1
  Zn  Zn134  1  0.31278906  0.56293263  0.56267646  1
  Zn  Zn135  1  0.81387058  0.06378603  0.06282481  1
  Zn  Zn136  1  0.81214486  0.06489661  0.56215025  1
  Zn  Zn137  1  0.81245859  0.55838288  0.07110279  1
  Zn  Zn138  1  0.81692217  0.56569971  0.56327246  1
  Zn  Zn139  1  0.43612440  0.43856705  0.18409629  1
  Zn  Zn140  1  0.43646631  0.43742079  0.68388808  1
  Zn  Zn141  1  0.43792431  0.93263298  0.18872036  1
  Zn  Zn142  1  0.43869214  0.93813629  0.69029893  1
  Zn  Zn143  1  0.93891746  0.43322390  0.18688485  1
  Zn  Zn144  1  0.93731900  0.44225512  0.68389724  1
  Zn  Zn145  1  0.93292243  0.93688762  0.18899560  1
  Zn  Zn146  1  0.94074002  0.93980364  0.69308600  1
  Zn  Zn147  1  0.06466424  0.06380326  0.31378912  1
  Zn  Zn148  1  0.06798573  0.05475508  0.81459648  1
  Zn  Zn149  1  0.06385916  0.55597786  0.30808477  1
  Zn  Zn150  1  0.06135654  0.56097251  0.80877335  1
  Zn  Zn151  1  0.56306430  0.06202657  0.31334967  1
  Zn  Zn152  1  0.56387184  0.06213087  0.81531972  1
  Zn  Zn153  1  0.56874944  0.56250413  0.31094204  1
  Zn  Zn154  1  0.56693858  0.55948524  0.81121109  1
  Zn  Zn155  1  0.43565152  0.18770968  0.43841778  1
  Zn  Zn156  1  0.43652655  0.18821736  0.93696610  1
  Zn  Zn157  1  0.43886457  0.68944301  0.43936185  1
  Zn  Zn158  1  0.43722895  0.68846649  0.93805450  1
  Zn  Zn159  1  0.93368788  0.18773149  0.44871361  1
  Zn  Zn160  1  0.93488074  0.18994131  0.94314226  1
  Zn  Zn161  1  0.94132963  0.68828172  0.44127933  1
  Zn  Zn162  1  0.93123752  0.68564627  0.94352922  1
  Zn  Zn163  1  0.06088572  0.31091463  0.05793854  1
  Zn  Zn164  1  0.06171560  0.30913338  0.56511218  1
  Zn  Zn165  1  0.05794052  0.81060684  0.06104830  1
  Zn  Zn166  1  0.06737429  0.81338876  0.56204095  1
  Zn  Zn167  1  0.55643759  0.31261543  0.05756647  1
  Zn  Zn168  1  0.56425613  0.31611943  0.55933011  1
  Zn  Zn169  1  0.56353517  0.80978033  0.06211111  1
  Zn  Zn170  1  0.56693805  0.81579561  0.56349613  1
  O  O171  1  0.11383105  0.12408793  0.11601978  1
  O  O172  1  0.11357098  0.11848787  0.62196706  1
  O  O173  1  0.11426405  0.62221380  0.11029163  1
  O  O174  1  0.11490033  0.61954350  0.62751551  1
  O  O175  1  0.61847699  0.11542490  0.12006287  1
  O  O176  1  0.63592626  0.11514547  0.61194224  1
  O  O177  1  0.61265331  0.63510610  0.11278285  1
  O  O178  1  0.62061209  0.62665923  0.61633955  1
  O  O179  1  0.38370451  0.38210095  0.38119928  1
  O  O180  1  0.38265235  0.37290542  0.88421440  1
  O  O181  1  0.38904441  0.87537071  0.37197290  1
  O  O182  1  0.38268826  0.87335659  0.88071213  1
  O  O183  1  0.88001524  0.36562491  0.39175567  1
  O  O184  1  0.87242075  0.36509524  0.89458758  1
  O  O185  1  0.88709276  0.88390661  0.36830554  1
  O  O186  1  0.88187133  0.88399882  0.88280727  1
  O  O187  1  0.25084154  -0.00130005  0.36528849  1
  O  O188  1  0.25368612  0.00156971  0.86457477  1
  O  O189  1  0.25930144  0.49625696  0.36347024  1
  O  O190  1  0.24520211  0.51156579  0.86461449  1
  O  O191  1  0.75471961  0.00580268  0.37219855  1
  O  O192  1  0.75669358  0.00653796  0.86828447  1
  O  O193  1  0.76173675  0.50781962  0.36593341  1
  O  O194  1  0.74266698  0.51042534  0.86466532  1
  O  O195  1  0.25056104  0.50094890  0.13790458  1
  O  O196  1  0.24378697  0.49629817  0.63204824  1
  O  O197  1  0.24602066  0.99575572  0.13742768  1
  O  O198  1  0.24686195  0.99265593  0.62902002  1
  O  O199  1  0.74502596  0.49823081  0.13720562  1
  O  O200  1  0.74962596  0.49147370  0.63111240  1
  O  O201  1  0.74253333  1.00984731  0.13720927  1
  O  O202  1  0.74414180  0.99627968  0.63059451  1
  O  O203  1  0.02040783  0.37989596  0.25227789  1
  O  O204  1  0.00266343  0.38887227  0.75560118  1
  O  O205  1  0.00698642  0.86912016  0.25700693  1
  O  O206  1  0.00911256  0.88026349  0.76105230  1
  O  O207  1  0.48786720  0.36550245  0.26239204  1
  O  O208  1  0.50888842  0.38953182  0.75856088  1
  O  O209  1  0.50464581  0.86282852  0.25718305  1
  O  O210  1  0.50812558  0.86890194  0.75566414  1
  O  O211  1  0.49213919  0.13110492  0.24871708  1
  O  O212  1  0.51993932  0.12445454  0.73849366  1
  O  O213  1  0.50671811  0.63700765  0.24062598  1
  O  O214  1  0.49462003  0.62755929  0.74613638  1
  O  O215  1  1.00094857  0.11661314  0.23228678  1
  O  O216  1  1.00055549  0.11104174  0.73909133  1
  O  O217  1  1.01031077  0.63514313  0.23699188  1
  O  O218  1  0.98900091  0.62095016  0.74345353  1
  O  O219  1  0.36496601  0.25669076  0.00092130  1
  O  O220  1  0.36834891  0.25478385  0.50717690  1
  O  O221  1  0.36590257  0.75351510  0.00659966  1
  O  O222  1  0.36825589  0.74525127  0.51206420  1
  O  O223  1  0.87552692  0.26166557  0.01224362  1
  O  O224  1  0.86707900  0.25941339  0.51097475  1
  O  O225  1  0.87638844  0.75965285  0.01350949  1
  O  O226  1  0.86328555  0.75045641  0.50694183  1
  O  O227  1  0.13231402  0.25082715  0.48892940  1
  O  O228  1  0.13043135  0.24271176  0.99214843  1
  O  O229  1  0.13260803  0.75019920  0.48968931  1
  O  O230  1  0.13477560  0.74036261  1.00563470  1
  O  O231  1  0.62836701  0.24300499  0.49194066  1
  O  O232  1  0.61774900  0.23402142  0.99900117  1
  O  O233  1  0.63214683  0.74488582  0.49423744  1
  O  O234  1  0.61947223  0.73885856  0.98942471  1
  O  O235  1  0.49408804  0.23830489  0.13582787  1
  O  O236  1  0.48539280  0.26013402  0.61998833  1
  O  O237  1  0.49286573  0.74458477  0.13120245  1
  O  O238  1  0.49497115  0.74798420  0.62967520  1
  O  O239  1  0.99765749  0.23665591  0.12098990  1
  O  O240  1  0.99206772  0.23639895  0.62047353  1
  O  O241  1  0.99615664  0.74168840  0.13172716  1
  O  O242  1  1.00433727  0.73911231  0.62533692  1
  O  O243  1  0.01108106  0.24778985  0.38160613  1
  O  O244  1  0.01394635  0.24887138  0.88233159  1
  O  O245  1  0.00743994  0.75887265  0.36810924  1
  O  O246  1  -0.00650031  0.76199543  0.88274736  1
  O  O247  1  0.50477543  0.25743857  0.36930562  1
  O  O248  1  0.50259150  0.26506276  0.87817882  1
  O  O249  1  0.50538617  0.75516415  0.36976829  1
  O  O250  1  0.50975176  0.75305920  0.87005187  1
  O  O251  1  0.24759776  0.13457524  0.49852730  1
  O  O252  1  0.24005063  0.12967601  0.99944738  1
  O  O253  1  0.24372822  0.63966453  0.50865122  1
  O  O254  1  0.24335253  0.62778840  0.99311231  1
  O  O255  1  0.74177148  0.12875352  0.48932391  1
  O  O256  1  0.73960122  0.11611214  0.99229866  1
  O  O257  1  0.74184300  0.63648034  0.50440315  1
  O  O258  1  0.73932032  0.61278731  0.99216120  1
  O  O259  1  0.25835978  0.36846561  -0.00769376  1
  O  O260  1  0.25611588  0.36751854  0.50425084  1
  O  O261  1  0.25242699  0.86512253  0.00005417  1
  O  O262  1  0.24471813  0.86707498  0.51435300  1
  O  O263  1  0.75720216  0.38304674  0.00084667  1
  O  O264  1  0.75356829  0.37122404  0.50750420  1
  O  O265  1  0.76184859  0.88231548  -0.00385558  1
  O  O266  1  0.74344521  0.86857022  0.51035311  1
  O  O267  1  0.13657166  0.48801591  0.24681200  1
  O  O268  1  0.13733766  0.50272252  0.73954900  1
  O  O269  1  0.13197913  0.99136677  0.25074278  1
  O  O270  1  0.13481244  0.98958829  0.74382547  1
  O  O271  1  0.63838765  0.50222792  0.24986914  1
  O  O272  1  0.63623781  0.49264305  0.74485222  1
  O  O273  1  0.63211531  0.99969930  0.24304966  1
  O  O274  1  0.63577661  0.99267594  0.74360269  1
  O  O275  1  0.36760553  0.00491626  0.25178467  1
  O  O276  1  0.36655165  0.00341120  0.74876385  1
  O  O277  1  0.36159238  0.49414601  0.25553560  1
  O  O278  1  0.36370408  0.51226042  0.73991508  1
  O  O279  1  0.86834008  0.00612413  0.26087401  1
  O  O280  1  0.86595652  -0.00352032  0.76328863  1
  O  O281  1  0.86327793  0.49283300  0.24613196  1
  O  O282  1  0.86173056  0.51199875  0.74425428  1
  O  O283  1  0.12160958  0.36159687  0.37176386  1
  O  O284  1  0.12336485  0.36033319  0.87415279  1
  O  O285  1  0.11610406  0.86809817  0.36514964  1
  O  O286  1  0.11390419  0.88007193  0.86697091  1
  O  O287  1  0.61467708  0.36435641  0.38347349  1
  O  O288  1  0.61687284  0.37353418  0.86676801  1
  O  O289  1  0.61616617  0.86398460  0.37381647  1
  O  O290  1  0.62249516  0.86666795  0.87255174  1
  O  O291  1  0.37898271  0.12429677  0.13826942  1
  O  O292  1  0.37439018  0.14278383  0.62942059  1
  O  O293  1  0.38648563  0.63698633  0.11672749  1
  O  O294  1  0.38045174  0.63476499  0.63329225  1
  O  O295  1  0.88597733  0.13629310  0.12041547  1
  O  O296  1  0.88180793  0.13374809  0.61978588  1
  O  O297  1  0.88665585  0.63974082  0.11338153  1
  O  O298  1  0.88973639  0.62713179  0.63075611  1
  O  O299  1  0.24749799  0.24487648  0.11053328  1
  O  O300  1  0.25202506  0.25605295  0.61384269  1
  O  O301  1  0.25700985  0.74692800  0.11583973  1
  O  O302  1  0.25698123  0.75698749  0.61943947  1
  O  O303  1  0.75933394  0.24204127  0.12413042  1
  O  O304  1  0.75468802  0.25848254  0.62072178  1
  O  O305  1  0.76535456  0.74496371  0.13483442  1
  O  O306  1  0.74854326  0.76177256  0.61868760  1
  O  O307  1  0.24573115  0.25100831  0.38654264  1
  O  O308  1  0.23811342  0.24616599  0.88601214  1
  O  O309  1  0.24174211  0.76003710  0.38575612  1
  O  O310  1  0.25447646  0.73845887  0.88534517  1
  O  O311  1  0.74238901  0.24341427  0.37771432  1
  O  O312  1  0.74727794  0.23314384  0.86826787  1
  O  O313  1  0.74179319  0.75373700  0.38367197  1
  O  O314  1  0.73924197  0.74035239  0.87021971  1
  O  O315  1  0.00701575  0.11706593  0.00841047  1
  O  O316  1  0.00139886  0.11034811  0.50503310  1
  O  O317  1  0.00380937  0.61557661  0.00331633  1
  O  O318  1  0.00553292  0.62809512  0.51554593  1
  O  O319  1  0.50557286  0.11770974  0.00643856  1
  O  O320  1  0.51239969  0.11639520  0.49197389  1
  O  O321  1  0.50605687  0.61934302  0.00360668  1
  O  O322  1  0.51033281  0.62362773  0.50517034  1
  O  O323  1  0.49591672  0.38284200  0.48936305  1
  O  O324  1  0.49240175  0.38337539  0.98792554  1
  O  O325  1  0.50746880  0.88354836  0.49081176  1
  O  O326  1  0.49468628  0.87751925  0.99601705  1
  O  O327  1  0.98662467  0.37326075  0.50501449  1
  O  O328  1  1.00007004  0.38648645  0.99610803  1
  O  O329  1  1.00632295  0.88510460  0.48890813  1
  O  O330  1  0.99642278  0.88340613  0.99332274  1
  O  O331  1  0.49385014  0.49441017  0.37556114  1
  O  O332  1  0.50495526  0.49425022  0.88505982  1
  O  O333  1  0.50200045  0.99075255  0.38249944  1
  O  O334  1  0.50226576  0.98973551  0.88386875  1
  O  O335  1  0.99834379  0.50125755  0.37831538  1
  O  O336  1  0.99976334  0.50318793  0.89084365  1
  O  O337  1  0.99400063  0.99505236  0.38008390  1
  O  O338  1  0.99194697  0.99751676  0.88616711  1
  O  O339  1  -0.00316102  0.00654984  0.11415516  1
  O  O340  1  0.00178143  0.00341097  0.61723790  1
  O  O341  1  0.00197906  0.50837029  0.11533647  1
  O  O342  1  0.01160336  0.51347836  0.62722090  1
  O  O343  1  0.50769849  0.00315392  0.12306988  1
  O  O344  1  0.51406643  -0.01125572  0.61670189  1
  O  O345  1  0.49850231  0.51371872  0.11894809  1
  O  O346  1  0.50145451  0.50701428  0.61448798  1
  O  O347  1  0.23515070  0.38200135  0.25299515  1
  O  O348  1  0.24818706  0.38588979  0.74586085  1
  O  O349  1  0.24104321  0.88011360  0.24910482  1
  O  O350  1  0.24504845  0.88236181  0.74173863  1
  O  O351  1  0.74512190  0.38823666  0.26084889  1
  O  O352  1  0.74481728  0.38384598  0.74304880  1
  O  O353  1  0.74870959  0.88980859  0.25759367  1
  O  O354  1  0.74656910  0.88476312  0.74474149  1
  O  O355  1  0.25634564  0.11570827  0.25078408  1
  O  O356  1  0.24432039  0.10997817  0.74787842  1
  O  O357  1  0.23931673  0.60959007  0.24987877  1
  O  O358  1  0.25648318  0.62054481  0.75583181  1
  O  O359  1  0.74845109  0.11714101  0.26372783  1
  O  O360  1  0.74201885  0.11248594  0.75870150  1
  O  O361  1  0.75028640  0.61012739  0.25164750  1
  O  O362  1  0.75468609  0.61868016  0.75661524  1
  O  O363  1  0.37344510  0.12116537  0.36380957  1
  O  O364  1  0.37576474  0.12378322  0.86552159  1
  O  O365  1  0.38182072  0.61347211  0.37595462  1
  O  O366  1  0.36728660  0.62951594  0.86338112  1
  O  O367  1  0.86617529  0.11951024  0.37633302  1
  O  O368  1  0.86699797  0.11251443  0.88816422  1
  O  O369  1  0.87686101  0.63604757  0.37110909  1
  O  O370  1  0.86218806  0.63081037  0.86953912  1
  O  O371  1  0.12357474  0.36997821  0.13517563  1
  O  O372  1  0.13022566  0.38212314  0.62563155  1
  O  O373  1  0.12293956  0.87524981  0.13657584  1
  O  O374  1  0.13254965  0.88061998  0.63289099  1
  O  O375  1  0.59582574  0.36514221  0.14255169  1
  O  O376  1  0.63494254  0.37733319  0.62887281  1
  O  O377  1  0.62264406  0.88816027  0.12366410  1
  O  O378  1  0.63607956  0.88466013  0.63112666  1
  O  O379  1  0.13185462  0.25821143  0.26319400  1
  O  O380  1  0.13144999  0.24803902  0.76507713  1
  O  O381  1  0.11844415  0.75748851  0.25445999  1
  O  O382  1  0.13445227  0.76430310  0.74780063  1
  O  O383  1  0.61225625  0.23958062  0.26308185  1
  O  O384  1  0.63078611  0.26855384  0.74967714  1
  O  O385  1  0.61796282  0.75002504  0.25922802  1
  O  O386  1  0.62101532  0.75305480  0.75888686  1
  O  O387  1  0.38105797  0.24231598  0.25115363  1
  O  O388  1  0.36919130  0.25476373  0.73522152  1
  O  O389  1  0.38341154  0.75326960  0.24005866  1
  O  O390  1  0.38017257  0.74083180  0.74164144  1
  O  O391  1  0.87291012  0.24909374  0.23432478  1
  O  O392  1  0.86998854  0.25765251  0.73517017  1
  O  O393  1  0.88798884  0.75903143  0.23660089  1
  O  O394  1  0.86622913  0.73760424  0.74483262  1
  O  O395  1  0.37926632  0.49726904  0.49187717  1
  O  O396  1  0.38509895  0.49431527  1.00263653  1
  O  O397  1  0.39094307  1.00847537  0.50270844  1
  O  O398  1  0.38064731  0.99233906  1.00119597  1
  O  O399  1  0.86955446  0.48423480  0.50179900  1
  O  O400  1  0.88558930  0.48467576  1.00982289  1
  O  O401  1  0.88141504  1.00257894  0.48756237  1
  O  O402  1  0.88199119  0.99255340  0.99539789  1
  O  O403  1  0.11753795  0.00702103  0.00044762  1
  O  O404  1  0.11600282  0.00033900  0.50562883  1
  O  O405  1  0.11489347  0.50543530  0.00171446  1
  O  O406  1  0.13738970  0.50109418  0.51221441  1
  O  O407  1  0.61911608  0.00706156  0.00910760  1
  O  O408  1  0.61884328  0.00652494  0.50701119  1
  O  O409  1  0.61265314  0.50853207  0.00662572  1
  O  O410  1  0.62188910  0.51263678  0.49606499  1
  O  O411  1  0.38358388  0.37119862  0.10658947  1
  O  O412  1  0.36782141  0.36854433  0.61835411  1
  O  O413  1  0.37355602  0.86227848  0.11816983  1
  O  O414  1  0.36647401  0.86364041  0.63318117  1
  O  O415  1  0.87823275  0.36068738  0.11551572  1
  O  O416  1  0.86667151  0.37001417  0.61670507  1
  O  O417  1  0.88022321  0.86315650  0.11706730  1
  O  O418  1  0.86277771  0.87838076  0.63191636  1
  O  O419  1  0.12754304  0.13905152  0.37487995  1
  O  O420  1  0.12408424  0.13189667  0.88493541  1
  O  O421  1  0.11900281  0.64079189  0.37170741  1
  O  O422  1  0.13271028  0.62144071  0.88523752  1
  O  O423  1  0.63124400  0.13246672  0.38297863  1
  O  O424  1  0.63364284  0.12259642  0.88667718  1
  O  O425  1  0.62209119  0.63910729  0.38634395  1
  O  O426  1  0.63226261  0.63017363  0.88242393  1
