# generated using pymatgen
data_V85Zn86O256
_symmetry_space_group_name_H-M   'P 1'
_cell_length_a   16.98886511
_cell_length_b   16.96756257
_cell_length_c   16.98653717
_cell_angle_alpha   89.97575485
_cell_angle_beta   90.06558192
_cell_angle_gamma   89.91461194
_symmetry_Int_Tables_number   1
_chemical_formula_structural   V85Zn86O256
_chemical_formula_sum   'V85 Zn86 O256'
_cell_volume   4896.52386057
_cell_formula_units_Z   1
loop_
 _symmetry_equiv_pos_site_id
 _symmetry_equiv_pos_as_xyz
  1  'x, y, z'
loop_
 _atom_site_type_symbol
 _atom_site_label
 _atom_site_symmetry_multiplicity
 _atom_site_fract_x
 _atom_site_fract_y
 _atom_site_fract_z
 _atom_site_occupancy
  V  V0  1  0.37858037  0.25372129  0.63351869  1
  V  V1  1  0.88290066  0.24884700  0.13243554  1
  V  V2  1  0.62835597  -0.00369505  0.12686423  1
  V  V3  1  0.25350528  0.37487771  0.12535903  1
  V  V4  1  0.24578756  0.49900268  0.24507069  1
  V  V5  1  0.37140664  0.49889310  0.37406417  1
  V  V6  1  0.87695969  0.12759414  0.74292827  1
  V  V7  1  0.12199655  0.12586197  0.50123932  1
  V  V8  1  0.50415472  0.61488284  0.12325602  1
  V  V9  1  0.49711579  0.24973739  0.24681428  1
  V  V10  1  0.87675794  0.37648398  0.50128994  1
  V  V11  1  0.75081851  0.50114211  0.25621636  1
  V  V12  1  -0.00150644  0.37649245  0.37129947  1
  V  V13  1  0.49713694  -0.00020816  0.50017691  1
  V  V14  1  0.75006663  0.49813363  0.75080025  1
  V  V15  1  0.00722194  0.61477760  0.12719908  1
  V  V16  1  0.74526728  -0.00989225  0.75083094  1
  V  V17  1  0.12223497  0.12515252  -0.00102784  1
  V  V18  1  0.62668764  0.25020362  0.37600959  1
  V  V19  1  0.25524059  0.24695400  0.00723447  1
  V  V20  1  0.63717240  0.63015018  0.49253900  1
  V  V21  1  0.25003975  0.25220075  0.49997897  1
  V  V22  1  0.87799183  -0.00756762  0.87479601  1
  V  V23  1  0.49805696  0.63920142  0.62800969  1
  V  V24  1  0.24481797  0.63595506  0.37829321  1
  V  V25  1  0.78167891  0.76238601  0.46640926  1
  V  V26  1  0.24998449  0.87310202  0.12504729  1
  V  V27  1  0.12661938  0.63946634  0.49761777  1
  V  V28  1  0.25079371  0.12568084  0.87404980  1
  V  V29  1  0.74980646  0.25063553  -0.00131315  1
  V  V30  1  0.12040426  0.87765364  0.75639376  1
  V  V31  1  0.75419129  0.24924124  0.50469231  1
  V  V32  1  0.00783192  0.75393697  0.24862556  1
  V  V33  1  0.24976349  -0.00031491  0.25048688  1
  V  V34  1  0.24966980  0.38284857  0.62852687  1
  V  V35  1  -0.01039660  -0.01413990  0.48930769  1
  V  V36  1  0.62387928  -0.00456523  0.62683344  1
  V  V37  1  0.87943843  0.37936281  -0.01226011  1
  V  V38  1  0.37981616  0.37579140  0.49934384  1
  V  V39  1  0.24945430  0.12587123  0.37437162  1
  V  V40  1  0.37004188  0.86228079  0.50298844  1
  V  V41  1  0.49938633  0.75111374  0.24625801  1
  V  V42  1  0.75702796  0.11940691  0.37471565  1
  V  V43  1  0.50273872  0.50283775  0.49647966  1
  V  V44  1  0.87562110  0.87092220  0.00637921  1
  V  V45  1  0.37463807  0.00119449  0.37761833  1
  V  V46  1  0.62505584  0.12380983  0.50041942  1
  V  V47  1  0.49881590  0.12887794  0.63124363  1
  V  V48  1  0.11985194  0.25109062  0.37026939  1
  V  V49  1  0.75838139  0.00168783  0.25280093  1
  V  V50  1  0.25142313  0.86165574  0.62366459  1
  V  V51  1  0.62191252  0.75249856  0.86707167  1
  V  V52  1  0.37522699  0.74763239  0.12138922  1
  V  V53  1  0.50630792  0.49620212  -0.00904024  1
  V  V54  1  0.49648173  0.12702634  0.12580805  1
  V  V55  1  0.74812557  0.12183766  0.87484151  1
  V  V56  1  0.62726112  0.50024934  0.62417637  1
  V  V57  1  0.74977776  0.38045044  0.12555093  1
  V  V58  1  0.00280307  0.49885969  -0.01180038  1
  V  V59  1  0.37645102  -0.00156810  0.87078432  1
  V  V60  1  0.37825213  0.37324735  -0.00052708  1
  V  V61  1  0.12105133  0.37538632  0.24505290  1
  V  V62  1  0.74717933  0.86790082  0.62594456  1
  V  V63  1  0.37520873  0.12669776  0.24927005  1
  V  V64  1  0.12518884  -0.00229409  0.12500459  1
  V  V65  1  0.12452900  0.00408325  0.62455202  1
  V  V66  1  0.62487967  0.38049265  0.24466394  1
  V  V67  1  0.00088071  -0.00818300  -0.00195246  1
  V  V68  1  0.61846292  0.25951794  0.86085200  1
  V  V69  1  0.62559925  0.12616541  -0.00082171  1
  V  V70  1  0.87653442  0.62012383  0.75563245  1
  V  V71  1  0.12464792  0.87240817  0.26244166  1
  V  V72  1  0.25071166  0.62057177  0.86873647  1
  V  V73  1  0.75180551  0.62086615  0.87711956  1
  V  V74  1  0.13132483  0.50234380  0.62657248  1
  V  V75  1  0.50269204  0.87063144  0.86222001  1
  V  V76  1  -0.00033529  0.62535744  0.62204576  1
  V  V77  1  -0.00001405  0.75599817  0.75933069  1
  V  V78  1  0.87268245  0.75438684  0.62852319  1
  V  V79  1  0.50222064  -0.00229158  -0.00022128  1
  V  V80  1  0.37606042  0.87382191  -0.00054598  1
  V  V81  1  0.75278093  0.74864675  0.00803778  1
  V  V82  1  0.75202306  0.37434382  0.62578964  1
  V  V83  1  0.87043077  0.63123478  0.24786813  1
  V  V84  1  0.62181502  0.74586497  0.37341059  1
  Zn  Zn85  1  0.11281911  0.38279056  0.75818185  1
  Zn  Zn86  1  0.37436251  0.63474171  0.74551177  1
  Zn  Zn87  1  -0.00140679  0.26118903  0.74789224  1
  Zn  Zn88  1  0.88762714  0.12482090  0.25913257  1
  Zn  Zn89  1  0.37580958  0.13123192  0.75264488  1
  Zn  Zn90  1  0.75291327  0.86952354  0.12907525  1
  Zn  Zn91  1  0.13071563  0.62236140  0.00442795  1
  Zn  Zn92  1  0.62699569  0.87530866  0.25436299  1
  Zn  Zn93  1  -0.00049020  0.50440165  0.49743440  1
  Zn  Zn94  1  0.37245853  0.49590265  0.86019945  1
  Zn  Zn95  1  0.24323941  0.74747799  -0.00039262  1
  Zn  Zn96  1  0.10831232  0.26542592  0.87740562  1
  Zn  Zn97  1  0.44835176  0.32447320  0.81410263  1
  Zn  Zn98  1  0.62989302  0.61979304  0.00376494  1
  Zn  Zn99  1  -0.00951520  0.13249535  0.61864380  1
  Zn  Zn100  1  0.00372230  0.12812278  0.13217984  1
  Zn  Zn101  1  0.12321341  0.75188268  0.88272114  1
  Zn  Zn102  1  0.49662885  0.87464611  0.37578306  1
  Zn  Zn103  1  0.24882688  0.00125046  0.74815394  1
  Zn  Zn104  1  0.37258266  0.62338987  0.24880117  1
  Zn  Zn105  1  0.50018029  0.37521612  0.37224823  1
  Zn  Zn106  1  0.87268732  0.50785495  0.37710736  1
  Zn  Zn107  1  0.18596182  0.18815650  0.18674802  1
  Zn  Zn108  1  0.18579221  0.19582869  0.69011543  1
  Zn  Zn109  1  0.18756222  0.68453693  0.18649828  1
  Zn  Zn110  1  0.18301394  0.68835485  0.69150468  1
  Zn  Zn111  1  0.69018640  0.18808145  0.18703797  1
  Zn  Zn112  1  0.69247280  0.18092615  0.68769038  1
  Zn  Zn113  1  0.68371428  0.68309684  0.18759788  1
  Zn  Zn114  1  0.68400381  0.68390378  0.68751741  1
  Zn  Zn115  1  0.31035520  0.31173582  0.31260184  1
  Zn  Zn116  1  0.26755822  0.33834577  0.83535889  1
  Zn  Zn117  1  0.31530471  0.81542615  0.31140698  1
  Zn  Zn118  1  0.30989769  0.80363290  0.80969429  1
  Zn  Zn119  1  0.81290629  0.31238934  0.31406703  1
  Zn  Zn120  1  0.80936291  0.31040517  0.81141386  1
  Zn  Zn121  1  0.81302452  0.80866383  0.30057420  1
  Zn  Zn122  1  0.81078289  0.80922633  0.81653322  1
  Zn  Zn123  1  0.18496738  0.44352828  0.44145707  1
  Zn  Zn124  1  0.18588595  0.44590341  0.94434276  1
  Zn  Zn125  1  0.18808300  0.93761947  0.44218515  1
  Zn  Zn126  1  0.19068190  0.93709188  0.93915960  1
  Zn  Zn127  1  0.68683198  0.43594461  0.43679918  1
  Zn  Zn128  1  0.68881645  0.43557617  0.93681497  1
  Zn  Zn129  1  0.68564239  0.93241002  0.43738563  1
  Zn  Zn130  1  0.68843932  0.93319492  0.93881061  1
  Zn  Zn131  1  0.31384133  0.05911515  0.06215408  1
  Zn  Zn132  1  0.31102831  0.06255846  0.56341922  1
  Zn  Zn133  1  0.31662469  0.56103799  0.05572861  1
  Zn  Zn134  1  0.31381486  0.56849374  0.56052630  1
  Zn  Zn135  1  0.81368143  0.06279897  0.06294930  1
  Zn  Zn136  1  0.81076290  0.05557169  0.56059926  1
  Zn  Zn137  1  0.81929118  0.56192455  0.06657524  1
  Zn  Zn138  1  0.81274844  0.56921851  0.55943345  1
  Zn  Zn139  1  0.43459980  0.43559418  0.18425406  1
  Zn  Zn140  1  0.43547916  0.45396020  0.68642696  1
  Zn  Zn141  1  0.43763096  0.93796065  0.18764513  1
  Zn  Zn142  1  0.43524220  0.93466782  0.68448825  1
  Zn  Zn143  1  0.93446624  0.43958444  0.18513077  1
  Zn  Zn144  1  0.93696193  0.43834865  0.68718463  1
  Zn  Zn145  1  0.94048203  0.93856545  0.18521693  1
  Zn  Zn146  1  0.93773009  0.94130942  0.68107566  1
  Zn  Zn147  1  0.05888816  0.05832608  0.31303109  1
  Zn  Zn148  1  0.06050270  0.06499561  0.81468315  1
  Zn  Zn149  1  0.06297982  0.56200098  0.31328550  1
  Zn  Zn150  1  0.06745713  0.56569056  0.81245064  1
  Zn  Zn151  1  0.56551744  0.06157396  0.31319457  1
  Zn  Zn152  1  0.56349156  0.06231580  0.81265367  1
  Zn  Zn153  1  0.56050607  0.56321564  0.30960988  1
  Zn  Zn154  1  0.56443034  0.56229499  0.81107564  1
  Zn  Zn155  1  0.43917808  0.18856043  0.43973646  1
  Zn  Zn156  1  0.43821099  0.18674585  0.93993769  1
  Zn  Zn157  1  0.44006824  0.68228638  0.43765378  1
  Zn  Zn158  1  0.43700238  0.68436893  0.93516870  1
  Zn  Zn159  1  0.93924102  0.18953795  0.43951829  1
  Zn  Zn160  1  0.93553782  0.18647021  0.93622097  1
  Zn  Zn161  1  0.94059949  0.69863901  0.42880715  1
  Zn  Zn162  1  0.93719496  0.68559747  0.94186964  1
  Zn  Zn163  1  0.06439100  0.31572097  0.06012789  1
  Zn  Zn164  1  0.05898428  0.31222990  0.56917566  1
  Zn  Zn165  1  0.05963864  0.80633063  0.06998512  1
  Zn  Zn166  1  0.06103621  0.81439031  0.56892810  1
  Zn  Zn167  1  0.56452885  0.31201527  0.06030134  1
  Zn  Zn168  1  0.56579510  0.31499943  0.67227572  1
  Zn  Zn169  1  0.56483038  0.80886686  0.05612042  1
  Zn  Zn170  1  0.56328101  0.81613502  0.55783838  1
  O  O171  1  0.12828364  0.11811111  0.11364127  1
  O  O172  1  0.13009800  0.12024324  0.61406370  1
  O  O173  1  0.11217732  0.62031515  0.12595082  1
  O  O174  1  0.11872021  0.62277033  0.61820961  1
  O  O175  1  0.61739843  0.11687557  0.12122269  1
  O  O176  1  0.61849291  0.11851336  0.61966276  1
  O  O177  1  0.60953669  0.62588202  0.12138599  1
  O  O178  1  0.62421988  0.61878386  0.61160768  1
  O  O179  1  0.37370068  0.38273274  0.38107117  1
  O  O180  1  0.36852989  0.37436097  0.88174604  1
  O  O181  1  0.37379586  0.88319298  0.38414256  1
  O  O182  1  0.38224496  0.88168617  0.87984699  1
  O  O183  1  0.88353385  0.37474375  0.38160700  1
  O  O184  1  0.86696347  0.37220649  0.89005731  1
  O  O185  1  0.86008086  0.79417765  0.40328756  1
  O  O186  1  0.86854857  0.88636477  0.88479795  1
  O  O187  1  0.25416381  0.00705117  0.36988265  1
  O  O188  1  0.26152999  0.00810474  0.87750844  1
  O  O189  1  0.25707022  0.50369983  0.36695704  1
  O  O190  1  0.25231610  0.51602784  0.88267883  1
  O  O191  1  0.74200817  0.00846859  0.36715852  1
  O  O192  1  0.75418860  0.00096121  0.86868878  1
  O  O193  1  0.75095780  0.49524843  0.36066236  1
  O  O194  1  0.74056212  0.51031494  0.86481245  1
  O  O195  1  0.25703079  0.49100890  0.13638924  1
  O  O196  1  0.24215231  0.49595903  0.61318107  1
  O  O197  1  0.24637861  0.99378599  0.13110793  1
  O  O198  1  0.23729854  0.99794419  0.62683070  1
  O  O199  1  0.75566542  0.48712269  0.13508852  1
  O  O200  1  0.74525601  0.49731981  0.62843324  1
  O  O201  1  0.74075513  1.00359831  0.13292308  1
  O  O202  1  0.74547387  0.98750740  0.63041830  1
  O  O203  1  0.01057291  0.38219223  0.25716431  1
  O  O204  1  -0.00100809  0.37698598  0.75179671  1
  O  O205  1  0.00663201  0.86182712  0.24183056  1
  O  O206  1  0.00781750  0.86736497  0.74003916  1
  O  O207  1  0.50723402  0.36713246  0.24744247  1
  O  O208  1  0.50362504  0.38116371  0.73757409  1
  O  O209  1  0.50101915  0.86244051  0.24941071  1
  O  O210  1  0.49841904  0.87931792  0.76332318  1
  O  O211  1  0.49701846  0.13088519  0.24434617  1
  O  O212  1  0.49709272  0.11809614  0.73534466  1
  O  O213  1  0.49575040  0.63186683  0.24062218  1
  O  O214  1  0.51104284  0.62192902  0.72856167  1
  O  O215  1  0.99901252  0.12193837  0.24525379  1
  O  O216  1  0.98088846  0.11502832  0.74833261  1
  O  O217  1  0.99719403  0.62542348  0.23998731  1
  O  O218  1  0.99374872  0.63237459  0.74308446  1
  O  O219  1  0.36800879  0.25948754  -0.00267659  1
  O  O220  1  0.37105762  0.25852394  0.50504191  1
  O  O221  1  0.37955471  0.75583758  0.01153580  1
  O  O222  1  0.37965852  0.76369986  0.49321316  1
  O  O223  1  0.86985375  0.26125694  0.00652553  1
  O  O224  1  0.86214855  0.25992283  0.49471719  1
  O  O225  1  0.86520576  0.76053498  -0.00919446  1
  O  O226  1  0.87476737  0.73031619  0.52633100  1
  O  O227  1  0.12950343  0.24369312  0.49149704  1
  O  O228  1  0.13347227  0.24072697  0.99852326  1
  O  O229  1  0.12007842  0.73879227  0.50536514  1
  O  O230  1  0.12295026  0.74465711  0.99979407  1
  O  O231  1  0.63836731  0.24304728  0.48664660  1
  O  O232  1  0.63009082  0.24450946  0.99143171  1
  O  O233  1  0.61959835  0.74252587  0.48580514  1
  O  O234  1  0.63645876  0.74422488  0.99135777  1
  O  O235  1  0.50961992  0.23811643  0.13540662  1
  O  O236  1  0.49236942  0.23979921  0.62057080  1
  O  O237  1  0.49374542  0.74281656  0.12854130  1
  O  O238  1  0.51161466  0.73769073  0.62030477  1
  O  O239  1  0.98553865  0.25305205  0.11885828  1
  O  O240  1  0.99999461  0.24354028  0.63247502  1
  O  O241  1  0.99967007  0.73094163  0.13562990  1
  O  O242  1  0.99281953  0.74211489  0.63643291  1
  O  O243  1  0.01063578  0.26174238  0.37987783  1
  O  O244  1  0.00062931  0.23799838  0.86433437  1
  O  O245  1  0.00946053  0.73836589  0.34728083  1
  O  O246  1  -0.00068061  0.74401015  0.86210080  1
  O  O247  1  0.51094175  0.24874666  0.36633119  1
  O  O248  1  0.51270730  0.24653266  0.87382339  1
  O  O249  1  0.50269794  0.74689416  0.36137586  1
  O  O250  1  0.51470431  0.75419547  0.88265777  1
  O  O251  1  0.24111178  0.13056400  0.49391516  1
  O  O252  1  0.24519283  0.12860514  0.99728525  1
  O  O253  1  0.24385440  0.62406115  0.48522286  1
  O  O254  1  0.24838760  0.62755967  0.99453340  1
  O  O255  1  0.74610661  0.12966689  0.49524152  1
  O  O256  1  0.74506956  0.12941964  0.99430018  1
  O  O257  1  0.74428656  0.64638422  0.49926099  1
  O  O258  1  0.75471875  0.62763341  0.99377059  1
  O  O259  1  0.25682709  0.36819186  0.00837253  1
  O  O260  1  0.26012154  0.37250661  0.50307518  1
  O  O261  1  0.25855326  0.87347191  0.00818511  1
  O  O262  1  0.25448397  0.87860194  0.51456523  1
  O  O263  1  0.75948906  0.37382402  0.00753034  1
  O  O264  1  0.75661043  0.36846775  0.50389549  1
  O  O265  1  0.75721803  0.86618719  0.00325557  1
  O  O266  1  0.74775153  0.85672860  0.50674596  1
  O  O267  1  0.13684415  0.48730602  0.25742139  1
  O  O268  1  0.11990299  0.50253159  0.73045514  1
  O  O269  1  0.13090749  0.99151116  0.24481524  1
  O  O270  1  0.12204711  0.99595488  0.74109673  1
  O  O271  1  0.63069411  0.48775823  0.25424523  1
  O  O272  1  0.63970506  0.50956803  0.73607673  1
  O  O273  1  0.63338861  0.99910236  0.24195484  1
  O  O274  1  0.63784160  1.00545334  0.74329884  1
  O  O275  1  0.36975517  0.00554419  0.25635390  1
  O  O276  1  0.37343804  0.00120204  0.76276944  1
  O  O277  1  0.36578381  0.49793074  0.25872211  1
  O  O278  1  0.37585611  0.52076941  0.74970765  1
  O  O279  1  0.86179877  0.00231314  0.24262835  1
  O  O280  1  0.86641677  0.00222394  0.75756378  1
  O  O281  1  0.86620363  0.50590154  0.25272194  1
  O  O282  1  0.86382591  0.51241763  0.74396596  1
  O  O283  1  0.11939929  0.36893997  0.36973055  1
  O  O284  1  0.15872395  0.37016981  0.86645222  1
  O  O285  1  0.13380817  0.87681800  0.36122612  1
  O  O286  1  0.13144123  0.87879677  0.85940476  1
  O  O287  1  0.62409275  0.36577444  0.36535857  1
  O  O288  1  0.63015320  0.35745352  0.87527130  1
  O  O289  1  0.61554053  0.86343354  0.37437917  1
  O  O290  1  0.61839098  0.86160080  0.88043766  1
  O  O291  1  0.38900577  0.11692827  0.13101567  1
  O  O292  1  0.38064832  0.13553061  0.62475835  1
  O  O293  1  0.38292475  0.63325978  0.12523901  1
  O  O294  1  0.39582456  0.62419666  0.61559588  1
  O  O295  1  0.87443810  0.14216173  0.12115380  1
  O  O296  1  0.86912468  0.11686073  0.63992441  1
  O  O297  1  0.88790855  0.61780074  0.14013281  1
  O  O298  1  0.88114319  0.63007832  0.63827844  1
  O  O299  1  0.24856214  0.25598044  0.11484353  1
  O  O300  1  0.25902824  0.25916265  0.61747650  1
  O  O301  1  0.26202393  0.75337155  0.12706321  1
  O  O302  1  0.24321386  0.76347480  0.62611687  1
  O  O303  1  0.75735407  0.25892954  0.11881077  1
  O  O304  1  0.74077683  0.25978340  0.61444337  1
  O  O305  1  0.74347254  0.74843462  0.11238235  1
  O  O306  1  0.75748626  0.75722851  0.63570077  1
  O  O307  1  0.24105849  0.24613067  0.38006365  1
  O  O308  1  0.25258786  0.23418666  0.89092293  1
  O  O309  1  0.25476134  0.73335957  0.36467566  1
  O  O310  1  0.24488134  0.74108737  0.88103172  1
  O  O311  1  0.74302660  0.24301348  0.37973247  1
  O  O312  1  0.73793704  0.24238551  0.87795533  1
  O  O313  1  0.72736471  0.74948484  0.36618028  1
  O  O314  1  0.74115163  0.74178085  0.88388670  1
  O  O315  1  0.01062406  0.11619334  0.00336497  1
  O  O316  1  0.01117642  0.11970408  0.49823277  1
  O  O317  1  -0.00833170  0.61287416  0.01259395  1
  O  O318  1  0.00474533  0.62980012  0.50818219  1
  O  O319  1  0.50464986  0.11906823  0.00871245  1
  O  O320  1  0.50485197  0.11952701  0.50888988  1
  O  O321  1  0.49842742  0.60998458  0.00542992  1
  O  O322  1  0.51255804  0.62005333  0.50530844  1
  O  O323  1  0.48576387  0.38435484  0.49472456  1
  O  O324  1  0.49214607  0.38497756  1.00775535  1
  O  O325  1  0.48757205  0.88351060  0.50150881  1
  O  O326  1  0.49509428  0.88025631  0.99237884  1
  O  O327  1  0.98984916  0.37611504  0.49332515  1
  O  O328  1  0.98981561  0.38516753  1.00141551  1
  O  O329  1  1.00277946  0.88697190  0.50653510  1
  O  O330  1  0.99278802  0.88420293  1.00580550  1
  O  O331  1  0.48799119  0.49998188  0.37692247  1
  O  O332  1  0.49798783  0.50457688  0.88781354  1
  O  O333  1  0.49324367  1.00156908  0.38159164  1
  O  O334  1  0.49557459  0.99289254  0.87984058  1
  O  O335  1  1.00039180  0.48723206  0.37789727  1
  O  O336  1  0.99773676  0.51151458  0.88960638  1
  O  O337  1  1.00519677  0.99675723  0.39017425  1
  O  O338  1  0.98991633  1.00452676  0.88742625  1
  O  O339  1  0.00684792  0.00256523  0.11334900  1
  O  O340  1  0.01163836  0.00672867  0.61524850  1
  O  O341  1  -0.00199516  0.50896744  0.11928302  1
  O  O342  1  0.00464648  0.51557379  0.62147027  1
  O  O343  1  0.50887410  0.00720722  0.12194409  1
  O  O344  1  0.50359235  0.00590337  0.61945966  1
  O  O345  1  0.49054063  0.50813681  0.11495743  1
  O  O346  1  0.51463963  0.50753382  0.61321608  1
  O  O347  1  0.24459504  0.37909932  0.24349757  1
  O  O348  1  0.25390465  0.37720314  0.72810663  1
  O  O349  1  0.24432431  0.87997689  0.24426539  1
  O  O350  1  0.24125094  0.87872956  0.73761658  1
  O  O351  1  0.74376227  0.38029406  0.24459978  1
  O  O352  1  0.76106525  0.38631079  0.73838957  1
  O  O353  1  0.74830749  0.88388904  0.24685762  1
  O  O354  1  0.75324381  0.88292489  0.74393555  1
  O  O355  1  0.25476678  0.12052897  0.25376366  1
  O  O356  1  0.25206674  0.12421572  0.76295370  1
  O  O357  1  0.24882654  0.61465038  0.25934014  1
  O  O358  1  0.24612846  0.63001146  0.76504168  1
  O  O359  1  0.75128511  0.11867835  0.25911094  1
  O  O360  1  0.75825565  0.11065268  0.75410418  1
  O  O361  1  0.76283449  0.61758847  0.24056738  1
  O  O362  1  0.75765665  0.61905393  0.75698114  1
  O  O363  1  0.36891334  0.12196466  0.37034602  1
  O  O364  1  0.37033488  0.11609485  0.87594653  1
  O  O365  1  0.36325417  0.61457422  0.37531532  1
  O  O366  1  0.36053957  0.62594910  0.87654405  1
  O  O367  1  0.86044174  0.13324289  0.37576411  1
  O  O368  1  0.86631241  0.11031899  0.86971814  1
  O  O369  1  0.88589746  0.62254634  0.35380185  1
  O  O370  1  0.86327063  0.63172836  0.86550812  1
  O  O371  1  0.13747059  0.36800616  0.13513934  1
  O  O372  1  0.13554984  0.38765353  0.61485562  1
  O  O373  1  0.13165732  0.88091063  0.13211058  1
  O  O374  1  0.13470436  0.88407021  0.63122938  1
  O  O375  1  0.63666897  0.36609344  0.13561106  1
  O  O376  1  0.64046661  0.38891578  0.61970260  1
  O  O377  1  0.62505381  0.88773932  0.12403612  1
  O  O378  1  0.63780293  0.87962066  0.61935027  1
  O  O379  1  0.13216066  0.26024474  0.26131398  1
  O  O380  1  0.12419111  0.25941934  0.75703489  1
  O  O381  1  0.11692558  0.75936564  0.23923723  1
  O  O382  1  0.11402349  0.76115408  0.75064884  1
  O  O383  1  0.61934120  0.25609163  0.25764973  1
  O  O384  1  0.62728093  0.24938126  0.75614461  1
  O  O385  1  0.61432122  0.74874292  0.25379968  1
  O  O386  1  0.63208461  0.74616480  0.76851498  1
  O  O387  1  0.38906722  0.24493083  0.25758906  1
  O  O388  1  0.37564486  0.25383645  0.73677703  1
  O  O389  1  0.38304852  0.74894886  0.23878373  1
  O  O390  1  0.37966584  0.74551913  0.74796350  1
  O  O391  1  0.87006666  0.25000287  0.23529791  1
  O  O392  1  0.86659223  0.22828000  0.75609760  1
  O  O393  1  0.88576794  0.73704553  0.24453920  1
  O  O394  1  0.88056392  0.74277665  0.74633213  1
  O  O395  1  0.37875377  0.49490557  0.49050012  1
  O  O396  1  0.38346027  0.48590713  0.99423555  1
  O  O397  1  0.37794781  0.99582053  0.49493748  1
  O  O398  1  0.38208946  0.99479315  0.99079192  1
  O  O399  1  0.87387916  0.49258187  0.49503512  1
  O  O400  1  0.88199411  0.48516586  1.00425527  1
  O  O401  1  0.89073273  1.00249082  0.50328624  1
  O  O402  1  0.88079423  0.99386750  0.99412088  1
  O  O403  1  0.11902336  0.00361465  0.00412105  1
  O  O404  1  0.12033341  0.00909449  0.50603937  1
  O  O405  1  0.10587536  0.49927689  0.00398016  1
  O  O406  1  0.12015702  0.51420534  0.50835981  1
  O  O407  1  0.62226387  0.00528994  0.00699012  1
  O  O408  1  0.62001005  0.00424915  0.50608735  1
  O  O409  1  0.61049527  0.49615732  -0.00197967  1
  O  O410  1  0.62669382  0.51009740  0.50280388  1
  O  O411  1  0.36294644  0.37404580  0.11626520  1
  O  O412  1  0.36986513  0.37229846  0.61385468  1
  O  O413  1  0.37134688  0.86800181  0.12053382  1
  O  O414  1  0.35861246  0.88039716  0.61903229  1
  O  O415  1  0.86750176  0.36494689  0.11984315  1
  O  O416  1  0.86292810  0.38341690  0.61167436  1
  O  O417  1  0.87162723  0.88027057  0.11074094  1
  O  O418  1  0.86350858  0.86480150  0.63024187  1
  O  O419  1  0.12948443  0.13301770  0.38130862  1
  O  O420  1  0.13686003  0.11575746  0.88796874  1
  O  O421  1  0.13789373  0.62011263  0.38117764  1
  O  O422  1  0.13607376  0.62712943  0.88026720  1
  O  O423  1  0.63389885  0.13209493  0.37920263  1
  O  O424  1  0.62882302  0.13187401  0.87966086  1
  O  O425  1  0.61849568  0.63122368  0.38270007  1
  O  O426  1  0.63455666  0.63365238  0.87901223  1
