# generated using pymatgen
data_V85Zn86O256
_symmetry_space_group_name_H-M   'P 1'
_cell_length_a   16.95523503
_cell_length_b   16.95829527
_cell_length_c   16.96316493
_cell_angle_alpha   90.08089986
_cell_angle_beta   89.94734064
_cell_angle_gamma   90.00018113
_symmetry_Int_Tables_number   1
_chemical_formula_structural   V85Zn86O256
_chemical_formula_sum   'V85 Zn86 O256'
_cell_volume   4877.44381663
_cell_formula_units_Z   1
loop_
 _symmetry_equiv_pos_site_id
 _symmetry_equiv_pos_as_xyz
  1  'x, y, z'
loop_
 _atom_site_type_symbol
 _atom_site_label
 _atom_site_symmetry_multiplicity
 _atom_site_fract_x
 _atom_site_fract_y
 _atom_site_fract_z
 _atom_site_occupancy
  V  V0  1  0.25502535  0.12534874  0.37160544  1
  V  V1  1  0.12544599  0.24797749  0.37841078  1
  V  V2  1  0.62553905  0.37477773  0.24828277  1
  V  V3  1  0.62438932  0.49868040  0.12400562  1
  V  V4  1  0.62034365  0.61738015  0.49899377  1
  V  V5  1  0.37462587  0.24569401  0.13031637  1
  V  V6  1  0.24902696  0.38412440  0.13304784  1
  V  V7  1  0.11458851  0.50316516  0.61754334  1
  V  V8  1  0.87614240  0.24714963  0.61098018  1
  V  V9  1  0.12324305  0.24984661  0.87667396  1
  V  V10  1  0.87278695  0.74603728  0.11926721  1
  V  V11  1  0.13169215  0.87643886  0.25352230  1
  V  V12  1  0.01073906  0.50539559  0.00880823  1
  V  V13  1  0.61637164  0.25406316  0.87355497  1
  V  V14  1  0.50186859  0.00112223  0.49927453  1
  V  V15  1  0.74950271  0.74889667  0.49740392  1
  V  V16  1  0.24262335  0.87373718  0.62959350  1
  V  V17  1  0.24729382  0.24960129  0.00402780  1
  V  V18  1  0.62551387  0.12501168  -0.00163710  1
  V  V19  1  0.49661406  0.62653017  0.12740281  1
  V  V20  1  0.49707764  -0.00506030  0.00076823  1
  V  V21  1  0.87400451  0.87460301  0.49652337  1
  V  V22  1  0.38001187  0.37743946  0.50862277  1
  V  V23  1  0.62358902  0.74948283  0.37061646  1
  V  V24  1  0.74967625  0.87307533  0.62324384  1
  V  V25  1  0.12396038  0.37559593  0.75124276  1
  V  V26  1  0.37402300  0.00455649  0.36957951  1
  V  V27  1  0.24858137  0.12330959  0.87819706  1
  V  V28  1  0.25715961  0.24947431  0.50791976  1
  V  V29  1  0.74962631  0.37372188  0.12382404  1
  V  V30  1  0.50105100  0.75287886  0.74963969  1
  V  V31  1  0.75060857  0.50053324  0.74996890  1
  V  V32  1  0.49933925  0.87342562  0.37261598  1
  V  V33  1  0.37151734  0.62675163  0.75366555  1
  V  V34  1  0.23980675  0.62155772  0.37727614  1
  V  V35  1  0.63130851  0.00014086  0.13093824  1
  V  V36  1  0.75659109  0.12289347  0.87144305  1
  V  V37  1  0.24099003  0.74612192  0.49793900  1
  V  V38  1  0.86906741  -0.00064910  0.36782512  1
  V  V39  1  0.88080657  0.24469461  0.12289852  1
  V  V40  1  -0.00045208  0.00670624  0.50214167  1
  V  V41  1  -0.00347310  0.24395542  0.74745328  1
  V  V42  1  0.00414814  0.87116434  0.37246207  1
  V  V43  1  0.49648994  0.24547967  0.25224156  1
  V  V44  1  0.75523364  0.00121346  0.75314524  1
  V  V45  1  0.75527610  0.37136581  0.61217147  1
  V  V46  1  0.75276622  0.87539250  0.12929159  1
  V  V47  1  0.86968023  0.12134578  0.24608229  1
  V  V48  1  -0.00869618  0.00245150  -0.00141738  1
  V  V49  1  0.37131622  0.75662939  0.11575150  1
  V  V50  1  -0.00109633  0.37794499  0.38507410  1
  V  V51  1  0.62310858  0.87687552  0.74815006  1
  V  V52  1  0.00614118  0.75808153  0.75044788  1
  V  V53  1  0.63301632  0.12956201  0.49957928  1
  V  V54  1  0.50001046  0.38077411  0.37869670  1
  V  V55  1  0.88019111  0.49599779  0.38141159  1
  V  V56  1  0.75093437  0.24996146  -0.00283226  1
  V  V57  1  0.75166791  0.62330294  0.36554943  1
  V  V58  1  0.87554807  0.37625882  -0.00016997  1
  V  V59  1  0.49886557  0.12457235  0.12648381  1
  V  V60  1  0.12915583  0.38567705  0.24928628  1
  V  V61  1  0.25206240  0.87765982  0.11068833  1
  V  V62  1  0.88100832  0.74249169  0.61920916  1
  V  V63  1  0.11948103  0.12340314  0.01015265  1
  V  V64  1  0.24027631  -0.00591968  0.75500319  1
  V  V65  1  0.50087094  0.61887574  0.62272327  1
  V  V66  1  0.37238517  -0.00143310  0.87932266  1
  V  V67  1  0.49620376  0.87641109  0.87460993  1
  V  V68  1  0.37477814  0.37563125  -0.00080674  1
  V  V69  1  0.87888867  0.50074280  0.87456910  1
  V  V70  1  0.62534518  0.00304290  0.62288833  1
  V  V71  1  0.00461113  0.75112067  0.24484764  1
  V  V72  1  0.24716639  0.50455889  0.75078827  1
  V  V73  1  0.88357910  0.62345859  0.74331135  1
  V  V74  1  0.63342025  0.25082030  0.37795194  1
  V  V75  1  0.00186459  0.24385440  0.24749212  1
  V  V76  1  0.15292437  0.74454840  0.90690995  1
  V  V77  1  0.49731202  0.49687582  -0.00385385  1
  V  V78  1  0.11912420  0.00314702  0.62794045  1
  V  V79  1  0.62109579  0.37471600  0.75537295  1
  V  V80  1  0.37314919  0.50110545  0.37036255  1
  V  V81  1  0.62818144  0.63131964  -0.00520178  1
  V  V82  1  0.37187585  0.87342482  0.50081873  1
  V  V83  1  0.36960578  0.50367240  0.87792389  1
  V  V84  1  0.87081393  0.87024134  -0.01378870  1
  Zn  Zn85  1  0.25599620  0.36843288  0.63186787  1
  Zn  Zn86  1  0.63149078  0.75775126  0.87934353  1
  Zn  Zn87  1  0.37202698  0.13332334  0.74316242  1
  Zn  Zn88  1  0.88112052  0.12128910  0.74539803  1
  Zn  Zn89  1  0.12264707  0.12809042  0.50634945  1
  Zn  Zn90  1  0.09842777  0.62758694  0.50406812  1
  Zn  Zn91  1  0.75625445  0.49884498  0.24435638  1
  Zn  Zn92  1  0.74984012  0.12437498  0.37192061  1
  Zn  Zn93  1  0.03544124  0.63148773  0.11445232  1
  Zn  Zn94  1  0.00085726  0.37648203  0.87683668  1
  Zn  Zn95  1  0.48655936  0.25551434  0.74368353  1
  Zn  Zn96  1  0.75711441  0.63401125  0.87882633  1
  Zn  Zn97  1  0.36668069  0.62413845  0.25033219  1
  Zn  Zn98  1  0.49130787  0.13726993  0.62474899  1
  Zn  Zn99  1  0.49532043  0.75079133  0.25019085  1
  Zn  Zn100  1  0.37330297  0.74924754  0.62671136  1
  Zn  Zn101  1  0.63266253  0.88079727  0.25341209  1
  Zn  Zn102  1  0.62478508  0.49540598  0.62148518  1
  Zn  Zn103  1  0.01328960  0.87622643  0.86876450  1
  Zn  Zn104  1  0.89037525  0.61745150  0.23994776  1
  Zn  Zn105  1  0.11946733  0.00448273  0.12947431  1
  Zn  Zn106  1  0.25144954  0.00474657  0.24908254  1
  Zn  Zn107  1  0.18876779  0.19196863  0.19104800  1
  Zn  Zn108  1  0.18718370  0.18317540  0.69154021  1
  Zn  Zn109  1  0.19468846  0.69518904  0.19339919  1
  Zn  Zn110  1  0.18628120  0.68529982  0.68293314  1
  Zn  Zn111  1  0.68751029  0.18888724  0.18702255  1
  Zn  Zn112  1  0.68731807  0.19050949  0.68707792  1
  Zn  Zn113  1  0.68703527  0.69121040  0.18110593  1
  Zn  Zn114  1  0.68917356  0.68698446  0.68811850  1
  Zn  Zn115  1  0.31287283  0.31293519  0.31734243  1
  Zn  Zn116  1  0.31012594  0.31313545  0.81653444  1
  Zn  Zn117  1  0.31306714  0.80547090  0.31168249  1
  Zn  Zn118  1  0.30990351  0.81153740  0.81884210  1
  Zn  Zn119  1  0.81522019  0.31424835  0.30940690  1
  Zn  Zn120  1  0.81093995  0.31283816  0.80957012  1
  Zn  Zn121  1  0.81649218  0.80986905  0.30659965  1
  Zn  Zn122  1  0.81053359  0.80750841  0.80672379  1
  Zn  Zn123  1  0.19166138  0.43483411  0.43857988  1
  Zn  Zn124  1  0.19150737  0.43735059  0.93803892  1
  Zn  Zn125  1  0.18636605  0.93889800  0.44021135  1
  Zn  Zn126  1  0.17646211  0.93346047  0.93500347  1
  Zn  Zn127  1  0.69092730  0.43887998  0.43202993  1
  Zn  Zn128  1  0.68903777  0.44063441  0.93645982  1
  Zn  Zn129  1  0.68794005  0.93774228  0.43749845  1
  Zn  Zn130  1  0.68784203  0.93757164  0.93902264  1
  Zn  Zn131  1  0.31111725  0.06150490  0.06276228  1
  Zn  Zn132  1  0.30723430  0.06261496  0.55978381  1
  Zn  Zn133  1  0.30533183  0.56765361  0.06778279  1
  Zn  Zn134  1  0.31127726  0.55821690  0.56347633  1
  Zn  Zn135  1  0.81244378  0.06156827  0.05970394  1
  Zn  Zn136  1  0.81377116  0.06378374  0.56139155  1
  Zn  Zn137  1  0.81274402  0.56129854  0.06005989  1
  Zn  Zn138  1  0.81174839  0.56133503  0.55897398  1
  Zn  Zn139  1  0.43714876  0.43587730  0.18871909  1
  Zn  Zn140  1  0.43881907  0.43933373  0.69086458  1
  Zn  Zn141  1  0.43799655  0.93748871  0.18763591  1
  Zn  Zn142  1  0.41858905  0.97053087  0.67361795  1
  Zn  Zn143  1  0.94159968  0.43540856  0.18983778  1
  Zn  Zn144  1  0.93711894  0.43128172  0.68476293  1
  Zn  Zn145  1  0.93828508  0.93684615  0.18151600  1
  Zn  Zn146  1  0.93520511  0.93364963  0.68400659  1
  Zn  Zn147  1  0.06141148  0.06124231  0.31495439  1
  Zn  Zn148  1  0.06158536  0.06201977  0.81862125  1
  Zn  Zn149  1  0.06196733  0.56617292  0.31355500  1
  Zn  Zn150  1  0.06615821  0.57209573  0.81823602  1
  Zn  Zn151  1  0.56159860  0.06443321  0.31397807  1
  Zn  Zn152  1  0.56229012  0.06819578  0.80958844  1
  Zn  Zn153  1  0.56289793  0.56008218  0.31062140  1
  Zn  Zn154  1  0.55855293  0.55926172  0.81189035  1
  Zn  Zn155  1  0.44177456  0.18920081  0.44253435  1
  Zn  Zn156  1  0.43530591  0.18526075  0.93805260  1
  Zn  Zn157  1  0.43364214  0.68616402  0.43984657  1
  Zn  Zn158  1  0.43843359  0.68858650  0.93691466  1
  Zn  Zn159  1  0.93617546  0.18682418  0.43188808  1
  Zn  Zn160  1  0.93910317  0.18723040  0.93382508  1
  Zn  Zn161  1  0.93759499  0.68584631  0.43010004  1
  Zn  Zn162  1  0.94438473  0.68613176  0.93475104  1
  Zn  Zn163  1  0.06205021  0.31892409  0.06390136  1
  Zn  Zn164  1  0.06377692  0.31463043  0.56728047  1
  Zn  Zn165  1  0.06021565  0.82090688  0.06266819  1
  Zn  Zn166  1  0.06066259  0.81478950  0.56176384  1
  Zn  Zn167  1  0.56144255  0.31170955  0.06087762  1
  Zn  Zn168  1  0.56636742  0.31228000  0.56636802  1
  Zn  Zn169  1  0.56254220  0.81435726  0.06495702  1
  Zn  Zn170  1  0.56162817  0.80927459  0.56157089  1
  O  O171  1  0.12996428  0.12683125  0.11447235  1
  O  O172  1  0.12787538  0.10844834  0.62430396  1
  O  O173  1  0.15592061  0.61481936  0.11816737  1
  O  O174  1  0.12992427  0.60682136  0.62123715  1
  O  O175  1  0.62051937  0.11944030  0.11910770  1
  O  O176  1  0.62914921  0.11590327  0.61645820  1
  O  O177  1  0.61675553  0.62111510  0.11447696  1
  O  O178  1  0.61972905  0.62575896  0.61547926  1
  O  O179  1  0.38197383  0.38104019  0.38129822  1
  O  O180  1  0.36662760  0.38574925  0.89256882  1
  O  O181  1  0.38085315  0.87898173  0.38276615  1
  O  O182  1  0.38726843  0.88375587  0.87356063  1
  O  O183  1  0.88305607  0.38702133  0.36700466  1
  O  O184  1  0.87479610  0.38567190  0.87943782  1
  O  O185  1  0.88282986  0.88114546  0.37512222  1
  O  O186  1  0.87092236  0.87055272  0.88589815  1
  O  O187  1  0.25728338  0.00859731  0.37831260  1
  O  O188  1  0.25163261  -0.00018349  0.87354178  1
  O  O189  1  0.25858158  0.51265101  0.38314824  1
  O  O190  1  0.25915266  0.50054399  0.86641856  1
  O  O191  1  0.76544462  -0.00285907  0.37540099  1
  O  O192  1  0.74125091  0.00936153  0.86361240  1
  O  O193  1  0.75989775  0.50586991  0.36751537  1
  O  O194  1  0.76129827  0.50433994  0.86731551  1
  O  O195  1  0.26281352  0.48195922  0.13316259  1
  O  O196  1  0.24486043  0.49429260  0.63934509  1
  O  O197  1  0.25569479  0.98734603  0.13156779  1
  O  O198  1  0.23982579  0.99213380  0.63425644  1
  O  O199  1  0.74302167  0.49210074  0.12322282  1
  O  O200  1  0.75264434  0.48927489  0.63267490  1
  O  O201  1  0.73968651  0.99324388  0.11811805  1
  O  O202  1  0.74125642  0.99442168  0.62847656  1
  O  O203  1  0.01257924  0.36454384  0.25709548  1
  O  O204  1  0.01027140  0.36609643  0.75330146  1
  O  O205  1  0.00878886  0.87120420  0.25268594  1
  O  O206  1  -0.00744007  0.86326647  0.75127463  1
  O  O207  1  0.50557128  0.36592028  0.25740181  1
  O  O208  1  0.51732544  0.37864260  0.74743036  1
  O  O209  1  0.50310150  0.87520977  0.26434284  1
  O  O210  1  0.50330053  0.86911071  0.75695756  1
  O  O211  1  0.50356191  0.13814982  0.24461488  1
  O  O212  1  0.49450756  0.12976297  0.74660379  1
  O  O213  1  0.50184206  0.62440602  0.23481583  1
  O  O214  1  0.49395893  0.63330318  0.74451909  1
  O  O215  1  0.99254392  0.13782564  0.25603958  1
  O  O216  1  1.00075431  0.13798519  0.75603946  1
  O  O217  1  1.01171314  0.63600020  0.23690344  1
  O  O218  1  0.98748212  0.63352152  0.74945041  1
  O  O219  1  0.37050880  0.25808952  0.00800983  1
  O  O220  1  0.36746092  0.26234883  0.49395897  1
  O  O221  1  0.37887413  0.74571122  0.01648317  1
  O  O222  1  0.36762118  0.76169650  0.50310181  1
  O  O223  1  0.87296655  0.25414530  0.00554319  1
  O  O224  1  0.88029156  0.24767079  0.51152002  1
  O  O225  1  0.88380970  0.76295023  0.00506495  1
  O  O226  1  0.86799913  0.75513334  0.50156899  1
  O  O227  1  0.13234703  0.25182374  0.49158973  1
  O  O228  1  0.12626442  0.24468403  0.99837359  1
  O  O229  1  0.13701005  0.74580924  0.50903149  1
  O  O230  1  0.12427625  0.74705274  1.00463633  1
  O  O231  1  0.61910279  0.24140102  0.48829792  1
  O  O232  1  0.63060738  0.24610262  0.99409062  1
  O  O233  1  0.62934578  0.74210665  0.48859412  1
  O  O234  1  0.61569781  0.73440050  0.99980940  1
  O  O235  1  0.49388276  0.24643611  0.13212522  1
  O  O236  1  0.50320684  0.24894104  0.62953922  1
  O  O237  1  0.49048310  0.74561542  0.12678875  1
  O  O238  1  0.49601726  0.74336060  0.63425064  1
  O  O239  1  0.99065271  0.25710296  0.13438223  1
  O  O240  1  0.98582458  0.25836763  0.63262925  1
  O  O241  1  0.99337866  0.74976951  0.12922799  1
  O  O242  1  0.98556630  0.75884970  0.63085741  1
  O  O243  1  0.00646901  0.25701438  0.36804186  1
  O  O244  1  0.00573930  0.25443624  0.86723663  1
  O  O245  1  -0.00893158  0.76283755  0.35947789  1
  O  O246  1  -0.00602631  0.75252090  0.85563710  1
  O  O247  1  0.50647327  0.25817502  0.36790317  1
  O  O248  1  0.51420272  0.24614820  0.87847046  1
  O  O249  1  0.50652231  0.75672568  0.37643251  1
  O  O250  1  0.50177731  0.75912817  0.86706292  1
  O  O251  1  0.24739500  0.13275831  0.49135990  1
  O  O252  1  0.24034823  0.12949202  0.99818422  1
  O  O253  1  0.25566261  0.63314331  0.49420239  1
  O  O254  1  0.20181165  0.61681828  1.04860926  1
  O  O255  1  0.73721329  0.12041894  0.49418041  1
  O  O256  1  0.74555210  0.12910051  0.99114347  1
  O  O257  1  0.74224962  0.62949793  0.48623823  1
  O  O258  1  0.73104180  0.61745162  0.99844511  1
  O  O259  1  0.25542263  0.37015733  0.01220711  1
  O  O260  1  0.26355441  0.36589792  0.50118067  1
  O  O261  1  0.24953668  0.88189279  0.01326479  1
  O  O262  1  0.25435159  0.86807992  0.50519276  1
  O  O263  1  0.75593657  0.37018887  0.00421119  1
  O  O264  1  0.74486872  0.37886362  0.51377344  1
  O  O265  1  0.76486767  0.88208676  0.00751411  1
  O  O266  1  0.75427632  0.86860994  0.50282634  1
  O  O267  1  0.12189780  0.48356011  0.25621267  1
  O  O268  1  0.13084598  0.49612702  0.74948878  1
  O  O269  1  0.12592615  0.99205701  0.24735875  1
  O  O270  1  0.13229036  0.99981814  0.74667298  1
  O  O271  1  0.62635305  0.49182559  0.24146464  1
  O  O272  1  0.63511692  0.49481311  0.75211060  1
  O  O273  1  0.61857523  1.00062420  0.23563827  1
  O  O274  1  0.63263948  0.99656114  0.74011261  1
  O  O275  1  0.37403521  -0.00548966  0.26591722  1
  O  O276  1  0.35973479  -0.00061340  0.76886968  1
  O  O277  1  0.37816324  0.50090770  0.26426477  1
  O  O278  1  0.36863103  0.50503389  0.75879418  1
  O  O279  1  0.88735320  0.01065801  0.25563727  1
  O  O280  1  0.85954827  0.00249709  0.73835566  1
  O  O281  1  0.87411179  0.50277298  0.25460401  1
  O  O282  1  0.87180059  0.50401555  0.75455332  1
  O  O283  1  0.12232999  0.36710996  0.36699755  1
  O  O284  1  0.12652015  0.36888405  0.86573282  1
  O  O285  1  0.11325269  0.88177989  0.36806357  1
  O  O286  1  0.12727184  0.84739021  0.87871756  1
  O  O287  1  0.61816448  0.36972509  0.37157792  1
  O  O288  1  0.63396477  0.36619120  0.86798154  1
  O  O289  1  0.61759599  0.86743984  0.37644685  1
  O  O290  1  0.61354048  0.87897418  0.86802297  1
  O  O291  1  0.38003362  0.13875733  0.11893801  1
  O  O292  1  0.38670132  0.08355235  0.63477470  1
  O  O293  1  0.37921160  0.63502475  0.12728121  1
  O  O294  1  0.38328779  0.62361352  0.63513900  1
  O  O295  1  0.87135480  0.13650175  0.12911093  1
  O  O296  1  0.86470193  0.14260866  0.62815722  1
  O  O297  1  0.86861802  0.63877083  0.12297648  1
  O  O298  1  0.86739266  0.63314255  0.63019793  1
  O  O299  1  0.25878961  0.25662249  0.12364773  1
  O  O300  1  0.24314795  0.24824494  0.61249765  1
  O  O301  1  0.26226592  0.76486566  0.12896154  1
  O  O302  1  0.25390577  0.75865294  0.61965941  1
  O  O303  1  0.75819334  0.25386741  0.11684585  1
  O  O304  1  0.76034305  0.26327200  0.62904025  1
  O  O305  1  0.75947259  0.76096001  0.12474882  1
  O  O306  1  0.75765488  0.75346639  0.61796228  1
  O  O307  1  0.24425042  0.24419339  0.38407920  1
  O  O308  1  0.24219816  0.24468586  0.88574926  1
  O  O309  1  0.25549465  0.73580803  0.38738455  1
  O  O310  1  0.25427594  0.74850426  0.89307729  1
  O  O311  1  0.73643876  0.25250089  0.36859235  1
  O  O312  1  0.74306407  0.24275208  0.87935018  1
  O  O313  1  0.74382865  0.74366165  0.37600584  1
  O  O314  1  0.74180712  0.74398103  0.86615139  1
  O  O315  1  0.00475596  0.11247041  -0.00576249  1
  O  O316  1  0.00055439  0.11021053  0.49254843  1
  O  O317  1  -0.00161275  0.61122588  0.00315957  1
  O  O318  1  -0.01076935  0.62777512  0.50445198  1
  O  O319  1  0.50558467  0.11574053  0.00578591  1
  O  O320  1  0.51236775  0.11752677  0.50129846  1
  O  O321  1  0.50419575  0.61596957  0.00933303  1
  O  O322  1  0.50830584  0.63320506  0.51085322  1
  O  O323  1  0.48890706  0.36755825  0.49067926  1
  O  O324  1  0.48708178  0.38618616  1.01002784  1
  O  O325  1  0.49311549  0.87789864  0.49113905  1
  O  O326  1  0.50820162  0.88624415  0.99010482  1
  O  O327  1  1.00645070  0.37037740  0.48378192  1
  O  O328  1  0.99286011  0.38584016  0.99841155  1
  O  O329  1  0.99438352  0.88013261  0.48928803  1
  O  O330  1  0.98748188  0.88332684  0.99499000  1
  O  O331  1  0.49532117  0.48700761  0.37264077  1
  O  O332  1  0.48628319  0.50214481  0.88701885  1
  O  O333  1  0.49454899  0.99306206  0.37975671  1
  O  O334  1  0.49312780  0.99611744  0.88120427  1
  O  O335  1  0.98799133  0.49444055  0.36864819  1
  O  O336  1  0.99098765  0.50128832  0.88096037  1
  O  O337  1  0.99091991  0.99087888  0.38156322  1
  O  O338  1  1.00862446  0.99156423  0.89027834  1
  O  O339  1  0.00391871  -0.00741620  0.10552025  1
  O  O340  1  0.00706420  -0.01079392  0.61389071  1
  O  O341  1  -0.00047065  0.50096234  0.11226898  1
  O  O342  1  0.01579392  0.49214247  0.63103477  1
  O  O343  1  0.50514775  0.00302998  0.11798027  1
  O  O344  1  0.51833550  -0.00901610  0.61722473  1
  O  O345  1  0.50142774  0.50725019  0.11683892  1
  O  O346  1  0.50580622  0.51482637  0.63281349  1
  O  O347  1  0.23639562  0.36658911  0.24921846  1
  O  O348  1  0.24105481  0.38440794  0.75225142  1
  O  O349  1  0.23999442  0.87621490  0.25382530  1
  O  O350  1  0.25601961  0.88188821  0.74087849  1
  O  O351  1  0.74249194  0.37344459  0.24079806  1
  O  O352  1  0.74419731  0.38603428  0.74502357  1
  O  O353  1  0.75172576  0.87516549  0.23624594  1
  O  O354  1  0.74400819  0.88295599  0.74332681  1
  O  O355  1  0.24686523  0.12582266  0.26663847  1
  O  O356  1  0.24808236  0.11186044  0.76080996  1
  O  O357  1  0.24761421  0.63106242  0.27289449  1
  O  O358  1  0.26189624  0.61812138  0.74384710  1
  O  O359  1  0.76476710  0.13031570  0.25055376  1
  O  O360  1  0.74767636  0.11723180  0.75636532  1
  O  O361  1  0.74424799  0.62532394  0.25988904  1
  O  O362  1  0.75900952  0.61265049  0.74725901  1
  O  O363  1  0.36859892  0.11582839  0.38457167  1
  O  O364  1  0.36475499  0.11318661  0.88138211  1
  O  O365  1  0.37075863  0.61514354  0.37611421  1
  O  O366  1  0.38092010  0.61688449  0.86447383  1
  O  O367  1  0.87240146  0.11727886  0.36530580  1
  O  O368  1  0.86029210  0.13004380  0.87051934  1
  O  O369  1  0.86680625  0.61553135  0.36471814  1
  O  O370  1  0.87551703  0.61617386  0.86461315  1
  O  O371  1  0.13324375  0.36796870  0.14151861  1
  O  O372  1  0.12999396  0.38174956  0.63820608  1
  O  O373  1  0.14107375  0.87750884  0.13251877  1
  O  O374  1  0.13588726  0.88485431  0.61953937  1
  O  O375  1  0.62907173  0.37825928  0.12757616  1
  O  O376  1  0.63964617  0.37631291  0.63396394  1
  O  O377  1  0.63404257  0.88202614  0.12528134  1
  O  O378  1  0.63120654  0.88041391  0.62626427  1
  O  O379  1  0.11821869  0.25286696  0.26177757  1
  O  O380  1  0.11967129  0.25657959  0.75391590  1
  O  O381  1  0.11517417  0.76328053  0.24316651  1
  O  O382  1  0.10436490  0.74653503  0.73399024  1
  O  O383  1  0.61602921  0.25477523  0.25616969  1
  O  O384  1  0.62949667  0.26013111  0.76008048  1
  O  O385  1  0.62192046  0.75230503  0.26187112  1
  O  O386  1  0.61350769  0.75625210  0.74762448  1
  O  O387  1  0.38487423  0.25821238  0.24210302  1
  O  O388  1  0.37244221  0.24742555  0.75533617  1
  O  O389  1  0.37814918  0.74444961  0.23918061  1
  O  O390  1  0.38283274  0.74292460  0.75138865  1
  O  O391  1  0.88302454  0.24361700  0.24272278  1
  O  O392  1  0.88426046  0.25061349  0.74461413  1
  O  O393  1  0.88786250  0.74763324  0.23773903  1
  O  O394  1  0.87984748  0.74152908  0.73712012  1
  O  O395  1  0.37133613  0.48409398  0.49060383  1
  O  O396  1  0.37561201  0.49854244  0.99699660  1
  O  O397  1  0.37908521  0.98871196  0.48941474  1
  O  O398  1  0.38616580  1.00287552  0.99323652  1
  O  O399  1  0.86922860  0.50189796  0.48002963  1
  O  O400  1  0.88101025  0.49619818  0.99140491  1
  O  O401  1  0.88105099  0.99466206  0.49246924  1
  O  O402  1  0.88471958  0.99104630  1.00084437  1
  O  O403  1  0.11715101  0.00849984  0.00352827  1
  O  O404  1  0.11582502  0.00091321  0.50805831  1
  O  O405  1  0.10874926  0.49258010  -0.00749795  1
  O  O406  1  0.13023594  0.49156365  0.51681170  1
  O  O407  1  0.61643583  0.00546611  0.00813877  1
  O  O408  1  0.62261742  0.00691662  0.50418357  1
  O  O409  1  0.61396492  0.50487124  0.00339540  1
  O  O410  1  0.62982772  0.51386815  0.49876245  1
  O  O411  1  0.36990808  0.36494819  0.11982845  1
  O  O412  1  0.37689215  0.38210126  0.61178126  1
  O  O413  1  0.36706453  0.86664940  0.12867495  1
  O  O414  1  0.36348586  0.88212752  0.61357410  1
  O  O415  1  0.87036149  0.36404641  0.12095014  1
  O  O416  1  0.86306230  0.36642525  0.62600942  1
  O  O417  1  0.86917625  0.86703775  0.11731749  1
  O  O418  1  0.86732215  0.86503445  0.61553928  1
  O  O419  1  0.13138130  0.13467108  0.37911498  1
  O  O420  1  0.12996868  0.13069936  0.88825217  1
  O  O421  1  0.13685552  0.61475895  0.38808049  1
  O  O422  1  0.12394026  0.65385113  0.86860835  1
  O  O423  1  0.62701330  0.13300551  0.38010626  1
  O  O424  1  0.63390920  0.13343639  0.87963600  1
  O  O425  1  0.62843246  0.63054805  0.37929353  1
  O  O426  1  0.61730437  0.62269712  0.88989615  1
