# generated using pymatgen
data_V85Zn86O256
_symmetry_space_group_name_H-M   'P 1'
_cell_length_a   16.97189270
_cell_length_b   16.97595185
_cell_length_c   16.97570921
_cell_angle_alpha   89.86708504
_cell_angle_beta   90.13876965
_cell_angle_gamma   90.09758256
_symmetry_Int_Tables_number   1
_chemical_formula_structural   V85Zn86O256
_chemical_formula_sum   'V85 Zn86 O256'
_cell_volume   4890.90549562
_cell_formula_units_Z   1
loop_
 _symmetry_equiv_pos_site_id
 _symmetry_equiv_pos_as_xyz
  1  'x, y, z'
loop_
 _atom_site_type_symbol
 _atom_site_label
 _atom_site_symmetry_multiplicity
 _atom_site_fract_x
 _atom_site_fract_y
 _atom_site_fract_z
 _atom_site_occupancy
  V  V0  1  0.49836191  -0.00093347  0.49664401  1
  V  V1  1  0.25070013  0.62597405  0.37249433  1
  V  V2  1  0.74469158  0.37169264  0.12731711  1
  V  V3  1  0.24999562  0.75195918  0.49480443  1
  V  V4  1  0.75004099  0.62524763  0.37425300  1
  V  V5  1  0.50022999  0.87795850  0.37154590  1
  V  V6  1  0.12528807  0.63093173  0.49592145  1
  V  V7  1  0.37403103  0.25754351  0.12320258  1
  V  V8  1  0.37368537  0.74826231  0.12368353  1
  V  V9  1  0.75352851  0.75543562  0.01076689  1
  V  V10  1  0.37759228  0.87940954  0.49591882  1
  V  V11  1  0.62525614  0.75465467  0.36958529  1
  V  V12  1  0.87937553  0.12938882  0.24921307  1
  V  V13  1  0.37358721  0.87450407  -0.00155743  1
  V  V14  1  0.50106692  0.12679076  0.13017898  1
  V  V15  1  0.87433074  0.37722010  0.50207227  1
  V  V16  1  0.37718962  0.12059769  0.25141838  1
  V  V17  1  0.50719510  0.36791964  0.36320061  1
  V  V18  1  0.62174584  0.62471138  0.49915828  1
  V  V19  1  -0.00033133  0.61691528  0.12237328  1
  V  V20  1  0.25120734  0.13987288  0.37664343  1
  V  V21  1  0.61290429  0.37406603  0.74973895  1
  V  V22  1  0.62818555  -0.01420501  0.12499331  1
  V  V23  1  0.25167847  0.12625549  0.87522204  1
  V  V24  1  0.49643248  0.62930712  0.63624383  1
  V  V25  1  0.74873355  0.49747621  0.75066020  1
  V  V26  1  0.49803076  0.62050506  0.12062544  1
  V  V27  1  0.12553900  -0.00086298  0.12450434  1
  V  V28  1  0.12560911  0.37564135  0.74933632  1
  V  V29  1  0.74503120  0.49543334  0.24962074  1
  V  V30  1  0.24924725  0.00026708  0.74589964  1
  V  V31  1  0.00067803  0.37797493  0.88388020  1
  V  V32  1  0.49981869  -0.00273268  -0.00194338  1
  V  V33  1  0.25273231  0.87852287  0.62380796  1
  V  V34  1  0.24109455  0.48929150  0.24647947  1
  V  V35  1  0.37511387  0.00024788  0.87469338  1
  V  V36  1  0.24934662  0.87327693  0.12457986  1
  V  V37  1  -0.00351505  0.75187048  0.24174909  1
  V  V38  1  0.00483946  0.36439568  0.36917282  1
  V  V39  1  0.87618241  -0.00243560  0.87901686  1
  V  V40  1  0.49231419  0.37449462  0.90059920  1
  V  V41  1  0.74816003  -0.01339791  0.24299959  1
  V  V42  1  0.61817953  0.25007765  0.87185822  1
  V  V43  1  0.50176778  0.75286565  0.24783792  1
  V  V44  1  0.49510008  0.13583092  0.62628677  1
  V  V45  1  0.49347856  0.49987060  0.49496655  1
  V  V46  1  0.25548456  -0.00298676  0.25960970  1
  V  V47  1  0.87446271  0.50137837  0.37576910  1
  V  V48  1  0.12666614  0.25050527  0.87622625  1
  V  V49  1  0.00580435  0.87014260  0.37444057  1
  V  V50  1  -0.00215933  0.64113357  0.62773289  1
  V  V51  1  0.87748027  0.63820009  0.74708225  1
  V  V52  1  0.25747105  0.36625342  0.61632844  1
  V  V53  1  0.87435087  0.25202047  0.62659196  1
  V  V54  1  0.74609123  0.24863425  0.49706526  1
  V  V55  1  0.87808244  0.49861317  0.87860211  1
  V  V56  1  0.75731789  0.87165683  0.62472949  1
  V  V57  1  0.12869310  0.13852383  0.49426178  1
  V  V58  1  0.62057390  0.49663280  0.12284433  1
  V  V59  1  0.12795827  0.00300680  0.62410938  1
  V  V60  1  0.12576771  0.50265236  0.62543830  1
  V  V61  1  0.26256029  0.51116678  0.75028625  1
  V  V62  1  0.00041667  0.86476316  0.87049149  1
  V  V63  1  0.87319007  0.62927606  0.24202170  1
  V  V64  1  0.62465256  0.62288294  -0.00162255  1
  V  V65  1  0.75664052  0.75063490  0.50232002  1
  V  V66  1  0.61681534  0.86788241  0.75051333  1
  V  V67  1  0.75359408  0.25118484  -0.00026513  1
  V  V68  1  0.00137168  0.12573965  0.62370962  1
  V  V69  1  0.00223689  0.00064323  0.49834166  1
  V  V70  1  0.62457752  0.00124633  0.62306034  1
  V  V71  1  0.62588129  0.12602898  -0.00016962  1
  V  V72  1  0.87517851  -0.00149086  0.37470688  1
  V  V73  1  0.12208789  0.61794057  -0.00467851  1
  V  V74  1  0.24514845  0.74561495  -0.00660338  1
  V  V75  1  0.37973140  0.75010945  0.63493546  1
  V  V76  1  -0.00137135  0.50315623  0.50046891  1
  V  V77  1  0.87539200  0.12507568  0.75058860  1
  V  V78  1  0.37865156  0.13834343  0.74832496  1
  V  V79  1  0.00303547  0.13213363  0.12887710  1
  V  V80  1  0.25470154  0.26299524  0.00222919  1
  V  V81  1  0.12716722  0.12281900  -0.00023694  1
  V  V82  1  0.12660057  0.86808303  0.25389268  1
  V  V83  1  0.75078574  0.00025642  0.74982547  1
  V  V84  1  0.37573331  0.50581029  0.89039116  1
  Zn  Zn85  1  0.11775581  0.86561599  0.74398168  1
  Zn  Zn86  1  0.12450193  0.34450985  0.24711532  1
  Zn  Zn87  1  0.87989937  0.25478271  0.12937290  1
  Zn  Zn88  1  0.88065560  0.87022070  0.50435897  1
  Zn  Zn89  1  0.37312858  0.62313563  0.25086426  1
  Zn  Zn90  1  0.12323592  0.48823877  0.12034950  1
  Zn  Zn91  1  0.37568489  0.35771902  0.49434670  1
  Zn  Zn92  1  0.61873330  0.74269360  0.87220160  1
  Zn  Zn93  1  0.62423889  0.12788906  0.49615026  1
  Zn  Zn94  1  0.75062927  0.12613636  0.87485518  1
  Zn  Zn95  1  0.87410985  0.86955863  0.01905452  1
  Zn  Zn96  1  0.62235526  0.49926173  0.62647703  1
  Zn  Zn97  1  0.49240045  0.86747458  0.86555276  1
  Zn  Zn98  1  0.12428675  0.74033562  0.86532764  1
  Zn  Zn99  1  -0.00231488  -0.00395570  0.00133732  1
  Zn  Zn100  1  0.37189279  0.49493636  0.37340161  1
  Zn  Zn101  1  0.62708689  0.24896524  0.35495604  1
  Zn  Zn102  1  0.74592784  0.12329517  0.37261023  1
  Zn  Zn103  1  -0.00080734  0.25043951  0.75177396  1
  Zn  Zn104  1  0.75076776  0.62751582  0.87511208  1
  Zn  Zn105  1  0.74585593  0.37567349  0.62526847  1
  Zn  Zn106  1  0.87881659  0.38141679  0.00451869  1
  Zn  Zn107  1  0.19226613  0.18952377  0.18791902  1
  Zn  Zn108  1  0.18541899  0.18746714  0.69016607  1
  Zn  Zn109  1  0.18301882  0.68423502  0.18303271  1
  Zn  Zn110  1  0.19150287  0.69111051  0.68390499  1
  Zn  Zn111  1  0.69633109  0.17657393  0.18653778  1
  Zn  Zn112  1  0.68650396  0.18805298  0.68775003  1
  Zn  Zn113  1  0.68547097  0.68698118  0.18565848  1
  Zn  Zn114  1  0.68912411  0.68603203  0.68628732  1
  Zn  Zn115  1  0.32244064  0.31218688  0.30845097  1
  Zn  Zn116  1  0.31239102  0.31948047  0.81324957  1
  Zn  Zn117  1  0.31654067  0.81082644  0.31171007  1
  Zn  Zn118  1  0.30772279  0.81208762  0.81256275  1
  Zn  Zn119  1  0.81555414  0.31322985  0.31517048  1
  Zn  Zn120  1  0.80985849  0.31440902  0.81338135  1
  Zn  Zn121  1  0.81609580  0.81194508  0.31155671  1
  Zn  Zn122  1  0.80331473  0.81312572  0.82274939  1
  Zn  Zn123  1  0.18432458  0.43852388  0.43468672  1
  Zn  Zn124  1  0.19105966  0.44246393  0.93323112  1
  Zn  Zn125  1  0.18853190  0.94384674  0.43954449  1
  Zn  Zn126  1  0.18652826  0.93535272  0.93493622  1
  Zn  Zn127  1  0.68581330  0.43604607  0.43807081  1
  Zn  Zn128  1  0.68547640  0.43665914  0.93730837  1
  Zn  Zn129  1  0.68833616  0.93644785  0.43674381  1
  Zn  Zn130  1  0.68890013  0.93623737  0.93666865  1
  Zn  Zn131  1  0.31201596  0.06370900  0.06359867  1
  Zn  Zn132  1  0.31288632  0.18479003  0.56096684  1
  Zn  Zn133  1  0.30716369  0.56227451  0.06506069  1
  Zn  Zn134  1  0.31407412  0.56274624  0.56392335  1
  Zn  Zn135  1  0.81409849  0.06135459  0.06413749  1
  Zn  Zn136  1  0.81333447  0.06299854  0.56115900  1
  Zn  Zn137  1  0.80814006  0.56399170  0.06214201  1
  Zn  Zn138  1  0.81178656  0.56444054  0.56664457  1
  Zn  Zn139  1  0.42922008  0.44358399  0.19068173  1
  Zn  Zn140  1  0.43750504  0.44007726  0.68233781  1
  Zn  Zn141  1  0.43940220  0.93763059  0.18408119  1
  Zn  Zn142  1  0.43381945  0.94454164  0.68331999  1
  Zn  Zn143  1  0.93480331  0.43693496  0.18830045  1
  Zn  Zn144  1  0.93795741  0.44220199  0.68990982  1
  Zn  Zn145  1  0.93773097  0.94144002  0.18701745  1
  Zn  Zn146  1  0.93871561  0.93898712  0.68994980  1
  Zn  Zn147  1  0.06714874  0.06626058  0.31109305  1
  Zn  Zn148  1  0.06067615  0.06031753  0.81270467  1
  Zn  Zn149  1  0.06058255  0.56213303  0.31330249  1
  Zn  Zn150  1  0.05970753  0.56158466  0.80910002  1
  Zn  Zn151  1  0.56889923  0.06364987  0.31129638  1
  Zn  Zn152  1  0.56112280  0.05963824  0.81033637  1
  Zn  Zn153  1  0.56078183  0.56293766  0.31097702  1
  Zn  Zn154  1  0.55613698  0.55412223  0.81782470  1
  Zn  Zn155  1  0.44108721  0.18485017  0.43131951  1
  Zn  Zn156  1  0.43757787  0.18744780  0.94056072  1
  Zn  Zn157  1  0.43434192  0.68998533  0.43875584  1
  Zn  Zn158  1  0.43760902  0.68970221  0.93340426  1
  Zn  Zn159  1  0.93484929  0.18567268  0.43945321  1
  Zn  Zn160  1  0.94137525  0.18621047  0.93906499  1
  Zn  Zn161  1  0.93987625  0.68693685  0.43263039  1
  Zn  Zn162  1  0.93540963  0.68422621  0.93804643  1
  Zn  Zn163  1  0.07029641  0.31158020  0.06427874  1
  Zn  Zn164  1  0.06067326  0.31640574  0.56063044  1
  Zn  Zn165  1  0.05737122  0.81078170  0.05833510  1
  Zn  Zn166  1  0.06696221  0.81606464  0.56121129  1
  Zn  Zn167  1  0.56144299  0.30863968  0.18484415  1
  Zn  Zn168  1  0.56245050  0.31806953  0.55926210  1
  Zn  Zn169  1  0.56046552  0.80702824  0.05502996  1
  Zn  Zn170  1  0.56584825  0.81098967  0.56261896  1
  O  O171  1  0.12237359  0.11573247  0.12052322  1
  O  O172  1  0.12203434  0.12194868  0.61637586  1
  O  O173  1  0.11541798  0.61960915  0.11571648  1
  O  O174  1  0.11915048  0.61950157  0.61763410  1
  O  O175  1  0.61882052  0.11613451  0.11548052  1
  O  O176  1  0.61598154  0.11463218  0.62537995  1
  O  O177  1  0.61747761  0.61615831  0.11916743  1
  O  O178  1  0.61351035  0.62769060  0.61431708  1
  O  O179  1  0.39011121  0.37626038  0.37653629  1
  O  O180  1  0.38783642  0.37877087  0.87421568  1
  O  O181  1  0.38917839  0.86716616  0.38393423  1
  O  O182  1  0.37228547  0.88283440  0.88049708  1
  O  O183  1  0.88146821  0.38372329  0.38305909  1
  O  O184  1  0.88385227  0.38075700  0.87538546  1
  O  O185  1  0.88643457  0.88429264  0.37501390  1
  O  O186  1  0.88357733  0.88369214  0.87254916  1
  O  O187  1  0.25192706  0.00052554  0.36239799  1
  O  O188  1  0.25402843  0.00573671  0.86628339  1
  O  O189  1  0.24951892  0.51043736  0.36929110  1
  O  O190  1  0.26421472  0.49115991  0.85861296  1
  O  O191  1  0.75859889  -0.00231474  0.36616786  1
  O  O192  1  0.75941783  0.00100584  0.86824304  1
  O  O193  1  0.75250438  0.50483717  0.36802068  1
  O  O194  1  0.75623690  0.50133885  0.86546502  1
  O  O195  1  0.24648621  0.50439982  0.14336132  1
  O  O196  1  0.24363322  0.49349599  0.63263946  1
  O  O197  1  0.24200821  0.99440997  0.13306035  1
  O  O198  1  0.24557261  0.99646975  0.63479661  1
  O  O199  1  0.74279358  0.49226110  0.13132494  1
  O  O200  1  0.74617590  0.49932434  0.63693067  1
  O  O201  1  0.74449367  1.00072858  0.13538201  1
  O  O202  1  0.74232632  0.99341123  0.62681074  1
  O  O203  1  -0.00756199  0.37928422  0.26815325  1
  O  O204  1  0.01357088  0.37523576  0.75447123  1
  O  O205  1  0.00887431  0.87017737  0.25608944  1
  O  O206  1  0.00080234  0.88016161  0.76415388  1
  O  O207  1  0.50021457  0.37791699  0.25869128  1
  O  O208  1  0.51160071  0.38016454  0.74647293  1
  O  O209  1  0.49417994  0.86418067  0.25782366  1
  O  O210  1  0.51381341  0.88213051  0.74272169  1
  O  O211  1  0.49107206  0.11211799  0.24025896  1
  O  O212  1  0.49318150  0.11713931  0.73477866  1
  O  O213  1  0.49829552  0.63568179  0.24162929  1
  O  O214  1  0.50632424  0.61932907  0.73374575  1
  O  O215  1  0.99090667  0.11376949  0.24010329  1
  O  O216  1  0.99468634  0.12761675  0.74191024  1
  O  O217  1  0.99321297  0.63262543  0.24566995  1
  O  O218  1  0.98714621  0.62276776  0.74190366  1
  O  O219  1  0.36849698  0.24373729  0.01287370  1
  O  O220  1  0.38063451  0.24675096  0.50028841  1
  O  O221  1  0.36552616  0.75336289  0.00542794  1
  O  O222  1  0.36938816  0.76061386  0.50726979  1
  O  O223  1  0.86203616  0.24949084  -0.00081473  1
  O  O224  1  0.86733279  0.25482386  0.50942273  1
  O  O225  1  0.85631413  0.74512274  -0.00666115  1
  O  O226  1  0.86058964  0.74984128  0.49065960  1
  O  O227  1  0.12004578  0.23745231  0.50235545  1
  O  O228  1  0.13529239  0.24228428  0.99518699  1
  O  O229  1  0.13846727  0.74181863  0.50731052  1
  O  O230  1  0.13071452  0.74115131  0.99798505  1
  O  O231  1  0.63988852  0.25099355  0.50477662  1
  O  O232  1  0.63571340  0.23657109  0.98952444  1
  O  O233  1  0.63225880  0.74188900  0.49028854  1
  O  O234  1  0.63322021  0.73728730  1.00172161  1
  O  O235  1  0.48826921  0.23561597  0.12470780  1
  O  O236  1  0.51010696  0.23282683  0.62015351  1
  O  O237  1  0.49602195  0.74315964  0.13192895  1
  O  O238  1  0.49498985  0.73778487  0.61790548  1
  O  O239  1  0.99776054  0.23484662  0.11691722  1
  O  O240  1  0.98908651  0.24605092  0.62496911  1
  O  O241  1  1.00469149  0.73904234  0.13712793  1
  O  O242  1  1.00309442  0.74029073  0.61959293  1
  O  O243  1  -0.00899552  0.26618419  0.38259382  1
  O  O244  1  0.00760399  0.25898711  0.87259676  1
  O  O245  1  -0.00330888  0.76240169  0.36356586  1
  O  O246  1  -0.00241761  0.76249053  0.87692001  1
  O  O247  1  0.50465954  0.26478437  0.37566209  1
  O  O248  1  0.50864952  0.26095654  0.88427405  1
  O  O249  1  0.50652775  0.75532733  0.36799972  1
  O  O250  1  0.50733390  0.75708966  0.88029752  1
  O  O251  1  0.24516567  0.12650099  0.48455932  1
  O  O252  1  0.24565912  0.12942024  0.99239114  1
  O  O253  1  0.24458311  0.63195253  0.49557164  1
  O  O254  1  0.23310631  0.63453315  1.00866158  1
  O  O255  1  0.74962297  0.13440339  0.49747316  1
  O  O256  1  0.74159038  0.13085712  1.00041932  1
  O  O257  1  0.74173691  0.63079209  0.49638315  1
  O  O258  1  0.73947941  0.63153463  0.99864941  1
  O  O259  1  0.24475306  0.36162319  -0.00412679  1
  O  O260  1  0.24825734  0.38249073  0.51429931  1
  O  O261  1  0.25287052  0.86755425  0.00584112  1
  O  O262  1  0.25786655  0.87133975  0.50142052  1
  O  O263  1  0.74852594  0.36700151  0.00923629  1
  O  O264  1  0.75648026  0.36860887  0.50268390  1
  O  O265  1  0.74968018  0.85976402  -0.00450289  1
  O  O266  1  0.75090838  0.86709406  0.50711761  1
  O  O267  1  0.13761073  0.50504889  0.25282490  1
  O  O268  1  0.13392404  0.49435513  0.74348689  1
  O  O269  1  0.13424463  0.99035661  0.24215406  1
  O  O270  1  0.13592973  1.00286986  0.74378187  1
  O  O271  1  0.63823826  0.50987249  0.24060656  1
  O  O272  1  0.63217988  0.49245512  0.75190252  1
  O  O273  1  0.64064920  1.00282866  0.24139915  1
  O  O274  1  0.63050167  0.99381111  0.73884844  1
  O  O275  1  0.36509395  0.00705112  0.23989540  1
  O  O276  1  0.36642390  0.00892801  0.75391066  1
  O  O277  1  0.35730292  0.50576322  0.25395154  1
  O  O278  1  0.36427435  0.49849704  0.74886532  1
  O  O279  1  0.86726003  0.00485074  0.25713852  1
  O  O280  1  0.86979209  0.00617224  0.75712964  1
  O  O281  1  0.86395385  0.51042531  0.25528976  1
  O  O282  1  0.86559389  0.50272677  0.75806689  1
  O  O283  1  0.10781109  0.37907330  0.37443711  1
  O  O284  1  0.12028697  0.37319771  0.86730464  1
  O  O285  1  0.11676919  0.88379906  0.36557613  1
  O  O286  1  0.10920720  0.87588177  0.87406366  1
  O  O287  1  0.61132707  0.37485570  0.37665875  1
  O  O288  1  0.61047932  0.37098752  0.87248871  1
  O  O289  1  0.61541114  0.86242420  0.38109153  1
  O  O290  1  0.62435544  0.88154941  0.85494379  1
  O  O291  1  0.38457879  0.12559350  0.13078689  1
  O  O292  1  0.38761210  0.12629372  0.63203095  1
  O  O293  1  0.38310478  0.62960943  0.12443144  1
  O  O294  1  0.38889408  0.63416075  0.61822297  1
  O  O295  1  0.88576992  0.12271466  0.13217599  1
  O  O296  1  0.88105039  0.13228863  0.62925150  1
  O  O297  1  0.88049303  0.61886920  0.13575781  1
  O  O298  1  0.88310220  0.62194591  0.63793571  1
  O  O299  1  0.26487737  0.24100884  0.11501508  1
  O  O300  1  0.24666482  0.26168207  0.62484181  1
  O  O301  1  0.25367417  0.75453278  0.11852733  1
  O  O302  1  0.26048756  0.75652177  0.61237640  1
  O  O303  1  0.75112521  0.25726188  0.11585340  1
  O  O304  1  0.76086625  0.25038079  0.61915797  1
  O  O305  1  0.74553299  0.74554531  0.11105418  1
  O  O306  1  0.74243351  0.75925343  0.61278510  1
  O  O307  1  0.25221609  0.23735186  0.36732926  1
  O  O308  1  0.24659708  0.24583624  0.88180001  1
  O  O309  1  0.25588283  0.74415514  0.38755090  1
  O  O310  1  0.24884331  0.75290003  0.89024314  1
  O  O311  1  0.75121933  0.24947909  0.38646716  1
  O  O312  1  0.73987119  0.25066398  0.88346463  1
  O  O313  1  0.74211585  0.74654049  0.37961407  1
  O  O314  1  0.73614502  0.74369055  0.88428822  1
  O  O315  1  0.00893173  0.11922582  0.00868961  1
  O  O316  1  0.00765416  0.11935724  0.50321470  1
  O  O317  1  0.01056633  0.63275554  0.01089083  1
  O  O318  1  0.00641970  0.62392076  0.50592599  1
  O  O319  1  0.50824491  0.11808764  0.00781822  1
  O  O320  1  0.50071565  0.11428611  0.50926171  1
  O  O321  1  0.50810685  0.63083778  0.01503096  1
  O  O322  1  0.50785311  0.61970932  0.49861561  1
  O  O323  1  0.49881025  0.38707437  0.49301073  1
  O  O324  1  0.49707498  0.37746882  0.99527993  1
  O  O325  1  0.49693012  0.87789815  0.49294032  1
  O  O326  1  0.49011709  0.88204201  1.00068085  1
  O  O327  1  0.99419661  0.38459277  0.49346807  1
  O  O328  1  1.00053384  0.37055358  0.98700791  1
  O  O329  1  1.00127219  0.87987896  0.49104530  1
  O  O330  1  0.99466659  0.87712067  0.98693143  1
  O  O331  1  0.49926364  0.49278754  0.37953462  1
  O  O332  1  0.48645028  0.48514535  0.87659864  1
  O  O333  1  0.51210839  0.98759303  0.38329011  1
  O  O334  1  0.49287683  0.99609196  0.88057704  1
  O  O335  1  0.99215234  0.49885920  0.38303951  1
  O  O336  1  0.99041621  0.48851068  0.86679115  1
  O  O337  1  0.99451280  0.99184889  0.37714098  1
  O  O338  1  0.99019165  0.99382234  0.87733841  1
  O  O339  1  0.01429274  0.00724845  0.12437203  1
  O  O340  1  0.00647450  0.00546102  0.61904931  1
  O  O341  1  0.00001261  0.51344102  0.13159444  1
  O  O342  1  0.01001640  0.50795117  0.62118978  1
  O  O343  1  0.50856628  0.00690542  0.11871697  1
  O  O344  1  0.50837594  0.00411111  0.61447693  1
  O  O345  1  0.50834377  0.50953714  0.13630943  1
  O  O346  1  0.49984575  0.51448476  0.61381062  1
  O  O347  1  0.24476269  0.38743177  0.26244940  1
  O  O348  1  0.24079361  0.38128462  0.73856538  1
  O  O349  1  0.24536643  0.87734107  0.24664970  1
  O  O350  1  0.25212075  0.88882468  0.74335803  1
  O  O351  1  0.75870571  0.38651706  0.24196562  1
  O  O352  1  0.73921993  0.38350730  0.75073246  1
  O  O353  1  0.75457028  0.88779820  0.25267376  1
  O  O354  1  0.74154990  0.88063917  0.74132649  1
  O  O355  1  0.25700256  0.11422532  0.25874191  1
  O  O356  1  0.25766508  0.11910472  0.75378953  1
  O  O357  1  0.24626201  0.62556117  0.26227765  1
  O  O358  1  0.24915150  0.60889645  0.74204520  1
  O  O359  1  0.76395565  0.10956910  0.25224510  1
  O  O360  1  0.75616468  0.11800337  0.75092575  1
  O  O361  1  0.75623650  0.61962601  0.25353436  1
  O  O362  1  0.75993772  0.61658720  0.74881149  1
  O  O363  1  0.36449603  0.12573721  0.36280002  1
  O  O364  1  0.37234954  0.11971865  0.86874769  1
  O  O365  1  0.36244939  0.62391511  0.37563991  1
  O  O366  1  0.38511198  0.60483033  0.87828229  1
  O  O367  1  0.87837564  0.11213555  0.36776288  1
  O  O368  1  0.87548286  0.11635884  0.86945003  1
  O  O369  1  0.86918279  0.62017011  0.36600241  1
  O  O370  1  0.87797035  0.61556619  0.86065226  1
  O  O371  1  0.11137780  0.37906754  0.13960985  1
  O  O372  1  0.13078929  0.38391384  0.62980341  1
  O  O373  1  0.12839478  0.88109631  0.13283312  1
  O  O374  1  0.13406321  0.88502785  0.62394161  1
  O  O375  1  0.63428990  0.38473723  0.12826616  1
  O  O376  1  0.62644557  0.37855541  0.63473454  1
  O  O377  1  0.61749678  0.88750377  0.11867417  1
  O  O378  1  0.63258935  0.88265580  0.63092452  1
  O  O379  1  0.12096306  0.23432404  0.25586356  1
  O  O380  1  0.12543461  0.26033843  0.75663744  1
  O  O381  1  0.11762479  0.76241203  0.24621664  1
  O  O382  1  0.13891406  0.75537577  0.75513890  1
  O  O383  1  0.63199304  0.24627328  0.24281837  1
  O  O384  1  0.63198408  0.25857922  0.76363682  1
  O  O385  1  0.61571555  0.74382621  0.25970033  1
  O  O386  1  0.62874948  0.76558627  0.74570794  1
  O  O387  1  0.36769689  0.23286508  0.23429503  1
  O  O388  1  0.37075271  0.23687023  0.75619142  1
  O  O389  1  0.38437729  0.74660585  0.24268221  1
  O  O390  1  0.36939851  0.75688496  0.73386209  1
  O  O391  1  0.86753206  0.23373805  0.24867788  1
  O  O392  1  0.87398066  0.24594618  0.74159517  1
  O  O393  1  0.88260985  0.73803501  0.25489544  1
  O  O394  1  0.86573604  0.73544616  0.75559397  1
  O  O395  1  0.38556113  0.50012936  0.49731433  1
  O  O396  1  0.35909156  0.49627448  0.98840789  1
  O  O397  1  0.39039772  0.98498386  0.50207488  1
  O  O398  1  0.37806824  0.99517239  0.99504002  1
  O  O399  1  0.87787313  0.49867626  0.49665187  1
  O  O400  1  0.86619336  0.50159227  0.98312158  1
  O  O401  1  0.88195235  0.99883219  0.48997483  1
  O  O402  1  0.87265964  0.99659527  0.98907222  1
  O  O403  1  0.12930889  0.00362204  0.01131535  1
  O  O404  1  0.12065399  0.00969879  0.50570593  1
  O  O405  1  0.13267901  0.51402155  0.00112186  1
  O  O406  1  0.12126646  0.51078071  0.50943018  1
  O  O407  1  0.62338188  0.00790099  0.00418413  1
  O  O408  1  0.61808288  -0.00211495  0.50887068  1
  O  O409  1  0.63135639  0.50778391  0.01404771  1
  O  O410  1  0.61765376  0.51177485  0.49966396  1
  O  O411  1  0.38187605  0.35550221  0.13328260  1
  O  O412  1  0.35935591  0.37769714  0.62342727  1
  O  O413  1  0.36884541  0.86866648  0.11893351  1
  O  O414  1  0.37286647  0.86982766  0.61500815  1
  O  O415  1  0.86372005  0.37414813  0.12165956  1
  O  O416  1  0.87618588  0.36737081  0.62161451  1
  O  O417  1  0.88629532  0.86653366  0.12876474  1
  O  O418  1  0.86169169  0.88183073  0.62387126  1
  O  O419  1  0.14139624  0.11709747  0.38156965  1
  O  O420  1  0.13049753  0.13022030  0.87869102  1
  O  O421  1  0.13160981  0.62218801  0.38988963  1
  O  O422  1  0.11259304  0.62413636  0.89062715  1
  O  O423  1  0.62750999  0.13155103  0.37964364  1
  O  O424  1  0.62273338  0.13081085  0.88150963  1
  O  O425  1  0.62927596  0.63353718  0.38160799  1
  O  O426  1  0.62076623  0.61714356  0.88921068  1
