# generated using pymatgen
data_V85Zn86O256
_symmetry_space_group_name_H-M   'P 1'
_cell_length_a   16.96005400
_cell_length_b   16.96328483
_cell_length_c   16.96561049
_cell_angle_alpha   90.11634786
_cell_angle_beta   90.01608323
_cell_angle_gamma   89.95415405
_symmetry_Int_Tables_number   1
_chemical_formula_structural   V85Zn86O256
_chemical_formula_sum   'V85 Zn86 O256'
_cell_volume   4880.96423721
_cell_formula_units_Z   1
loop_
 _symmetry_equiv_pos_site_id
 _symmetry_equiv_pos_as_xyz
  1  'x, y, z'
loop_
 _atom_site_type_symbol
 _atom_site_label
 _atom_site_symmetry_multiplicity
 _atom_site_fract_x
 _atom_site_fract_y
 _atom_site_fract_z
 _atom_site_occupancy
  V  V0  1  0.50000262  -0.00746046  -0.00444354  1
  V  V1  1  0.00005624  0.62576449  0.12454345  1
  V  V2  1  0.37933562  0.38969189  0.49278355  1
  V  V3  1  0.74952235  0.88318881  0.13447130  1
  V  V4  1  0.61702898  0.87514560  0.75896311  1
  V  V5  1  0.38073234  0.12496009  0.74386978  1
  V  V6  1  0.12588775  0.62999126  0.48607318  1
  V  V7  1  0.00058865  0.12326121  0.12569706  1
  V  V8  1  0.87998221  0.00367107  0.37171320  1
  V  V9  1  0.87638411  0.75277129  0.12636745  1
  V  V10  1  0.00822892  0.74888333  0.25381187  1
  V  V11  1  0.87292402  0.49885604  0.37200394  1
  V  V12  1  0.74613716  0.75191232  0.00302078  1
  V  V13  1  -0.00181051  0.37388971  0.37345248  1
  V  V14  1  0.13217096  0.50057966  0.12548548  1
  V  V15  1  0.00879152  0.86861213  0.37833578  1
  V  V16  1  0.87413526  0.62550895  0.24580248  1
  V  V17  1  0.50388369  0.50105603  0.00329882  1
  V  V18  1  0.62930124  0.13466046  0.50241173  1
  V  V19  1  0.73910723  0.50059558  0.24046213  1
  V  V20  1  0.12155548  0.87478358  0.75610232  1
  V  V21  1  0.13014110  0.62465125  -0.00684886  1
  V  V22  1  0.37302295  0.75196265  0.12679908  1
  V  V23  1  0.12324202  0.75039198  0.87485309  1
  V  V24  1  -0.00399343  0.74880899  0.74777623  1
  V  V25  1  0.50110122  0.13147095  0.12814307  1
  V  V26  1  0.62677454  0.00105506  0.12279093  1
  V  V27  1  0.37433507  -0.00059983  0.37046309  1
  V  V28  1  0.37142021  0.62271394  0.26520955  1
  V  V29  1  0.24963697  0.74957215  -0.00175279  1
  V  V30  1  0.49593621  0.37907859  0.36757959  1
  V  V31  1  0.25118765  0.86825923  0.62421279  1
  V  V32  1  0.00128624  0.37378890  0.87334786  1
  V  V33  1  0.87662050  0.86756340  0.50468801  1
  V  V34  1  0.74392782  0.38113415  0.12082137  1
  V  V35  1  0.62135800  0.62882754  0.00645066  1
  V  V36  1  0.25087724  0.37565435  0.62230537  1
  V  V37  1  -0.00521557  0.62897856  0.62348732  1
  V  V38  1  0.50405801  0.25338741  0.75035356  1
  V  V39  1  0.87190213  0.24938705  0.62113234  1
  V  V40  1  0.86235987  0.37144536  0.49589050  1
  V  V41  1  0.12640820  0.37446310  0.74704532  1
  V  V42  1  0.13051218  0.13015262  0.00042885  1
  V  V43  1  0.37702247  0.62491410  0.74072531  1
  V  V44  1  0.25135762  -0.00089405  0.75025680  1
  V  V45  1  0.24704425  0.74793218  0.48470044  1
  V  V46  1  0.61955442  0.36394943  0.24329014  1
  V  V47  1  0.50530101  0.37519226  0.87295280  1
  V  V48  1  0.75122812  0.86905282  0.62614907  1
  V  V49  1  0.61733437  0.61183696  0.50430437  1
  V  V50  1  0.87751536  0.37298895  0.00033701  1
  V  V51  1  0.13267232  -0.00092322  0.12861670  1
  V  V52  1  0.00245321  0.49809445  0.00052256  1
  V  V53  1  0.38350586  0.13024160  0.25165492  1
  V  V54  1  0.75289529  0.12475930  0.87321432  1
  V  V55  1  0.49519328  0.00942573  0.50645664  1
  V  V56  1  0.87812231  0.87413450  -0.00918632  1
  V  V57  1  0.00261327  -0.00645098  -0.00748188  1
  V  V58  1  0.00260150  0.00198130  0.50726796  1
  V  V59  1  0.38281784  0.24931293  0.62006665  1
  V  V60  1  0.51133659  0.76439002  0.26087712  1
  V  V61  1  0.87510491  0.24670603  0.12658945  1
  V  V62  1  0.49813899  0.62113173  0.12856705  1
  V  V63  1  0.36706543  0.36616985  -0.00016755  1
  V  V64  1  0.49605313  0.75086691  0.75114083  1
  V  V65  1  0.75117809  -0.00242302  0.75078841  1
  V  V66  1  0.25292298  0.13249911  0.87766238  1
  V  V67  1  0.12548174  0.12573800  0.50462153  1
  V  V68  1  0.88085659  0.12275577  0.74283894  1
  V  V69  1  0.12547791  0.00237652  0.62645552  1
  V  V70  1  0.37962083  -0.00726973  0.87390107  1
  V  V71  1  0.12403435  0.24892295  0.37430501  1
  V  V72  1  0.37010527  0.50808633  0.87688296  1
  V  V73  1  0.00414039  0.24644907  0.74340028  1
  V  V74  1  0.24769789  0.50683134  0.75276764  1
  V  V75  1  0.74813480  0.24865678  -0.00064490  1
  V  V76  1  0.38082648  0.87504258  0.49687048  1
  V  V77  1  -0.00173649  0.24733426  0.25043773  1
  V  V78  1  0.25378587  0.50058628  0.26387063  1
  V  V79  1  0.74948183  0.38430672  0.64645510  1
  V  V80  1  0.73899882  0.75172518  0.49449145  1
  V  V81  1  0.61802337  0.00369700  0.62761282  1
  V  V82  1  0.13265188  0.87727096  0.25091033  1
  V  V83  1  0.74177086  0.63102999  0.37075062  1
  V  V84  1  0.25039177  0.12077483  0.36669180  1
  Zn  Zn85  1  0.62389014  0.24853750  0.37327071  1
  Zn  Zn86  1  0.63018874  0.25583878  0.86671890  1
  Zn  Zn87  1  0.12311636  0.50263075  0.62174254  1
  Zn  Zn88  1  0.25384179  0.24997940  0.49589615  1
  Zn  Zn89  1  0.73269867  0.61011482  0.85063002  1
  Zn  Zn90  1  0.88203393  -0.00881152  0.86897245  1
  Zn  Zn91  1  0.37074690  0.24700016  0.12587997  1
  Zn  Zn92  1  0.75403162  0.13772313  0.37911032  1
  Zn  Zn93  1  0.85858305  0.61945184  0.73009209  1
  Zn  Zn94  1  0.24635862  0.36500095  0.12210168  1
  Zn  Zn95  1  0.86761844  0.50293837  0.86139133  1
  Zn  Zn96  1  0.60695374  0.76242953  0.88950800  1
  Zn  Zn97  1  0.61941943  0.51476869  0.65693125  1
  Zn  Zn98  1  0.25407414  0.87929785  0.12841812  1
  Zn  Zn99  1  0.00028836  0.50077425  0.49993316  1
  Zn  Zn100  1  0.61875949  0.12816469  -0.00525555  1
  Zn  Zn101  1  0.71923407  -0.01052002  0.27840858  1
  Zn  Zn102  1  0.13188496  0.25141482  0.87827461  1
  Zn  Zn103  1  0.86583915  0.11920914  0.24675520  1
  Zn  Zn104  1  0.37791562  0.87118770  -0.00439414  1
  Zn  Zn105  1  0.12731296  0.37352384  0.24986378  1
  Zn  Zn106  1  0.38054701  0.74096742  0.61806317  1
  Zn  Zn107  1  0.19056049  0.18739426  0.18767613  1
  Zn  Zn108  1  0.19419871  0.18895295  0.68785657  1
  Zn  Zn109  1  0.19030966  0.68557250  0.18837655  1
  Zn  Zn110  1  0.18258282  0.68556910  0.68095420  1
  Zn  Zn111  1  0.69011858  0.17679201  0.19056066  1
  Zn  Zn112  1  0.68971494  0.18945470  0.68356508  1
  Zn  Zn113  1  0.68637444  0.69132579  0.18403156  1
  Zn  Zn114  1  0.67999032  0.69033287  0.68707691  1
  Zn  Zn115  1  0.31041086  0.31026727  0.31021058  1
  Zn  Zn116  1  0.31857250  0.31641972  0.81028092  1
  Zn  Zn117  1  0.31912963  0.81244366  0.31255772  1
  Zn  Zn118  1  0.30854548  0.80665264  0.81267948  1
  Zn  Zn119  1  0.80620876  0.30887939  0.31003843  1
  Zn  Zn120  1  0.82120398  0.30746283  0.81349456  1
  Zn  Zn121  1  0.81775232  0.81489913  0.31504748  1
  Zn  Zn122  1  0.79606685  0.78890264  0.80474576  1
  Zn  Zn123  1  0.18513653  0.43763934  0.43946083  1
  Zn  Zn124  1  0.18693022  0.43719466  0.93417973  1
  Zn  Zn125  1  0.19138032  0.93771948  0.43838118  1
  Zn  Zn126  1  0.19243011  0.93887751  0.93876233  1
  Zn  Zn127  1  0.68327926  0.43701077  0.42873952  1
  Zn  Zn128  1  0.69058264  0.44639156  0.82719951  1
  Zn  Zn129  1  0.68489715  0.93939235  0.44516273  1
  Zn  Zn130  1  0.69259320  0.93957307  0.94158962  1
  Zn  Zn131  1  0.31609118  0.06393759  0.06139132  1
  Zn  Zn132  1  0.30798480  0.06310219  0.56185390  1
  Zn  Zn133  1  0.31497014  0.56298765  0.06504727  1
  Zn  Zn134  1  0.30659915  0.56369497  0.55962596  1
  Zn  Zn135  1  0.81582507  0.06022201  0.05920120  1
  Zn  Zn136  1  0.81011959  0.05810478  0.56212671  1
  Zn  Zn137  1  0.80503575  0.56036609  -0.00053515  1
  Zn  Zn138  1  0.80650922  0.56020455  0.55851187  1
  Zn  Zn139  1  0.43397733  0.43669882  0.18672645  1
  Zn  Zn140  1  0.43733629  0.44307574  0.68836597  1
  Zn  Zn141  1  0.44157874  0.94312134  0.18651766  1
  Zn  Zn142  1  0.43666648  0.93392772  0.68661150  1
  Zn  Zn143  1  0.93634416  0.43674446  0.18597274  1
  Zn  Zn144  1  0.93649574  0.44240810  0.68376124  1
  Zn  Zn145  1  0.94417693  0.93459145  0.18398093  1
  Zn  Zn146  1  0.93832227  0.93319085  0.68710308  1
  Zn  Zn147  1  0.06158789  0.06110148  0.31333593  1
  Zn  Zn148  1  0.06558606  0.06407989  0.81384231  1
  Zn  Zn149  1  0.06277216  0.56040550  0.31059419  1
  Zn  Zn150  1  0.05801803  0.56236792  0.80933693  1
  Zn  Zn151  1  0.56902581  0.03847771  0.32875276  1
  Zn  Zn152  1  0.56323034  0.06496126  0.81297788  1
  Zn  Zn153  1  0.55800576  0.56067683  0.31556507  1
  Zn  Zn154  1  0.55568779  0.57170030  0.82128616  1
  Zn  Zn155  1  0.44523728  0.19314459  0.43497029  1
  Zn  Zn156  1  0.43960062  0.18371250  0.93459692  1
  Zn  Zn157  1  0.44084811  0.69078622  0.43877222  1
  Zn  Zn158  1  0.43453639  0.68783523  0.93491837  1
  Zn  Zn159  1  0.94104228  0.18811674  0.44177308  1
  Zn  Zn160  1  0.94142035  0.18426406  0.93546382  1
  Zn  Zn161  1  0.93410174  0.68568964  0.43731196  1
  Zn  Zn162  1  0.93796028  0.68832220  0.93515050  1
  Zn  Zn163  1  0.06407727  0.31128430  0.06649999  1
  Zn  Zn164  1  0.05832955  0.31429476  0.55872809  1
  Zn  Zn165  1  0.06323113  0.81354710  0.06470994  1
  Zn  Zn166  1  0.06582942  0.80940017  0.56571736  1
  Zn  Zn167  1  0.56149498  0.31352001  0.05804795  1
  Zn  Zn168  1  0.54984585  0.35659661  0.58182761  1
  Zn  Zn169  1  0.56013430  0.81557659  0.07758674  1
  Zn  Zn170  1  0.56166015  0.81184866  0.56784527  1
  O  O171  1  0.12167037  0.11697484  0.11895488  1
  O  O172  1  0.13708755  0.11857319  0.61406965  1
  O  O173  1  0.12082304  0.61788439  0.11760462  1
  O  O174  1  0.11287925  0.62325545  0.61443673  1
  O  O175  1  0.61802950  0.12210482  0.11489924  1
  O  O176  1  0.63325157  0.11039260  0.61952314  1
  O  O177  1  0.60616301  0.63084574  0.12112893  1
  O  O178  1  0.63441428  0.62251823  0.60875807  1
  O  O179  1  0.38116370  0.36937624  0.38353072  1
  O  O180  1  0.38081018  0.38508396  0.88474225  1
  O  O181  1  0.36519861  0.88618885  0.38794352  1
  O  O182  1  0.36675400  0.88933921  0.87215390  1
  O  O183  1  0.87661152  0.38070834  0.37680752  1
  O  O184  1  0.88569375  0.37454615  0.88457381  1
  O  O185  1  0.88924911  0.88321564  0.38449544  1
  O  O186  1  0.86519005  0.87114666  0.88935869  1
  O  O187  1  0.26121020  0.01084401  0.38382361  1
  O  O188  1  0.25860468  0.00921190  0.86911250  1
  O  O189  1  0.24695338  0.49909800  0.36205571  1
  O  O190  1  0.25847443  0.49265396  0.86265727  1
  O  O191  1  0.77912262  -0.00334204  0.38621980  1
  O  O192  1  0.75650033  0.00922370  0.86977063  1
  O  O193  1  0.75701454  0.50719692  0.36160268  1
  O  O194  1  0.75467013  0.50644949  0.89962390  1
  O  O195  1  0.24049205  0.49941125  0.12877643  1
  O  O196  1  0.24907819  0.48854846  0.63304694  1
  O  O197  1  0.23686426  0.99894646  0.11913311  1
  O  O198  1  0.24515799  0.98994471  0.63044871  1
  O  O199  1  0.75636790  0.48630920  0.12968737  1
  O  O200  1  0.74868612  0.48651448  0.62736764  1
  O  O201  1  0.74204280  0.99568294  0.11746174  1
  O  O202  1  0.74155311  0.98824036  0.63085773  1
  O  O203  1  0.00025744  0.36722708  0.25576156  1
  O  O204  1  0.00510516  0.36794315  0.75555342  1
  O  O205  1  0.00910059  0.86668231  0.25835499  1
  O  O206  1  0.01595513  0.86753841  0.74172884  1
  O  O207  1  0.50490311  0.37817457  0.25478948  1
  O  O208  1  0.48288958  0.36347090  0.76507991  1
  O  O209  1  0.49675552  0.86266845  0.24470760  1
  O  O210  1  0.50901484  0.87103750  0.74907851  1
  O  O211  1  0.49283707  0.11740605  0.23855588  1
  O  O212  1  0.48694155  0.13436993  0.75595947  1
  O  O213  1  0.48629924  0.62381308  0.24584557  1
  O  O214  1  0.48630275  0.63344701  0.75287559  1
  O  O215  1  0.99802450  0.12997376  0.24327609  1
  O  O216  1  0.99282896  0.13332343  0.75482980  1
  O  O217  1  0.99609889  0.63183960  0.24595135  1
  O  O218  1  1.00114423  0.63413546  0.74023556  1
  O  O219  1  0.37743388  0.26519999  -0.00762121  1
  O  O220  1  0.37433099  0.25408233  0.50871710  1
  O  O221  1  0.36716983  0.74915838  0.00735448  1
  O  O222  1  0.36750551  0.75697230  0.50093810  1
  O  O223  1  0.87255060  0.25576935  0.00369623  1
  O  O224  1  0.88209713  0.25780162  0.51097754  1
  O  O225  1  0.86888389  0.75725081  0.00869911  1
  O  O226  1  0.86450888  0.76290453  0.49386391  1
  O  O227  1  0.12334724  0.24037865  0.49439654  1
  O  O228  1  0.11863884  0.23404040  0.99926290  1
  O  O229  1  0.13194284  0.74008784  0.50062436  1
  O  O230  1  0.12931493  0.74419739  0.99535079  1
  O  O231  1  0.61851420  0.23143358  0.51406177  1
  O  O232  1  0.63885697  0.25022577  0.99365447  1
  O  O233  1  0.63524239  0.74785822  0.50018239  1
  O  O234  1  0.62695641  0.74862248  1.00917336  1
  O  O235  1  0.49463409  0.23523262  0.11271661  1
  O  O236  1  0.48762676  0.26573803  0.63462591  1
  O  O237  1  0.48878458  0.74189349  0.13633377  1
  O  O238  1  0.49511731  0.75547833  0.64211242  1
  O  O239  1  0.99490804  0.24322361  0.13023881  1
  O  O240  1  0.98958485  0.25806987  0.63605552  1
  O  O241  1  0.99670456  0.74651971  0.13415953  1
  O  O242  1  1.00609600  0.74203348  0.63559422  1
  O  O243  1  0.00408684  0.25400061  0.36994478  1
  O  O244  1  0.00155809  0.25878124  0.86402277  1
  O  O245  1  -0.00636497  0.75895475  0.36617719  1
  O  O246  1  0.01632381  0.74557749  0.86874280  1
  O  O247  1  0.50794233  0.26744241  0.37723450  1
  O  O248  1  0.50213622  0.25716714  0.86893673  1
  O  O249  1  0.49427434  0.75150201  0.35898202  1
  O  O250  1  0.49313474  0.75236848  0.86131442  1
  O  O251  1  0.24056566  0.12745178  0.49034789  1
  O  O252  1  0.24228377  0.11851838  0.98957629  1
  O  O253  1  0.23531638  0.63357772  0.50444668  1
  O  O254  1  0.23974205  0.63547362  1.00779181  1
  O  O255  1  0.73474993  0.11538319  0.49784329  1
  O  O256  1  0.75727124  0.13519284  0.98955024  1
  O  O257  1  0.74400871  0.63370934  0.48961449  1
  O  O258  1  0.73106447  0.64050958  1.02561376  1
  O  O259  1  0.26428004  0.38071918  -0.00193584  1
  O  O260  1  0.25879697  0.37257436  0.50468995  1
  O  O261  1  0.25164498  0.86175271  0.00448389  1
  O  O262  1  0.25460968  0.86762180  0.50704600  1
  O  O263  1  0.76324786  0.36226137  0.00690331  1
  O  O264  1  0.76147902  0.37874609  0.49564477  1
  O  O265  1  0.75887187  0.87101213  0.01223955  1
  O  O266  1  0.75509621  0.87057792  0.50491913  1
  O  O267  1  0.13811908  0.50308779  0.24286038  1
  O  O268  1  0.13320764  0.49302540  0.74947022  1
  O  O269  1  0.11713984  0.98991490  0.24005810  1
  O  O270  1  0.12998900  0.99339109  0.74717386  1
  O  O271  1  0.63572909  0.49431689  0.25017858  1
  O  O272  1  0.64667016  0.53408675  0.76624825  1
  O  O273  1  0.61383586  1.01477629  0.22162091  1
  O  O274  1  0.62915346  0.99484826  0.74557047  1
  O  O275  1  0.38029439  0.00745786  0.26331879  1
  O  O276  1  0.37255976  0.00677433  0.75373909  1
  O  O277  1  0.36337183  0.51123054  0.24533207  1
  O  O278  1  0.36806388  0.50588446  0.75617245  1
  O  O279  1  0.89153338  -0.00171715  0.26791858  1
  O  O280  1  0.87273740  0.00589915  0.74928913  1
  O  O281  1  0.86523494  0.50440845  0.25371731  1
  O  O282  1  0.87962182  0.51079704  0.75111905  1
  O  O283  1  0.11715249  0.36807866  0.37422888  1
  O  O284  1  0.11827667  0.37004267  0.86881231  1
  O  O285  1  0.11521668  0.88284256  0.36870155  1
  O  O286  1  0.13270074  0.86787797  0.86416075  1
  O  O287  1  0.61410884  0.37492485  0.36178874  1
  O  O288  1  0.60924997  0.37619725  0.87178241  1
  O  O289  1  0.63612881  0.94460828  0.34833193  1
  O  O290  1  0.63265444  0.87762237  0.86316553  1
  O  O291  1  0.38300236  0.12121676  0.13460993  1
  O  O292  1  0.36633163  0.13488353  0.63442253  1
  O  O293  1  0.38081206  0.63542059  0.13053797  1
  O  O294  1  0.37119320  0.62208351  0.63543288  1
  O  O295  1  0.88232785  0.12841336  0.12502307  1
  O  O296  1  0.86822275  0.13134314  0.63495839  1
  O  O297  1  0.88364202  0.63459102  0.13015387  1
  O  O298  1  0.88862493  0.62312163  0.61407797  1
  O  O299  1  0.25630230  0.25237076  0.12684151  1
  O  O300  1  0.26202802  0.26232332  0.62573123  1
  O  O301  1  0.25784333  0.75029690  0.11818667  1
  O  O302  1  0.25061580  0.75942140  0.61844287  1
  O  O303  1  0.75511307  0.25341749  0.11659741  1
  O  O304  1  0.76804072  0.26192710  0.63918939  1
  O  O305  1  0.75563519  0.76358647  0.12319776  1
  O  O306  1  0.74415510  0.76443397  0.61335972  1
  O  O307  1  0.24233504  0.23999143  0.37542659  1
  O  O308  1  0.25255021  0.23689865  0.86577413  1
  O  O309  1  0.25274276  0.75206608  0.38594857  1
  O  O310  1  0.23796332  0.74999598  0.88617114  1
  O  O311  1  0.73909497  0.24997735  0.37532535  1
  O  O312  1  0.75198975  0.24347890  0.88076789  1
  O  O313  1  0.75517461  0.74131438  0.37933883  1
  O  O314  1  0.74131181  0.75407334  0.90093089  1
  O  O315  1  0.00870424  0.11543433  0.00441945  1
  O  O316  1  0.01395535  0.11364154  0.49622888  1
  O  O317  1  0.01167058  0.61975736  0.00622538  1
  O  O318  1  0.00955952  0.62879445  0.50367477  1
  O  O319  1  0.49781779  0.11389188  0.00645432  1
  O  O320  1  0.50630376  0.11499769  0.50452418  1
  O  O321  1  0.50003231  0.62262937  0.00881714  1
  O  O322  1  0.51923464  0.62998475  0.49280281  1
  O  O323  1  0.48451473  0.37560535  0.48793762  1
  O  O324  1  0.49096979  0.38330083  0.99300966  1
  O  O325  1  0.48566916  0.88207780  0.50926767  1
  O  O326  1  0.49809022  0.88743491  1.00698723  1
  O  O327  1  0.98764317  0.37902100  0.49090957  1
  O  O328  1  0.99661582  0.37472223  0.99323891  1
  O  O329  1  0.99674923  0.87730617  0.49686857  1
  O  O330  1  0.99211172  0.88242764  1.00538450  1
  O  O331  1  0.50009452  0.48080355  0.37222845  1
  O  O332  1  0.48910551  0.49453985  0.88250617  1
  O  O333  1  0.48109263  1.00335136  0.39345188  1
  O  O334  1  0.49051299  1.00760947  0.88270163  1
  O  O335  1  0.98599466  0.49508438  0.36996759  1
  O  O336  1  1.00353296  0.48657332  0.88212331  1
  O  O337  1  0.99784422  0.99024216  0.38882819  1
  O  O338  1  1.00084749  1.00269294  0.88732023  1
  O  O339  1  0.01057734  0.00378999  0.11474029  1
  O  O340  1  0.00814254  -0.00728933  0.61405309  1
  O  O341  1  0.01153065  0.50456910  0.12211952  1
  O  O342  1  0.00387863  0.50974232  0.61898351  1
  O  O343  1  0.50511062  0.00836460  0.11264685  1
  O  O344  1  0.50805684  -0.00293358  0.62137818  1
  O  O345  1  0.48666496  0.51178083  0.11601432  1
  O  O346  1  0.52626808  0.46126280  0.62719756  1
  O  O347  1  0.25249164  0.39071067  0.24641660  1
  O  O348  1  0.24828271  0.38236331  0.74123594  1
  O  O349  1  0.23602470  0.86661256  0.25123581  1
  O  O350  1  0.24240412  0.87769860  0.74218163  1
  O  O351  1  0.74080664  0.38189756  0.23925349  1
  O  O352  1  0.75269980  0.37786613  0.75170006  1
  O  O353  1  0.76427540  0.88427153  0.23845574  1
  O  O354  1  0.74305510  0.87606747  0.74278499  1
  O  O355  1  0.25847941  0.12296025  0.26204818  1
  O  O356  1  0.25936185  0.11856958  0.75665294  1
  O  O357  1  0.26136263  0.61560502  0.24763814  1
  O  O358  1  0.25405242  0.61241960  0.74295827  1
  O  O359  1  0.75012143  0.10688407  0.26084604  1
  O  O360  1  0.75951358  0.11951173  0.75519562  1
  O  O361  1  0.75239588  0.62026664  0.25137483  1
  O  O362  1  0.76436945  0.67475125  0.76200033  1
  O  O363  1  0.37003608  0.12069685  0.37108868  1
  O  O364  1  0.36879350  0.11643069  0.86620840  1
  O  O365  1  0.37659530  0.62539262  0.36324558  1
  O  O366  1  0.37392554  0.61279504  0.86663641  1
  O  O367  1  0.88190684  0.11115208  0.37923077  1
  O  O368  1  0.86810467  0.12587082  0.86196268  1
  O  O369  1  0.86535860  0.61761867  0.36758510  1
  O  O370  1  0.86092294  0.61458631  0.90434438  1
  O  O371  1  0.12580871  0.38734016  0.12705376  1
  O  O372  1  0.13537168  0.37420674  0.62653640  1
  O  O373  1  0.12604540  0.88244864  0.13390244  1
  O  O374  1  0.13496411  0.88028488  0.63238203  1
  O  O375  1  0.63429238  0.37211255  0.12736352  1
  O  O376  1  0.65578277  0.36106036  0.62211760  1
  O  O377  1  0.63853859  0.88723932  0.12103178  1
  O  O378  1  0.63178710  0.88405108  0.63434065  1
  O  O379  1  0.11724825  0.25030899  0.25683314  1
  O  O380  1  0.11812957  0.25392986  0.74855423  1
  O  O381  1  0.11403668  0.75605992  0.24391865  1
  O  O382  1  0.12297877  0.75572768  0.75745822  1
  O  O383  1  0.62753772  0.26216539  0.24364273  1
  O  O384  1  0.60873172  0.24243310  0.74722604  1
  O  O385  1  0.60983380  0.74665571  0.24712238  1
  O  O386  1  0.61304125  0.75973926  0.75390559  1
  O  O387  1  0.37574368  0.23435431  0.25159999  1
  O  O388  1  0.38152598  0.24288262  0.74233207  1
  O  O389  1  0.37682818  0.73727215  0.24478719  1
  O  O390  1  0.37537878  0.74017594  0.74795509  1
  O  O391  1  0.87972475  0.24522248  0.24355415  1
  O  O392  1  0.88608652  0.24178401  0.74285392  1
  O  O393  1  0.88617337  0.74649217  0.24607896  1
  O  O394  1  0.89701192  0.75779770  0.76056518  1
  O  O395  1  0.36806489  0.48805019  0.49857004  1
  O  O396  1  0.38042896  0.49707685  0.99241399  1
  O  O397  1  0.37844797  0.99461851  0.49980117  1
  O  O398  1  0.38123585  0.99687955  0.99059332  1
  O  O399  1  0.87283722  0.49320364  0.48438320  1
  O  O400  1  0.88716655  0.48101389  1.01094370  1
  O  O401  1  0.88697260  0.99130498  0.49692183  1
  O  O402  1  0.88583559  0.99154256  0.99709554  1
  O  O403  1  0.11998174  0.00539092  0.00618193  1
  O  O404  1  0.12078499  0.00538675  0.50543476  1
  O  O405  1  0.12384873  0.50651172  0.00548776  1
  O  O406  1  0.12396037  0.51497082  0.49928408  1
  O  O407  1  0.61720201  0.00451223  0.00295180  1
  O  O408  1  0.61191755  0.00214343  0.51282979  1
  O  O409  1  0.60534077  0.51382676  0.00101168  1
  O  O410  1  0.63034446  0.51164026  0.49767878  1
  O  O411  1  0.37647893  0.37380857  0.10810081  1
  O  O412  1  0.36839209  0.37122012  0.61169731  1
  O  O413  1  0.37339394  0.86299696  0.12671811  1
  O  O414  1  0.36268165  0.87534854  0.61692579  1
  O  O415  1  0.86867852  0.36575364  0.11918339  1
  O  O416  1  0.86481467  0.37123737  0.61687027  1
  O  O417  1  0.87080810  0.87242577  0.11719760  1
  O  O418  1  0.86411912  0.88166091  0.61480248  1
  O  O419  1  0.13215370  0.12638334  0.38168808  1
  O  O420  1  0.13557072  0.12614606  0.88241805  1
  O  O421  1  0.11817122  0.62574903  0.38686136  1
  O  O422  1  0.12216616  0.62996359  0.88669935  1
  O  O423  1  0.61986238  0.12559866  0.39385004  1
  O  O424  1  0.64142212  0.12793513  0.87409553  1
  O  O425  1  0.63741706  0.61851377  0.38165443  1
  O  O426  1  0.62152100  0.63751384  0.89738898  1
