# generated using pymatgen
data_La5.76Ce5.76Pr19.2Nd20.48Sm12.8Bi64S128O32F32
_symmetry_space_group_name_H-M   'P 1'
_cell_length_a   16.08184000
_cell_length_b   16.08184000
_cell_length_c   26.83460000
_cell_angle_alpha   90.00000000
_cell_angle_beta   90.00000000
_cell_angle_gamma   90.00000000
_symmetry_Int_Tables_number   1
_chemical_formula_structural
La5.76Ce5.76Pr19.2Nd20.48Sm12.8Bi64S128O32F32
_chemical_formula_sum
'La5.76 Ce5.76 Pr19.2 Nd20.48 Sm12.8 Bi64 S128 O32 F32'
_cell_volume   6940.11392965
_cell_formula_units_Z   1
loop_
 _symmetry_equiv_pos_site_id
 _symmetry_equiv_pos_as_xyz
  1  'x, y, z'
loop_
 _atom_type_symbol
 _atom_type_oxidation_number
  La3+  3.0
  Ce3+  3.0
  Pr3+  3.0
  Nd3+  3.0
  Sm3+  3.0
  Bi2+  2.0
  S2-  -2.0
  O-  -1.0
  F-  -1.0
loop_
 _atom_site_type_symbol
 _atom_site_label
 _atom_site_symmetry_multiplicity
 _atom_site_fract_x
 _atom_site_fract_y
 _atom_site_fract_z
 _atom_site_occupancy
  La3+  Sm1  1  0.75000000  0.87500000  0.04893000  1.0
  La3+  Sm1  1  0.12500000  0.00000000  0.95107000  1.0
  La3+  Sm1  1  0.87500000  0.50000000  0.45107000  1.0
  La3+  Sm1  1  0.00000000  0.12500000  0.54893000  1.0
  La3+  Sm1  1  0.75000000  0.62500000  0.04893000  1.0
  La3+  Sm1  1  0.00000000  0.87500000  0.04893000  1.0
  Ce3+  Sm1  1  0.37500000  0.75000000  0.45107000  1.0
  Ce3+  Sm1  1  0.00000000  0.87500000  0.54893000  1.0
  Ce3+  Sm1  1  0.62500000  0.25000000  0.95107000  1.0
  Ce3+  Sm1  1  0.12500000  0.50000000  0.95107000  1.0
  Ce3+  Sm1  1  0.50000000  0.62500000  0.04893000  1.0
  Ce3+  Sm1  1  0.25000000  0.62500000  0.54893000  1.0
  Pr3+  Sm1  1  0.00000000  0.62500000  0.04893000  1.0
  Pr3+  Sm1  1  0.75000000  0.12500000  0.54893000  1.0
  Pr3+  Sm1  1  0.50000000  0.12500000  0.04893000  1.0
  Pr3+  Sm1  1  0.75000000  0.12500000  0.04893000  1.0
  Pr3+  Sm1  1  0.12500000  0.25000000  0.95107000  1.0
  Pr3+  Sm1  1  0.62500000  0.75000000  0.95107000  1.0
  Pr3+  Sm1  1  0.75000000  0.37500000  0.54893000  1.0
  Pr3+  Sm1  1  0.87500000  0.25000000  0.45107000  1.0
  Pr3+  Sm1  1  0.75000000  0.62500000  0.54893000  1.0
  Pr3+  Sm1  1  0.12500000  0.75000000  0.95107000  1.0
  Pr3+  Sm1  1  0.37500000  0.50000000  0.95107000  1.0
  Pr3+  Sm1  1  0.87500000  0.25000000  0.95107000  1.0
  Pr3+  Sm1  1  0.62500000  0.00000000  0.45107000  1.0
  Pr3+  Sm1  1  0.37500000  0.25000000  0.45107000  1.0
  Pr3+  Sm1  1  0.62500000  0.00000000  0.95107000  1.0
  Pr3+  Sm1  1  0.25000000  0.37500000  0.54893000  1.0
  Pr3+  Sm1  1  0.00000000  0.12500000  0.04893000  1.0
  Pr3+  Sm1  1  0.75000000  0.87500000  0.54893000  1.0
  Pr3+  Sm1  1  0.25000000  0.37500000  0.04893000  1.0
  Nd3+  Sm1  1  0.75000000  0.37500000  0.04893000  1.0
  Nd3+  Sm1  1  0.50000000  0.12500000  0.54893000  1.0
  Nd3+  Sm1  1  0.62500000  0.75000000  0.45107000  1.0
  Nd3+  Sm1  1  0.12500000  0.25000000  0.45107000  1.0
  Nd3+  Sm1  1  0.12500000  0.50000000  0.45107000  1.0
  Nd3+  Sm1  1  0.12500000  0.75000000  0.45107000  1.0
  Nd3+  Sm1  1  0.50000000  0.87500000  0.54893000  1.0
  Nd3+  Sm1  1  0.25000000  0.62500000  0.04893000  1.0
  Nd3+  Sm1  1  0.00000000  0.37500000  0.54893000  1.0
  Nd3+  Sm1  1  0.00000000  0.37500000  0.04893000  1.0
  Nd3+  Sm1  1  0.50000000  0.37500000  0.04893000  1.0
  Nd3+  Sm1  1  0.62500000  0.25000000  0.45107000  1.0
  Nd3+  Sm1  1  0.62500000  0.50000000  0.45107000  1.0
  Nd3+  Sm1  1  0.37500000  0.50000000  0.45107000  1.0
  Nd3+  Sm1  1  0.87500000  0.00000000  0.95107000  1.0
  Nd3+  Sm1  1  0.37500000  0.00000000  0.45107000  1.0
  Nd3+  Sm1  1  0.00000000  0.62500000  0.54893000  1.0
  Nd3+  Sm1  1  0.25000000  0.87500000  0.04893000  1.0
  Nd3+  Sm1  1  0.87500000  0.50000000  0.95107000  1.0
  Nd3+  Sm1  1  0.87500000  0.75000000  0.95107000  1.0
  Sm3+  Sm1  1  0.87500000  0.75000000  0.45107000  1.0
  Sm3+  Sm1  1  0.37500000  0.75000000  0.95107000  1.0
  Sm3+  Sm1  1  0.25000000  0.12500000  0.54893000  1.0
  Sm3+  Sm1  1  0.12500000  0.00000000  0.45107000  1.0
  Sm3+  Sm1  1  0.25000000  0.12500000  0.04893000  1.0
  Sm3+  Sm1  1  0.62500000  0.50000000  0.95107000  1.0
  Sm3+  Sm1  1  0.50000000  0.87500000  0.04893000  1.0
  Sm3+  Sm1  1  0.37500000  0.00000000  0.95107000  1.0
  Sm3+  Sm1  1  0.37500000  0.25000000  0.95107000  1.0
  Sm3+  Sm1  1  0.50000000  0.62500000  0.54893000  1.0
  Sm3+  Sm1  1  0.25000000  0.87500000  0.54893000  1.0
  Sm3+  Sm1  1  0.87500000  0.00000000  0.45107000  1.0
  Sm3+  Sm1  1  0.50000000  0.37500000  0.54893000  1.0
  Bi2+  Bi1  1  0.00000000  0.12500000  0.31249500  1.0
  Bi2+  Bi1  1  0.00000000  0.12500000  0.81249500  1.0
  Bi2+  Bi1  1  0.00000000  0.37500000  0.31249500  1.0
  Bi2+  Bi1  1  0.00000000  0.37500000  0.81249500  1.0
  Bi2+  Bi1  1  0.00000000  0.62500000  0.31249500  1.0
  Bi2+  Bi1  1  0.00000000  0.62500000  0.81249500  1.0
  Bi2+  Bi1  1  0.00000000  0.87500000  0.31249500  1.0
  Bi2+  Bi1  1  0.00000000  0.87500000  0.81249500  1.0
  Bi2+  Bi1  1  0.25000000  0.12500000  0.31249500  1.0
  Bi2+  Bi1  1  0.25000000  0.12500000  0.81249500  1.0
  Bi2+  Bi1  1  0.25000000  0.37500000  0.31249500  1.0
  Bi2+  Bi1  1  0.25000000  0.37500000  0.81249500  1.0
  Bi2+  Bi1  1  0.25000000  0.62500000  0.31249500  1.0
  Bi2+  Bi1  1  0.25000000  0.62500000  0.81249500  1.0
  Bi2+  Bi1  1  0.25000000  0.87500000  0.31249500  1.0
  Bi2+  Bi1  1  0.25000000  0.87500000  0.81249500  1.0
  Bi2+  Bi1  1  0.50000000  0.12500000  0.31249500  1.0
  Bi2+  Bi1  1  0.50000000  0.12500000  0.81249500  1.0
  Bi2+  Bi1  1  0.50000000  0.37500000  0.31249500  1.0
  Bi2+  Bi1  1  0.50000000  0.37500000  0.81249500  1.0
  Bi2+  Bi1  1  0.50000000  0.62500000  0.31249500  1.0
  Bi2+  Bi1  1  0.50000000  0.62500000  0.81249500  1.0
  Bi2+  Bi1  1  0.50000000  0.87500000  0.31249500  1.0
  Bi2+  Bi1  1  0.50000000  0.87500000  0.81249500  1.0
  Bi2+  Bi1  1  0.75000000  0.12500000  0.31249500  1.0
  Bi2+  Bi1  1  0.75000000  0.12500000  0.81249500  1.0
  Bi2+  Bi1  1  0.75000000  0.37500000  0.31249500  1.0
  Bi2+  Bi1  1  0.75000000  0.37500000  0.81249500  1.0
  Bi2+  Bi1  1  0.75000000  0.62500000  0.31249500  1.0
  Bi2+  Bi1  1  0.75000000  0.62500000  0.81249500  1.0
  Bi2+  Bi1  1  0.75000000  0.87500000  0.31249500  1.0
  Bi2+  Bi1  1  0.75000000  0.87500000  0.81249500  1.0
  Bi2+  Bi1  1  0.12500000  0.00000000  0.18750500  1.0
  Bi2+  Bi1  1  0.12500000  0.00000000  0.68750500  1.0
  Bi2+  Bi1  1  0.12500000  0.25000000  0.18750500  1.0
  Bi2+  Bi1  1  0.12500000  0.25000000  0.68750500  1.0
  Bi2+  Bi1  1  0.12500000  0.50000000  0.18750500  1.0
  Bi2+  Bi1  1  0.12500000  0.50000000  0.68750500  1.0
  Bi2+  Bi1  1  0.12500000  0.75000000  0.18750500  1.0
  Bi2+  Bi1  1  0.12500000  0.75000000  0.68750500  1.0
  Bi2+  Bi1  1  0.37500000  0.00000000  0.18750500  1.0
  Bi2+  Bi1  1  0.37500000  0.00000000  0.68750500  1.0
  Bi2+  Bi1  1  0.37500000  0.25000000  0.18750500  1.0
  Bi2+  Bi1  1  0.37500000  0.25000000  0.68750500  1.0
  Bi2+  Bi1  1  0.37500000  0.50000000  0.18750500  1.0
  Bi2+  Bi1  1  0.37500000  0.50000000  0.68750500  1.0
  Bi2+  Bi1  1  0.37500000  0.75000000  0.18750500  1.0
  Bi2+  Bi1  1  0.37500000  0.75000000  0.68750500  1.0
  Bi2+  Bi1  1  0.62500000  0.00000000  0.18750500  1.0
  Bi2+  Bi1  1  0.62500000  0.00000000  0.68750500  1.0
  Bi2+  Bi1  1  0.62500000  0.25000000  0.18750500  1.0
  Bi2+  Bi1  1  0.62500000  0.25000000  0.68750500  1.0
  Bi2+  Bi1  1  0.62500000  0.50000000  0.18750500  1.0
  Bi2+  Bi1  1  0.62500000  0.50000000  0.68750500  1.0
  Bi2+  Bi1  1  0.62500000  0.75000000  0.18750500  1.0
  Bi2+  Bi1  1  0.62500000  0.75000000  0.68750500  1.0
  Bi2+  Bi1  1  0.87500000  0.00000000  0.18750500  1.0
  Bi2+  Bi1  1  0.87500000  0.00000000  0.68750500  1.0
  Bi2+  Bi1  1  0.87500000  0.25000000  0.18750500  1.0
  Bi2+  Bi1  1  0.87500000  0.25000000  0.68750500  1.0
  Bi2+  Bi1  1  0.87500000  0.50000000  0.18750500  1.0
  Bi2+  Bi1  1  0.87500000  0.50000000  0.68750500  1.0
  Bi2+  Bi1  1  0.87500000  0.75000000  0.18750500  1.0
  Bi2+  Bi1  1  0.87500000  0.75000000  0.68750500  1.0
  S2-  S1  1  0.00000000  0.12500000  0.18740000  1.0
  S2-  S1  1  0.00000000  0.12500000  0.68740000  1.0
  S2-  S1  1  0.00000000  0.37500000  0.18740000  1.0
  S2-  S1  1  0.00000000  0.37500000  0.68740000  1.0
  S2-  S1  1  0.00000000  0.62500000  0.18740000  1.0
  S2-  S1  1  0.00000000  0.62500000  0.68740000  1.0
  S2-  S1  1  0.00000000  0.87500000  0.18740000  1.0
  S2-  S1  1  0.00000000  0.87500000  0.68740000  1.0
  S2-  S1  1  0.25000000  0.12500000  0.18740000  1.0
  S2-  S1  1  0.25000000  0.12500000  0.68740000  1.0
  S2-  S1  1  0.25000000  0.37500000  0.18740000  1.0
  S2-  S1  1  0.25000000  0.37500000  0.68740000  1.0
  S2-  S1  1  0.25000000  0.62500000  0.18740000  1.0
  S2-  S1  1  0.25000000  0.62500000  0.68740000  1.0
  S2-  S1  1  0.25000000  0.87500000  0.18740000  1.0
  S2-  S1  1  0.25000000  0.87500000  0.68740000  1.0
  S2-  S1  1  0.50000000  0.12500000  0.18740000  1.0
  S2-  S1  1  0.50000000  0.12500000  0.68740000  1.0
  S2-  S1  1  0.50000000  0.37500000  0.18740000  1.0
  S2-  S1  1  0.50000000  0.37500000  0.68740000  1.0
  S2-  S1  1  0.50000000  0.62500000  0.18740000  1.0
  S2-  S1  1  0.50000000  0.62500000  0.68740000  1.0
  S2-  S1  1  0.50000000  0.87500000  0.18740000  1.0
  S2-  S1  1  0.50000000  0.87500000  0.68740000  1.0
  S2-  S1  1  0.75000000  0.12500000  0.18740000  1.0
  S2-  S1  1  0.75000000  0.12500000  0.68740000  1.0
  S2-  S1  1  0.75000000  0.37500000  0.18740000  1.0
  S2-  S1  1  0.75000000  0.37500000  0.68740000  1.0
  S2-  S1  1  0.75000000  0.62500000  0.18740000  1.0
  S2-  S1  1  0.75000000  0.62500000  0.68740000  1.0
  S2-  S1  1  0.75000000  0.87500000  0.18740000  1.0
  S2-  S1  1  0.75000000  0.87500000  0.68740000  1.0
  S2-  S1  1  0.12500000  0.00000000  0.31260000  1.0
  S2-  S1  1  0.12500000  0.00000000  0.81260000  1.0
  S2-  S1  1  0.12500000  0.25000000  0.31260000  1.0
  S2-  S1  1  0.12500000  0.25000000  0.81260000  1.0
  S2-  S1  1  0.12500000  0.50000000  0.31260000  1.0
  S2-  S1  1  0.12500000  0.50000000  0.81260000  1.0
  S2-  S1  1  0.12500000  0.75000000  0.31260000  1.0
  S2-  S1  1  0.12500000  0.75000000  0.81260000  1.0
  S2-  S1  1  0.37500000  0.00000000  0.31260000  1.0
  S2-  S1  1  0.37500000  0.00000000  0.81260000  1.0
  S2-  S1  1  0.37500000  0.25000000  0.31260000  1.0
  S2-  S1  1  0.37500000  0.25000000  0.81260000  1.0
  S2-  S1  1  0.37500000  0.50000000  0.31260000  1.0
  S2-  S1  1  0.37500000  0.50000000  0.81260000  1.0
  S2-  S1  1  0.37500000  0.75000000  0.31260000  1.0
  S2-  S1  1  0.37500000  0.75000000  0.81260000  1.0
  S2-  S1  1  0.62500000  0.00000000  0.31260000  1.0
  S2-  S1  1  0.62500000  0.00000000  0.81260000  1.0
  S2-  S1  1  0.62500000  0.25000000  0.31260000  1.0
  S2-  S1  1  0.62500000  0.25000000  0.81260000  1.0
  S2-  S1  1  0.62500000  0.50000000  0.31260000  1.0
  S2-  S1  1  0.62500000  0.50000000  0.81260000  1.0
  S2-  S1  1  0.62500000  0.75000000  0.31260000  1.0
  S2-  S1  1  0.62500000  0.75000000  0.81260000  1.0
  S2-  S1  1  0.87500000  0.00000000  0.31260000  1.0
  S2-  S1  1  0.87500000  0.00000000  0.81260000  1.0
  S2-  S1  1  0.87500000  0.25000000  0.31260000  1.0
  S2-  S1  1  0.87500000  0.25000000  0.81260000  1.0
  S2-  S1  1  0.87500000  0.50000000  0.31260000  1.0
  S2-  S1  1  0.87500000  0.50000000  0.81260000  1.0
  S2-  S1  1  0.87500000  0.75000000  0.31260000  1.0
  S2-  S1  1  0.87500000  0.75000000  0.81260000  1.0
  S2-  S2  1  0.00000000  0.12500000  0.40745000  1.0
  S2-  S2  1  0.00000000  0.12500000  0.90745000  1.0
  S2-  S2  1  0.00000000  0.37500000  0.40745000  1.0
  S2-  S2  1  0.00000000  0.37500000  0.90745000  1.0
  S2-  S2  1  0.00000000  0.62500000  0.40745000  1.0
  S2-  S2  1  0.00000000  0.62500000  0.90745000  1.0
  S2-  S2  1  0.00000000  0.87500000  0.40745000  1.0
  S2-  S2  1  0.00000000  0.87500000  0.90745000  1.0
  S2-  S2  1  0.25000000  0.12500000  0.40745000  1.0
  S2-  S2  1  0.25000000  0.12500000  0.90745000  1.0
  S2-  S2  1  0.25000000  0.37500000  0.40745000  1.0
  S2-  S2  1  0.25000000  0.37500000  0.90745000  1.0
  S2-  S2  1  0.25000000  0.62500000  0.40745000  1.0
  S2-  S2  1  0.25000000  0.62500000  0.90745000  1.0
  S2-  S2  1  0.25000000  0.87500000  0.40745000  1.0
  S2-  S2  1  0.25000000  0.87500000  0.90745000  1.0
  S2-  S2  1  0.50000000  0.12500000  0.40745000  1.0
  S2-  S2  1  0.50000000  0.12500000  0.90745000  1.0
  S2-  S2  1  0.50000000  0.37500000  0.40745000  1.0
  S2-  S2  1  0.50000000  0.37500000  0.90745000  1.0
  S2-  S2  1  0.50000000  0.62500000  0.40745000  1.0
  S2-  S2  1  0.50000000  0.62500000  0.90745000  1.0
  S2-  S2  1  0.50000000  0.87500000  0.40745000  1.0
  S2-  S2  1  0.50000000  0.87500000  0.90745000  1.0
  S2-  S2  1  0.75000000  0.12500000  0.40745000  1.0
  S2-  S2  1  0.75000000  0.12500000  0.90745000  1.0
  S2-  S2  1  0.75000000  0.37500000  0.40745000  1.0
  S2-  S2  1  0.75000000  0.37500000  0.90745000  1.0
  S2-  S2  1  0.75000000  0.62500000  0.40745000  1.0
  S2-  S2  1  0.75000000  0.62500000  0.90745000  1.0
  S2-  S2  1  0.75000000  0.87500000  0.40745000  1.0
  S2-  S2  1  0.75000000  0.87500000  0.90745000  1.0
  S2-  S2  1  0.12500000  0.00000000  0.09255000  1.0
  S2-  S2  1  0.12500000  0.00000000  0.59255000  1.0
  S2-  S2  1  0.12500000  0.25000000  0.09255000  1.0
  S2-  S2  1  0.12500000  0.25000000  0.59255000  1.0
  S2-  S2  1  0.12500000  0.50000000  0.09255000  1.0
  S2-  S2  1  0.12500000  0.50000000  0.59255000  1.0
  S2-  S2  1  0.12500000  0.75000000  0.09255000  1.0
  S2-  S2  1  0.12500000  0.75000000  0.59255000  1.0
  S2-  S2  1  0.37500000  0.00000000  0.09255000  1.0
  S2-  S2  1  0.37500000  0.00000000  0.59255000  1.0
  S2-  S2  1  0.37500000  0.25000000  0.09255000  1.0
  S2-  S2  1  0.37500000  0.25000000  0.59255000  1.0
  S2-  S2  1  0.37500000  0.50000000  0.09255000  1.0
  S2-  S2  1  0.37500000  0.50000000  0.59255000  1.0
  S2-  S2  1  0.37500000  0.75000000  0.09255000  1.0
  S2-  S2  1  0.37500000  0.75000000  0.59255000  1.0
  S2-  S2  1  0.62500000  0.00000000  0.09255000  1.0
  S2-  S2  1  0.62500000  0.00000000  0.59255000  1.0
  S2-  S2  1  0.62500000  0.25000000  0.09255000  1.0
  S2-  S2  1  0.62500000  0.25000000  0.59255000  1.0
  S2-  S2  1  0.62500000  0.50000000  0.09255000  1.0
  S2-  S2  1  0.62500000  0.50000000  0.59255000  1.0
  S2-  S2  1  0.62500000  0.75000000  0.09255000  1.0
  S2-  S2  1  0.62500000  0.75000000  0.59255000  1.0
  S2-  S2  1  0.87500000  0.00000000  0.09255000  1.0
  S2-  S2  1  0.87500000  0.00000000  0.59255000  1.0
  S2-  S2  1  0.87500000  0.25000000  0.09255000  1.0
  S2-  S2  1  0.87500000  0.25000000  0.59255000  1.0
  S2-  S2  1  0.87500000  0.50000000  0.09255000  1.0
  S2-  S2  1  0.87500000  0.50000000  0.59255000  1.0
  S2-  S2  1  0.87500000  0.75000000  0.09255000  1.0
  S2-  S2  1  0.87500000  0.75000000  0.59255000  1.0
