# generated using pymatgen
data_V79Zn79O256
_symmetry_space_group_name_H-M   'P 1'
_cell_length_a   16.89525472
_cell_length_b   16.87859925
_cell_length_c   16.88189241
_cell_angle_alpha   89.97383914
_cell_angle_beta   90.05101556
_cell_angle_gamma   90.10631105
_symmetry_Int_Tables_number   1
_chemical_formula_structural   V79Zn79O256
_chemical_formula_sum   'V79 Zn79 O256'
_cell_volume   4814.16874690
_cell_formula_units_Z   1
loop_
 _symmetry_equiv_pos_site_id
 _symmetry_equiv_pos_as_xyz
  1  'x, y, z'
loop_
 _atom_site_type_symbol
 _atom_site_label
 _atom_site_symmetry_multiplicity
 _atom_site_fract_x
 _atom_site_fract_y
 _atom_site_fract_z
 _atom_site_occupancy
  V  V0  1  0.24904323  0.00385772  0.26110403  1
  V  V1  1  0.61699736  -0.00020858  0.62391833  1
  V  V2  1  0.50614210  0.48633925  -0.00244546  1
  V  V3  1  0.87148685  0.12237467  0.75163289  1
  V  V4  1  0.26126879  0.87709926  0.11133883  1
  V  V5  1  0.49082325  -0.01296421  0.00824450  1
  V  V6  1  0.12625159  0.75153786  0.37278300  1
  V  V7  1  -0.00224257  0.00476823  0.49854377  1
  V  V8  1  0.12674014  0.87464184  0.24947334  1
  V  V9  1  0.74226272  0.63047141  0.37755268  1
  V  V10  1  0.25166624  0.75425437  0.50568641  1
  V  V11  1  0.50037064  0.63325850  0.63497763  1
  V  V12  1  0.75204620  0.12152812  0.36390299  1
  V  V13  1  0.74031129  0.74782645  -0.00150698  1
  V  V14  1  0.12942540  0.62225482  0.50685476  1
  V  V15  1  0.87453907  0.74719050  0.12249917  1
  V  V16  1  0.24348521  0.62237282  0.91312369  1
  V  V17  1  0.12574764  0.36982870  0.24845478  1
  V  V18  1  0.00082806  0.50399599  0.00116234  1
  V  V19  1  0.88012275  0.50810356  0.36805160  1
  V  V20  1  0.36406640  0.00934341  0.87492204  1
  V  V21  1  0.12242782  0.75195325  0.88994508  1
  V  V22  1  0.86552241  0.49729843  0.86856041  1
  V  V23  1  0.49707398  0.12289735  0.12696136  1
  V  V24  1  0.73505256  0.87921029  0.12606686  1
  V  V25  1  0.87545858  0.87582524  0.49840914  1
  V  V26  1  0.29094033  0.36940031  0.58856140  1
  V  V27  1  0.37587231  0.25888803  0.12865008  1
  V  V28  1  0.74652195  -0.00176543  0.75345824  1
  V  V29  1  0.74261457  0.37581125  0.12760454  1
  V  V30  1  0.25499102  0.62860814  0.36967057  1
  V  V31  1  0.12585158  0.50649330  0.12233739  1
  V  V32  1  -0.01160041  -0.00144056  -0.00117115  1
  V  V33  1  -0.00239975  0.74213668  0.24741902  1
  V  V34  1  0.52339256  0.51463889  0.49659099  1
  V  V35  1  0.12699036  -0.00150032  0.62722538  1
  V  V36  1  0.86937250  0.62116764  0.74778449  1
  V  V37  1  0.00335789  0.36497071  0.37151089  1
  V  V38  1  0.38082055  0.88221419  0.49630536  1
  V  V39  1  0.12146939  0.23724327  0.87465262  1
  V  V40  1  0.24913033  0.87500148  0.63865680  1
  V  V41  1  0.48541966  0.86801203  0.85715674  1
  V  V42  1  0.24715365  0.02791852  0.75274610  1
  V  V43  1  0.62060352  0.11676684  0.00328074  1
  V  V44  1  0.61687400  0.75786593  0.86097388  1
  V  V45  1  0.87098465  0.37075809  -0.00030865  1
  V  V46  1  0.36091695  0.62221990  0.75791105  1
  V  V47  1  0.38941085  0.00352694  0.38010880  1
  V  V48  1  -0.00018583  0.62772878  0.62630572  1
  V  V49  1  0.00599786  0.49967464  0.50163464  1
  V  V50  1  0.74940078  0.24784860  0.49891178  1
  V  V51  1  0.74569096  0.24680337  -0.00068680  1
  V  V52  1  0.73852838  0.62347934  0.87495515  1
  V  V53  1  0.87693548  0.75025184  0.62736341  1
  V  V54  1  -0.00317176  0.37423039  0.87572832  1
  V  V55  1  0.25412878  0.24960257  -0.00844906  1
  V  V56  1  0.12404228  0.00358381  0.12454565  1
  V  V57  1  0.12277606  0.39710823  0.74436908  1
  V  V58  1  0.14438634  0.24848001  0.37523073  1
  V  V59  1  0.63449224  0.50751317  0.64323719  1
  V  V60  1  0.38597092  0.74150498  0.13048689  1
  V  V61  1  0.87990698  0.24710520  0.14159484  1
  V  V62  1  0.87370260  0.24937400  0.62343914  1
  V  V63  1  0.49754638  0.37446313  0.37977602  1
  V  V64  1  0.37631248  0.50451253  0.38481168  1
  V  V65  1  -0.00279300  0.24778882  0.75109630  1
  V  V66  1  0.74885500  0.50586145  0.24497555  1
  V  V67  1  0.25627465  0.50266066  0.25067752  1
  V  V68  1  0.87241900  0.00053862  0.35927527  1
  V  V69  1  0.74697551  0.87579301  0.62870331  1
  V  V70  1  0.87728757  0.37350269  0.49843114  1
  V  V71  1  0.75148851  0.11940748  0.87771931  1
  V  V72  1  0.13644349  0.12989990  0.49429317  1
  V  V73  1  0.62169260  0.36410699  0.75433323  1
  V  V74  1  0.37360507  0.12684664  0.25492881  1
  V  V75  1  0.52648514  0.61570916  0.12564322  1
  V  V76  1  0.62268175  0.25135782  0.36951508  1
  V  V77  1  0.61315278  0.12197649  0.50282554  1
  V  V78  1  -0.00274232  0.12890995  0.14018591  1
  Zn  Zn79  1  0.36782739  0.47454976  0.89514221  1
  Zn  Zn80  1  0.75136231  0.38468341  0.62650238  1
  Zn  Zn81  1  0.99216421  -0.14904407  0.84228165  1
  Zn  Zn82  1  -0.00134001  0.87540968  0.37135932  1
  Zn  Zn83  1  0.00124279  0.12705252  0.62430049  1
  Zn  Zn84  1  0.61439532  0.24759593  0.87145591  1
  Zn  Zn85  1  0.12420872  0.12391898  -0.00085700  1
  Zn  Zn86  1  0.86986308  0.87815750  -0.01308558  1
  Zn  Zn87  1  0.72197574  -0.01002895  0.24662794  1
  Zn  Zn88  1  0.42795029  0.80028961  0.67758040  1
  Zn  Zn89  1  0.25819019  0.38325074  0.11391905  1
  Zn  Zn90  1  0.41721296  0.20343887  0.64994393  1
  Zn  Zn91  1  0.61829624  0.37541348  0.24508049  1
  Zn  Zn92  1  -0.00264180  0.62453086  0.12404744  1
  Zn  Zn93  1  0.74339517  0.74845020  0.49334903  1
  Zn  Zn94  1  0.19230725  0.18942623  0.18500862  1
  Zn  Zn95  1  0.18822271  0.20401834  0.68020381  1
  Zn  Zn96  1  0.19354594  0.69105050  0.17731130  1
  Zn  Zn97  1  0.19089089  0.69740011  0.69509067  1
  Zn  Zn98  1  0.68555153  0.18817256  0.18510330  1
  Zn  Zn99  1  0.68263896  0.18683455  0.68367564  1
  Zn  Zn100  1  0.69512602  0.68734487  0.18988448  1
  Zn  Zn101  1  0.68846192  0.69058724  0.68702708  1
  Zn  Zn102  1  0.31732782  0.31880299  0.31199296  1
  Zn  Zn103  1  0.30120963  0.30567337  0.80148576  1
  Zn  Zn104  1  0.31928666  0.81432784  0.30657726  1
  Zn  Zn105  1  0.30984592  0.79609174  0.82445946  1
  Zn  Zn106  1  0.81077431  0.31790268  0.31537722  1
  Zn  Zn107  1  0.80086980  0.31049841  0.80843982  1
  Zn  Zn108  1  0.81266965  0.81526001  0.30600214  1
  Zn  Zn109  1  0.81088234  0.81124349  0.81286242  1
  Zn  Zn110  1  0.19279222  0.43455760  0.44126702  1
  Zn  Zn111  1  0.18691653  0.43532773  0.93317826  1
  Zn  Zn112  1  0.18993676  0.93832763  0.44110324  1
  Zn  Zn113  1  0.17871188  0.93556152  0.93277355  1
  Zn  Zn114  1  0.69207283  0.43650695  0.43310500  1
  Zn  Zn115  1  0.67884201  0.43649297  0.93764244  1
  Zn  Zn116  1  0.68842337  0.93835447  0.43998188  1
  Zn  Zn117  1  0.67884469  0.93238243  0.93889013  1
  Zn  Zn118  1  0.31042442  0.06457278  0.06289743  1
  Zn  Zn119  1  0.33349937  0.10145910  0.54356901  1
  Zn  Zn120  1  0.33239404  0.56219561  0.07129833  1
  Zn  Zn121  1  0.31620401  0.55092014  0.57889618  1
  Zn  Zn122  1  0.81017351  0.06291495  0.07204176  1
  Zn  Zn123  1  0.80776318  0.06319738  0.56110171  1
  Zn  Zn124  1  0.80956773  0.56397707  0.05890532  1
  Zn  Zn125  1  0.81377888  0.56344720  0.55385833  1
  Zn  Zn126  1  0.44544390  0.44861969  0.19153700  1
  Zn  Zn127  1  0.41137793  0.41033863  0.73647253  1
  Zn  Zn128  1  0.43894770  0.91766618  0.20374819  1
  Zn  Zn129  1  0.40998144  0.98595561  0.66232869  1
  Zn  Zn130  1  0.93777948  0.43539101  0.18779188  1
  Zn  Zn131  1  0.94003319  0.43820174  0.68589373  1
  Zn  Zn132  1  0.93643650  0.92780153  0.17688323  1
  Zn  Zn133  1  0.93360056  0.93776473  0.68594668  1
  Zn  Zn134  1  0.06187131  0.06370953  0.31480713  1
  Zn  Zn135  1  0.03976801  0.02893842  0.79656523  1
  Zn  Zn136  1  0.06916945  0.56105834  0.31356875  1
  Zn  Zn137  1  0.08664332  0.60166173  0.79691498  1
  Zn  Zn138  1  0.55635073  0.06933346  0.31729588  1
  Zn  Zn139  1  0.56161001  0.05593361  0.81802865  1
  Zn  Zn140  1  0.56464985  0.56462617  0.30679127  1
  Zn  Zn141  1  0.55245505  0.55992025  0.81774698  1
  Zn  Zn142  1  0.43572154  0.19985292  0.44966985  1
  Zn  Zn143  1  0.43105725  0.18459933  0.93897490  1
  Zn  Zn144  1  0.42191845  0.67773821  0.46116809  1
  Zn  Zn145  1  0.43341999  0.68266089  0.94800295  1
  Zn  Zn146  1  0.93678040  0.18384682  0.43082291  1
  Zn  Zn147  1  0.93812533  0.18037875  0.94359498  1
  Zn  Zn148  1  0.93800248  0.68990028  0.43640185  1
  Zn  Zn149  1  0.93094215  0.68937303  0.93652593  1
  Zn  Zn150  1  0.06496832  0.31415507  0.06265882  1
  Zn  Zn151  1  0.06736781  0.31154107  0.56412887  1
  Zn  Zn152  1  0.06362284  0.81452007  0.06129537  1
  Zn  Zn153  1  0.06351027  0.81365020  0.56368051  1
  Zn  Zn154  1  0.55864880  0.30773788  0.05830384  1
  Zn  Zn155  1  0.51068616  0.35224217  0.59913747  1
  Zn  Zn156  1  0.55669903  0.80004691  0.05949650  1
  Zn  Zn157  1  0.56524997  0.81604237  0.55416039  1
  O  O158  1  0.11718071  0.11768935  0.13034314  1
  O  O159  1  0.12602127  0.12002295  0.61113935  1
  O  O160  1  0.12446862  0.61024228  0.12854607  1
  O  O161  1  0.11589140  0.63326670  0.61293224  1
  O  O162  1  0.61219847  0.12986162  0.11490719  1
  O  O163  1  0.62849743  0.11414896  0.61200710  1
  O  O164  1  0.62694404  0.62544060  0.12392639  1
  O  O165  1  0.61763693  0.61829474  0.63223156  1
  O  O166  1  0.39083686  0.38563805  0.37404282  1
  O  O167  1  0.37877221  0.37648268  0.84035204  1
  O  O168  1  0.36749321  0.88979555  0.38609433  1
  O  O169  1  0.38311724  0.87121678  0.87736215  1
  O  O170  1  0.88562963  0.38172694  0.37936422  1
  O  O171  1  0.87385681  0.37657672  0.88068956  1
  O  O172  1  0.87383572  0.88264150  0.38394040  1
  O  O173  1  0.88363758  0.86726290  0.87451371  1
  O  O174  1  0.25019694  0.00111656  0.36427959  1
  O  O175  1  0.25136096  -0.00181226  0.86443840  1
  O  O176  1  0.25678388  0.50929003  0.37175548  1
  O  O177  1  0.25599740  0.51674414  0.89206436  1
  O  O178  1  0.75407927  0.00276971  0.36838171  1
  O  O179  1  0.73924454  0.00532795  0.86526590  1
  O  O180  1  0.76066643  0.50725329  0.36645862  1
  O  O181  1  0.75908173  0.50697797  0.88401801  1
  O  O182  1  0.24579517  0.49959759  0.13436648  1
  O  O183  1  0.25473006  0.46342138  0.61406242  1
  O  O184  1  0.23994049  0.99647991  0.13369689  1
  O  O185  1  0.24469759  0.99424695  0.64325357  1
  O  O186  1  0.75983703  0.49077712  0.13610021  1
  O  O187  1  0.73776273  0.50757122  0.61918689  1
  O  O188  1  0.74619863  0.98558157  0.12677461  1
  O  O189  1  0.74351452  0.99410863  0.63229328  1
  O  O190  1  0.01383721  0.38334842  0.26092534  1
  O  O191  1  -0.00362546  0.36814779  0.76154464  1
  O  O192  1  0.01342680  0.86745818  0.24743442  1
  O  O193  1  0.01353991  0.92065268  0.75878294  1
  O  O194  1  0.50665522  0.39090622  0.27282861  1
  O  O195  1  0.52268821  0.37801027  0.73031372  1
  O  O196  1  0.55058477  0.91547461  0.24808503  1
  O  O197  1  0.48815730  0.86946432  0.75757623  1
  O  O198  1  0.48776530  0.11961536  0.23872032  1
  O  O199  1  0.49976437  0.15370852  0.78850118  1
  O  O200  1  0.50031257  0.60807438  0.22682873  1
  O  O201  1  0.49910412  0.63003606  0.73748363  1
  O  O202  1  0.99890208  0.12354825  0.24063483  1
  O  O203  1  0.98543151  0.12622824  0.74966823  1
  O  O204  1  1.00971979  0.63789167  0.24880854  1
  O  O205  1  0.98336755  0.61857201  0.73367444  1
  O  O206  1  0.36326286  0.24575298  0.00879540  1
  O  O207  1  0.36831501  0.21373352  0.53553999  1
  O  O208  1  0.38519116  0.75558140  0.02966626  1
  O  O209  1  0.36283851  0.76784077  0.49289753  1
  O  O210  1  0.86752233  0.25871779  0.00289755  1
  O  O211  1  0.86863357  0.25213537  0.50076772  1
  O  O212  1  0.86024469  0.75192596  0.00442771  1
  O  O213  1  0.87427515  0.76066365  0.50662123  1
  O  O214  1  0.12293889  0.23731908  0.49384593  1
  O  O215  1  0.12984974  0.24874695  0.99280467  1
  O  O216  1  0.13307875  0.74542779  0.49332156  1
  O  O217  1  0.12275967  0.74745497  0.99318823  1
  O  O218  1  0.63670912  0.23483566  0.48771321  1
  O  O219  1  0.62645138  0.23603817  0.99437883  1
  O  O220  1  0.63111719  0.78360549  0.46421888  1
  O  O221  1  0.63494319  0.75093934  0.98655308  1
  O  O222  1  0.48369623  0.23774851  0.11606677  1
  O  O223  1  0.51174505  0.24024879  0.60477854  1
  O  O224  1  0.49912803  0.72968905  0.12845218  1
  O  O225  1  0.50757050  0.73994998  0.61686051  1
  O  O226  1  0.98625469  0.24751698  0.12256855  1
  O  O227  1  0.99155628  0.24693775  0.63128310  1
  O  O228  1  0.99383227  0.74815901  0.12881778  1
  O  O229  1  0.98964696  0.74052711  0.61582465  1
  O  O230  1  0.00579128  0.26182516  0.37815568  1
  O  O231  1  -0.00026447  0.25654577  0.87357234  1
  O  O232  1  0.00677932  0.75343136  0.36653189  1
  O  O233  1  0.01197820  0.74274254  0.87976562  1
  O  O234  1  0.50445613  0.26726583  0.38624315  1
  O  O235  1  0.49995131  0.21148474  0.84718498  1
  O  O236  1  0.55802695  0.74757707  0.29395930  1
  O  O237  1  0.50705615  0.75699939  0.88156271  1
  O  O238  1  0.23355798  0.11502937  0.49247216  1
  O  O239  1  0.24240448  0.14192197  1.00905186  1
  O  O240  1  0.24634942  0.63403977  0.49649526  1
  O  O241  1  0.25768649  0.62993419  1.01100016  1
  O  O242  1  0.74660854  0.13107736  0.48635177  1
  O  O243  1  0.74137227  0.12412059  0.99763801  1
  O  O244  1  0.75158583  0.62899573  0.48358509  1
  O  O245  1  0.75385468  0.63387627  0.98485770  1
  O  O246  1  0.24428336  0.35770830  0.00048352  1
  O  O247  1  0.27293550  0.36932760  0.48706013  1
  O  O248  1  0.24196995  0.88201208  0.01358506  1
  O  O249  1  0.25510965  0.87114480  0.51019658  1
  O  O250  1  0.75335562  0.36959112  0.00697283  1
  O  O251  1  0.75765057  0.36354932  0.49652835  1
  O  O252  1  0.74884457  0.86809511  0.00604458  1
  O  O253  1  0.76451629  0.87901427  0.51058738  1
  O  O254  1  0.13468372  0.49210665  0.24493736  1
  O  O255  1  0.10446210  0.49519540  0.76073364  1
  O  O256  1  0.12921280  0.99525846  0.24553006  1
  O  O257  1  0.13913441  1.01466993  0.73909473  1
  O  O258  1  0.64638711  0.49437932  0.25613847  1
  O  O259  1  0.62638700  0.49942443  0.74555331  1
  O  O260  1  0.59635394  0.98276019  0.24677448  1
  O  O261  1  0.63359320  1.01009873  0.73564025  1
  O  O262  1  0.36984738  0.00268733  0.26438348  1
  O  O263  1  0.35566769  -0.00629452  0.76531090  1
  O  O264  1  0.36241376  0.49673562  0.26173090  1
  O  O265  1  0.38993591  0.52408808  0.75713054  1
  O  O266  1  0.87826249  -0.01169110  0.25976291  1
  O  O267  1  0.85863012  0.01312284  0.74154368  1
  O  O268  1  0.86666641  0.49145172  0.25957798  1
  O  O269  1  0.87521592  0.50511597  0.75885240  1
  O  O270  1  0.12222414  0.36705130  0.37107715  1
  O  O271  1  0.10705693  0.36918028  0.87124247  1
  O  O272  1  0.12569527  0.87118475  0.36592976  1
  O  O273  1  0.12455843  0.85506866  0.87273419  1
  O  O274  1  0.61861448  0.36623607  0.37703827  1
  O  O275  1  0.62466914  0.36934409  0.86023129  1
  O  O276  1  0.62825577  0.84545055  0.40780037  1
  O  O277  1  0.60765000  0.86558163  0.87370155  1
  O  O278  1  0.38006109  0.13075428  0.13329988  1
  O  O279  1  0.38559139  0.09266129  0.64034995  1
  O  O280  1  0.36404611  0.64422206  0.14769419  1
  O  O281  1  0.39361589  0.62155705  0.62736453  1
  O  O282  1  0.87769770  0.14127155  0.12579901  1
  O  O283  1  0.87168081  0.13130483  0.63377905  1
  O  O284  1  0.87264700  0.64080204  0.12078251  1
  O  O285  1  0.87806541  0.63173397  0.62554230  1
  O  O286  1  0.26234781  0.25588453  0.11766225  1
  O  O287  1  0.23990033  0.28890557  0.62682280  1
  O  O288  1  0.26558451  0.77121567  0.13742770  1
  O  O289  1  0.24300773  0.75821587  0.61241932  1
  O  O290  1  0.76124289  0.25426590  0.12119038  1
  O  O291  1  0.75448477  0.24766623  0.61034135  1
  O  O292  1  0.75373540  0.75628557  0.11777358  1
  O  O293  1  0.75530232  0.75840329  0.61726140  1
  O  O294  1  0.24366472  0.25090658  0.37256602  1
  O  O295  1  0.23869277  0.24976643  0.88575182  1
  O  O296  1  0.24807660  0.74668511  0.37822386  1
  O  O297  1  0.23582347  0.73228204  0.88103949  1
  O  O298  1  0.74520417  0.24241457  0.37825247  1
  O  O299  1  0.74510078  0.23676603  0.88260507  1
  O  O300  1  0.76316989  0.73300762  0.36809053  1
  O  O301  1  0.73657074  0.74583706  0.87776611  1
  O  O302  1  0.00130989  0.11784543  0.01843184  1
  O  O303  1  0.00399156  0.11591278  0.49953679  1
  O  O304  1  -0.01317635  0.60591443  0.00045860  1
  O  O305  1  0.00882007  0.61946079  0.50319438  1
  O  O306  1  0.50214867  0.11554027  0.00599314  1
  O  O307  1  0.51599850  0.11998605  0.48924619  1
  O  O308  1  0.49063143  0.61539776  0.02155358  1
  O  O309  1  0.50593690  0.62175571  0.50499320  1
  O  O310  1  0.50602395  0.40195966  0.48773480  1
  O  O311  1  0.50433633  0.38308492  0.99710018  1
  O  O312  1  0.47917137  0.87512004  0.50388249  1
  O  O313  1  0.50088655  0.88626689  1.00039040  1
  O  O314  1  0.99986563  0.38227965  0.49184620  1
  O  O315  1  0.98804862  0.37735386  0.99450366  1
  O  O316  1  0.99165275  0.88530747  0.49988993  1
  O  O317  1  0.99825824  0.89377745  1.00777945  1
  O  O318  1  0.49701680  0.50520672  0.38333467  1
  O  O319  1  0.48604217  0.51225545  0.89354636  1
  O  O320  1  0.48790252  0.99643456  0.37858923  1
  O  O321  1  0.48452428  0.98543159  0.87659675  1
  O  O322  1  0.99822387  0.49396187  0.38220904  1
  O  O323  1  0.98204983  0.48673266  0.88504795  1
  O  O324  1  0.99111433  0.99840309  0.38254372  1
  O  O325  1  1.00293503  1.01477741  0.90146475  1
  O  O326  1  0.00653701  0.00780423  0.12355153  1
  O  O327  1  0.00866388  0.00415801  0.61367857  1
  O  O328  1  0.00550301  0.50005472  0.11969460  1
  O  O329  1  -0.00954067  0.51196784  0.60914613  1
  O  O330  1  0.48706191  0.00608906  0.11175456  1
  O  O331  1  0.51962280  -0.01195101  0.62869958  1
  O  O332  1  0.50721689  0.50388534  0.11535113  1
  O  O333  1  0.51960599  0.51486015  0.60885544  1
  O  O334  1  0.24189154  0.38695352  0.25216143  1
  O  O335  1  0.21985076  0.38200616  0.76356720  1
  O  O336  1  0.24060329  0.88615472  0.24437543  1
  O  O337  1  0.25376757  0.85946603  0.73768558  1
  O  O338  1  0.74886533  0.38331320  0.24298863  1
  O  O339  1  0.73455208  0.37379087  0.74118015  1
  O  O340  1  0.74514771  0.87199201  0.23330194  1
  O  O341  1  0.75424218  0.88336457  0.73795374  1
  O  O342  1  0.26255549  0.11506158  0.24280743  1
  O  O343  1  0.24877793  0.12593875  0.74736673  1
  O  O344  1  0.23885291  0.61774339  0.26232192  1
  O  O345  1  0.26327735  0.61438198  0.73241780  1
  O  O346  1  0.73241311  0.11165142  0.25942768  1
  O  O347  1  0.75244448  0.12032610  0.75802392  1
  O  O348  1  0.75506072  0.61178964  0.25558846  1
  O  O349  1  0.76119727  0.62925529  0.75817806  1
  O  O350  1  0.38376677  0.11616555  0.36765009  1
  O  O351  1  0.36884231  0.10769227  0.87571667  1
  O  O352  1  0.36353211  0.62364771  0.37710021  1
  O  O353  1  0.35572637  0.63567957  0.86945723  1
  O  O354  1  0.86296777  0.11464863  0.37429432  1
  O  O355  1  0.86194184  0.12845361  0.86720367  1
  O  O356  1  0.87360396  0.61247761  0.37803509  1
  O  O357  1  0.86641407  0.61711652  0.86513673  1
  O  O358  1  0.12648470  0.38258841  0.13544361  1
  O  O359  1  0.10354296  0.38251883  0.64445928  1
  O  O360  1  0.13190155  0.88436784  0.13375721  1
  O  O361  1  0.13393818  0.89023097  0.61601716  1
  O  O362  1  0.63929153  0.35969548  0.12719500  1
  O  O363  1  0.62707902  0.39842279  0.62672763  1
  O  O364  1  0.63649469  0.86529059  0.11631338  1
  O  O365  1  0.63764392  0.88755429  0.61223091  1
  O  O366  1  0.13324998  0.26114206  0.25690268  1
  O  O367  1  0.11301544  0.25581433  0.75810739  1
  O  O368  1  0.12177352  0.75794495  0.25111631  1
  O  O369  1  0.11775597  0.71264227  0.77603118  1
  O  O370  1  0.62625395  0.24961167  0.26501721  1
  O  O371  1  0.62610004  0.25886031  0.74839895  1
  O  O372  1  0.62225043  0.76541851  0.26265417  1
  O  O373  1  0.62640764  0.75521126  0.76154734  1
  O  O374  1  0.36778449  0.24080059  0.23887272  1
  O  O375  1  0.35633466  0.23272968  0.73856029  1
  O  O376  1  0.40001279  0.80216000  0.22694847  1
  O  O377  1  0.37186038  0.73302430  0.74765846  1
  O  O378  1  0.87400478  0.25591935  0.24029705  1
  O  O379  1  0.87585711  0.24178481  0.74504430  1
  O  O380  1  0.88984399  0.75964533  0.23901870  1
  O  O381  1  0.87034991  0.74149566  0.73408370  1
  O  O382  1  0.38444485  0.51164271  0.48737724  1
  O  O383  1  0.38769304  0.48903122  1.00984412  1
  O  O384  1  0.36480553  0.99617291  0.48748056  1
  O  O385  1  0.38129343  1.00253892  0.98775801  1
  O  O386  1  0.88516836  0.49381696  0.48932757  1
  O  O387  1  0.87668234  0.48568328  0.99666070  1
  O  O388  1  0.88113344  0.99460645  0.49539166  1
  O  O389  1  0.88464621  1.00174970  1.00956836  1
  O  O390  1  0.11859804  0.00243632  0.01316505  1
  O  O391  1  0.11721415  0.00950931  0.50295564  1
  O  O392  1  0.11104644  0.48500074  0.01173877  1
  O  O393  1  0.11785844  0.50980223  0.49250577  1
  O  O394  1  0.60416363  0.00719515  -0.00804756  1
  O  O395  1  0.63295732  0.01266547  0.50915120  1
  O  O396  1  0.60947001  0.50347041  -0.00607965  1
  O  O397  1  0.62406130  0.50951708  0.49323666  1
  O  O398  1  0.38054742  0.36070154  0.13724377  1
  O  O399  1  0.39171803  0.37560061  0.62399414  1
  O  O400  1  0.35927158  0.89913958  0.11704294  1
  O  O401  1  0.36761591  0.88362786  0.61553902  1
  O  O402  1  0.86789045  0.36453539  0.11867451  1
  O  O403  1  0.87338755  0.36890748  0.61661633  1
  O  O404  1  0.86316728  0.86274055  0.11566056  1
  O  O405  1  0.86976776  0.86908296  0.61918619  1
  O  O406  1  0.11886384  0.13467140  0.38479848  1
  O  O407  1  0.11383198  0.13715030  0.87459245  1
  O  O408  1  0.13510283  0.63101992  0.38643274  1
  O  O409  1  0.13872370  0.62019358  0.90029899  1
  O  O410  1  0.63088027  0.12818110  0.38281560  1
  O  O411  1  0.63500205  0.12248689  0.88553503  1
  O  O412  1  0.64284669  0.62495790  0.36680147  1
  O  O413  1  0.63259390  0.63613493  0.86455707  1
