# generated using pymatgen
data_V79Zn79O256
_symmetry_space_group_name_H-M   'P 1'
_cell_length_a   16.91323341
_cell_length_b   16.93690018
_cell_length_c   16.92944426
_cell_angle_alpha   90.02738159
_cell_angle_beta   89.91571224
_cell_angle_gamma   89.72187616
_symmetry_Int_Tables_number   1
_chemical_formula_structural   V79Zn79O256
_chemical_formula_sum   'V79 Zn79 O256'
_cell_volume   4849.50748875
_cell_formula_units_Z   1
loop_
 _symmetry_equiv_pos_site_id
 _symmetry_equiv_pos_as_xyz
  1  'x, y, z'
loop_
 _atom_site_type_symbol
 _atom_site_label
 _atom_site_symmetry_multiplicity
 _atom_site_fract_x
 _atom_site_fract_y
 _atom_site_fract_z
 _atom_site_occupancy
  V  V0  1  0.49746283  0.49174638  0.50921582  1
  V  V1  1  0.63929475  0.62943905  0.00443839  1
  V  V2  1  0.62569276  0.09752527  0.49011642  1
  V  V3  1  0.02789957  0.74864728  0.24986743  1
  V  V4  1  -0.00412820  0.49098963  -0.00520169  1
  V  V5  1  0.51287655  0.11262497  0.62068619  1
  V  V6  1  0.61745446  0.00183144  0.11986026  1
  V  V7  1  0.00200330  0.87682156  0.88114577  1
  V  V8  1  0.12953830  0.63333302  0.49323780  1
  V  V9  1  0.74963146  0.63369497  0.38200604  1
  V  V10  1  0.62379800  0.88928774  0.75468587  1
  V  V11  1  0.87924547  0.50152641  0.37642825  1
  V  V12  1  0.37691144  -0.01043488  0.87041793  1
  V  V13  1  0.12331401  0.87619572  0.74664674  1
  V  V14  1  0.63771164  0.74339078  0.87399384  1
  V  V15  1  0.74995169  0.75430784  0.50043744  1
  V  V16  1  0.24674297  -0.00389390  0.74348267  1
  V  V17  1  0.88078285  0.24279081  0.61901870  1
  V  V18  1  0.88250514  0.63024644  0.25388929  1
  V  V19  1  0.38624625  0.37562415  0.01627303  1
  V  V20  1  -0.00316513  0.00467486  0.49803089  1
  V  V21  1  0.26009969  0.37221547  0.62500593  1
  V  V22  1  0.49677851  0.52286311  0.02003530  1
  V  V23  1  0.86192584  0.50114326  0.86945839  1
  V  V24  1  0.25327970  0.12723149  0.87380077  1
  V  V25  1  0.24566241  0.74989453  0.00409561  1
  V  V26  1  0.50044682  0.75279890  0.75343130  1
  V  V27  1  0.75053795  0.35352928  0.10369832  1
  V  V28  1  0.74330887  0.50662155  0.24527336  1
  V  V29  1  0.74667611  0.89026531  0.62976560  1
  V  V30  1  0.38385241  0.49771994  0.88029530  1
  V  V31  1  0.36024430  0.75373910  0.63328670  1
  V  V32  1  0.87082797  0.86212696  -0.00267157  1
  V  V33  1  0.87128193  0.00657158  0.36447545  1
  V  V34  1  0.25213454  0.24569733  0.49212042  1
  V  V35  1  0.62166132  0.63126210  0.51417474  1
  V  V36  1  0.86317296  -0.00258295  0.86892531  1
  V  V37  1  0.00275017  0.24218355  0.74456941  1
  V  V38  1  -0.00139084  0.37297242  0.87242589  1
  V  V39  1  0.00148887  0.37358119  0.36455894  1
  V  V40  1  0.87651893  0.75357803  0.62584822  1
  V  V41  1  0.64414999  0.49651194  0.63311987  1
  V  V42  1  0.63796051  0.37420229  0.75737015  1
  V  V43  1  0.00086392  0.50073678  0.50097826  1
  V  V44  1  0.12660088  0.25047526  0.36062243  1
  V  V45  1  0.37601295  0.12706795  0.22103586  1
  V  V46  1  0.62132537  0.14304120  -0.01253361  1
  V  V47  1  0.25576680  0.25522308  0.00999784  1
  V  V48  1  0.12846921  0.37198964  0.74805265  1
  V  V49  1  0.24547930  0.62698108  0.87538670  1
  V  V50  1  0.36874861  0.87832296  0.50503329  1
  V  V51  1  0.25352670  0.49562902  0.75222781  1
  V  V52  1  0.74863360  0.86371889  0.12152007  1
  V  V53  1  0.11785913  0.00861409  0.62545735  1
  V  V54  1  0.00354162  0.62158167  0.12454647  1
  V  V55  1  0.87067198  0.12057111  0.74770415  1
  V  V56  1  0.01307515  0.87366562  0.36554485  1
  V  V57  1  0.12724180  0.12613611  0.00241688  1
  V  V58  1  0.73138764  0.25979903  0.50243674  1
  V  V59  1  0.00212255  0.62606186  0.62797057  1
  V  V60  1  0.87459985  0.37334548  0.50663252  1
  V  V61  1  -0.03032184  0.24082487  0.23872098  1
  V  V62  1  0.12340588  0.48126913  0.12812340  1
  V  V63  1  0.00405187  0.75106940  0.75779345  1
  V  V64  1  0.37760067  0.12564258  0.74568008  1
  V  V65  1  0.37788032  0.00747040  0.37172511  1
  V  V66  1  0.12614136  0.12546123  0.49067890  1
  V  V67  1  0.12671707  0.49832688  0.62572493  1
  V  V68  1  -0.02779822  0.03607553  0.01185586  1
  V  V69  1  0.27799120  0.49422112  0.28954308  1
  V  V70  1  0.86291029  0.62392519  0.75249437  1
  V  V71  1  0.37839209  0.24520355  0.61897753  1
  V  V72  1  0.37316946  0.86808988  0.00452673  1
  V  V73  1  0.38245143  0.62437734  0.75041309  1
  V  V74  1  0.12392466  -0.00787210  0.12182711  1
  V  V75  1  0.49915736  -0.00466140  -0.00574447  1
  V  V76  1  0.75085924  0.00937398  0.24295093  1
  V  V77  1  0.12221179  0.62554357  -0.00631856  1
  V  V78  1  0.62987623  0.37210013  0.26044879  1
  Zn  Zn79  1  0.12922628  0.25143501  0.87427474  1
  Zn  Zn80  1  0.74240141  0.13892160  0.35677540  1
  Zn  Zn81  1  0.74295875  0.13440660  0.86985409  1
  Zn  Zn82  1  0.24320930  0.86624216  0.13759220  1
  Zn  Zn83  1  0.34863020  0.42018000  0.45235148  1
  Zn  Zn84  1  0.23737582  -0.00009444  0.26180961  1
  Zn  Zn85  1  0.24507695  0.74551976  0.48332096  1
  Zn  Zn86  1  0.51045571  0.35334098  0.38985518  1
  Zn  Zn87  1  0.87616429  0.74513173  0.12164136  1
  Zn  Zn88  1  0.49809404  0.24028383  0.25183944  1
  Zn  Zn89  1  0.51011376  0.87334339  0.38942531  1
  Zn  Zn90  1  0.24943103  0.37075233  0.14166859  1
  Zn  Zn91  1  0.52218672  0.25418128  0.77413174  1
  Zn  Zn92  1  0.87458667  0.87851651  0.49481421  1
  Zn  Zn93  1  0.62111264  0.87143522  0.24989114  1
  Zn  Zn94  1  0.19309354  0.17602467  0.18657845  1
  Zn  Zn95  1  0.18853910  0.18546426  0.68319190  1
  Zn  Zn96  1  0.22222492  0.66590451  0.19531518  1
  Zn  Zn97  1  0.18525681  0.68427044  0.69110635  1
  Zn  Zn98  1  0.66136470  0.19888923  0.17438488  1
  Zn  Zn99  1  0.69263307  0.19178349  0.68074529  1
  Zn  Zn100  1  0.69193363  0.67431418  0.18298404  1
  Zn  Zn101  1  0.68728152  0.69515825  0.68670958  1
  Zn  Zn102  1  0.32237583  0.30665694  0.30886519  1
  Zn  Zn103  1  0.35253680  0.29571805  0.83567571  1
  Zn  Zn104  1  0.30372078  0.83642007  0.32345104  1
  Zn  Zn105  1  0.30510589  0.81087072  0.81676709  1
  Zn  Zn106  1  0.80299373  0.31378050  0.31856091  1
  Zn  Zn107  1  0.81807528  0.31667863  0.80394943  1
  Zn  Zn108  1  0.81711731  0.82029567  0.30918494  1
  Zn  Zn109  1  0.81144603  0.81314959  0.80891921  1
  Zn  Zn110  1  0.17795502  0.43178574  0.44211810  1
  Zn  Zn111  1  0.19014683  0.43543403  0.93906284  1
  Zn  Zn112  1  0.19153722  0.93866394  0.44139021  1
  Zn  Zn113  1  0.18504300  0.94045676  0.93700207  1
  Zn  Zn114  1  0.68911791  0.44528681  0.44153239  1
  Zn  Zn115  1  0.67251236  0.44230460  0.93645321  1
  Zn  Zn116  1  0.68677870  0.92659811  0.42390941  1
  Zn  Zn117  1  0.68694130  0.92861474  0.93563697  1
  Zn  Zn118  1  0.30729593  0.05482376  0.05803788  1
  Zn  Zn119  1  0.31007691  0.06186259  0.56058975  1
  Zn  Zn120  1  0.31153078  0.56472246  0.07410694  1
  Zn  Zn121  1  0.31144849  0.56872659  0.56730051  1
  Zn  Zn122  1  0.79925539  0.06166849  0.05337033  1
  Zn  Zn123  1  0.81186913  0.06990541  0.55513086  1
  Zn  Zn124  1  0.81768483  0.55567124  0.05959009  1
  Zn  Zn125  1  0.81753084  0.56607685  0.56526570  1
  Zn  Zn126  1  0.44216328  0.44526209  0.19998409  1
  Zn  Zn127  1  0.45061968  0.44361402  0.68915500  1
  Zn  Zn128  1  0.43136605  0.93842162  0.18544235  1
  Zn  Zn129  1  0.44042203  0.93510896  0.68473437  1
  Zn  Zn130  1  0.92964546  0.43191329  0.18211226  1
  Zn  Zn131  1  0.93605179  0.43665588  0.68949636  1
  Zn  Zn132  1  0.93748276  0.93661824  0.18472546  1
  Zn  Zn133  1  0.93820237  0.93830980  0.68527805  1
  Zn  Zn134  1  0.05613491  0.06788236  0.30665541  1
  Zn  Zn135  1  0.05679968  0.06128292  0.82387568  1
  Zn  Zn136  1  0.09203058  0.56734799  0.30151490  1
  Zn  Zn137  1  0.06010850  0.55959371  0.80956547  1
  Zn  Zn138  1  0.55446580  0.05676765  0.31007393  1
  Zn  Zn139  1  0.55681447  0.06606226  0.81407221  1
  Zn  Zn140  1  0.56498834  0.56263332  0.33019345  1
  Zn  Zn141  1  0.56643872  0.56067409  0.81602190  1
  Zn  Zn142  1  0.44722204  0.18847636  0.43603671  1
  Zn  Zn143  1  0.45224835  0.19518546  0.95610524  1
  Zn  Zn144  1  0.45749062  0.72062397  0.47012844  1
  Zn  Zn145  1  0.43737276  0.69279473  0.93061286  1
  Zn  Zn146  1  0.93694701  0.18661126  0.42747776  1
  Zn  Zn147  1  0.92422510  0.18854071  0.94059022  1
  Zn  Zn148  1  0.94473920  0.69306294  0.43763091  1
  Zn  Zn149  1  0.93447128  0.68300373  0.93421173  1
  Zn  Zn150  1  0.05749426  0.30189483  0.06052979  1
  Zn  Zn151  1  0.06317416  0.31168172  0.55920944  1
  Zn  Zn152  1  0.06073080  0.80650940  0.06099967  1
  Zn  Zn153  1  0.06229430  0.81876619  0.56211829  1
  Zn  Zn154  1  0.56697825  0.32532232  0.08316613  1
  Zn  Zn155  1  0.55343986  0.32519137  0.59834005  1
  Zn  Zn156  1  0.56033942  0.81023751  0.06009405  1
  Zn  Zn157  1  0.55931709  0.81523386  0.57911551  1
  O  O158  1  0.12750570  0.11818267  0.10771251  1
  O  O159  1  0.12313518  0.11525697  0.61397179  1
  O  O160  1  0.11179987  0.60926707  0.11483119  1
  O  O161  1  0.12018722  0.61769404  0.62148069  1
  O  O162  1  0.62824411  0.10266690  0.10336156  1
  O  O163  1  0.61610528  0.12370086  0.62236098  1
  O  O164  1  0.62031744  0.64360517  0.10229008  1
  O  O165  1  0.63375030  0.61973540  0.61877283  1
  O  O166  1  0.39682352  0.36365542  0.37128160  1
  O  O167  1  0.37092118  0.39195038  0.89737195  1
  O  O168  1  0.38464724  0.87618338  0.39239070  1
  O  O169  1  0.36749548  0.88448217  0.88064204  1
  O  O170  1  0.88148069  0.38457191  0.38520227  1
  O  O171  1  0.88879631  0.39222789  0.85968249  1
  O  O172  1  0.88458679  0.88814750  0.37432403  1
  O  O173  1  0.88146701  0.87768927  0.87606342  1
  O  O174  1  0.26989976  -0.01021249  0.37721903  1
  O  O175  1  0.25600887  0.00724939  0.86546537  1
  O  O176  1  0.26712316  0.48601412  0.39354315  1
  O  O177  1  0.25930741  0.50760395  0.87225574  1
  O  O178  1  0.75625331  -0.00495807  0.35836380  1
  O  O179  1  0.76102958  -0.00526459  0.87591132  1
  O  O180  1  0.76478753  0.51495643  0.37601262  1
  O  O181  1  0.76455339  0.49481609  0.87902036  1
  O  O182  1  0.22643625  0.49394496  0.12045155  1
  O  O183  1  0.24863985  0.49013870  0.63085236  1
  O  O184  1  0.22996566  0.99315228  0.11521967  1
  O  O185  1  0.23813398  1.00361119  0.63634660  1
  O  O186  1  0.75268203  0.51809714  0.14591572  1
  O  O187  1  0.74431273  0.50825371  0.62711603  1
  O  O188  1  0.74138017  0.99028872  0.12550997  1
  O  O189  1  0.75817403  0.98773109  0.61989017  1
  O  O190  1  -0.01623313  0.36468258  0.26109180  1
  O  O191  1  0.00867987  0.36618146  0.75272760  1
  O  O192  1  0.00073422  0.86510289  0.25640607  1
  O  O193  1  0.00346974  0.87090704  0.75882051  1
  O  O194  1  0.52492672  0.37711693  0.24314550  1
  O  O195  1  0.52234855  0.36040347  0.71729916  1
  O  O196  1  0.50425933  0.84750845  0.21430255  1
  O  O197  1  0.51733946  0.87050088  0.74250079  1
  O  O198  1  0.47798593  0.11633911  0.25000657  1
  O  O199  1  0.49251103  0.12673323  0.73736114  1
  O  O200  1  0.54624054  0.65401726  0.25294150  1
  O  O201  1  0.48683999  0.63088653  0.75824592  1
  O  O202  1  0.99209911  0.14288581  0.25094091  1
  O  O203  1  0.99167908  0.13592008  0.75946780  1
  O  O204  1  1.00015249  0.63058328  0.24500616  1
  O  O205  1  0.99713007  0.63506006  0.74627107  1
  O  O206  1  0.37484610  0.26810627  0.00812736  1
  O  O207  1  0.36451295  0.23757396  0.50827979  1
  O  O208  1  0.36539709  0.76234135  -0.00649305  1
  O  O209  1  0.35961796  0.74516442  0.52356338  1
  O  O210  1  0.83302157  0.26003239  -0.04382805  1
  O  O211  1  0.88323548  0.25653846  0.50537837  1
  O  O212  1  0.87550774  0.75634583  0.00025195  1
  O  O213  1  0.87195866  0.75359545  0.51111955  1
  O  O214  1  0.12971874  0.24218718  0.49179455  1
  O  O215  1  0.13669948  0.24357638  0.99369528  1
  O  O216  1  0.12666763  0.73889223  0.50846615  1
  O  O217  1  0.12600939  0.73287300  0.99722504  1
  O  O218  1  0.63371023  0.26609643  0.51332375  1
  O  O219  1  0.60500677  0.23974246  0.99839219  1
  O  O220  1  0.63844048  0.74092117  0.51548369  1
  O  O221  1  0.61710263  0.74423424  0.98279783  1
  O  O222  1  0.55264672  0.23783742  0.15317790  1
  O  O223  1  0.48627104  0.23225473  0.61862222  1
  O  O224  1  0.49782101  0.78780043  0.15795332  1
  O  O225  1  0.48485489  0.75067103  0.64443145  1
  O  O226  1  0.99058280  0.26054662  0.14068653  1
  O  O227  1  0.99557774  0.25259936  0.63410323  1
  O  O228  1  1.00025027  0.73850478  0.13419705  1
  O  O229  1  0.99154188  0.75073322  0.63317798  1
  O  O230  1  0.00550537  0.25545080  0.36146550  1
  O  O231  1  -0.00280654  0.26081304  0.86446110  1
  O  O232  1  0.00064779  0.76482327  0.36587374  1
  O  O233  1  -0.00603071  0.75828668  0.86400701  1
  O  O234  1  0.51252618  0.24227793  0.36474068  1
  O  O235  1  0.45592096  0.25070568  0.86141841  1
  O  O236  1  0.46769006  0.73660502  0.35384404  1
  O  O237  1  0.50577293  0.75258048  0.86042710  1
  O  O238  1  0.23780408  0.13330441  0.50389418  1
  O  O239  1  0.24825842  0.13197412  0.99167373  1
  O  O240  1  0.23370194  0.62509032  0.50479466  1
  O  O241  1  0.24119051  0.62845485  0.99316839  1
  O  O242  1  0.72842090  0.13597046  0.50515421  1
  O  O243  1  0.72513829  0.12091231  0.98941363  1
  O  O244  1  0.75191828  0.63709509  0.49909550  1
  O  O245  1  0.73854311  0.61805205  1.00139251  1
  O  O246  1  0.26022094  0.36740249  0.00262766  1
  O  O247  1  0.25262401  0.36625442  0.51040155  1
  O  O248  1  0.25506614  0.86514485  -0.00925964  1
  O  O249  1  0.26326466  0.86167748  0.49346621  1
  O  O250  1  0.72879050  0.37813360  0.00830814  1
  O  O251  1  0.76200511  0.36723902  0.49356576  1
  O  O252  1  0.75614615  0.87302440  0.01240167  1
  O  O253  1  0.75019450  0.86860260  0.51057450  1
  O  O254  1  0.09636340  0.48432796  0.22563134  1
  O  O255  1  0.13210354  0.49304516  0.74404028  1
  O  O256  1  0.11793795  1.01267185  0.22547053  1
  O  O257  1  0.12543071  0.99897427  0.74429033  1
  O  O258  1  0.64101007  0.51037577  0.25837925  1
  O  O259  1  0.62111280  0.49526282  0.73904094  1
  O  O260  1  0.62552444  0.99524228  0.23085747  1
  O  O261  1  0.62311069  0.98784653  0.75908889  1
  O  O262  1  0.37484688  0.00495364  0.26036342  1
  O  O263  1  0.36729385  0.00260002  0.75038302  1
  O  O264  1  0.37364199  0.51255105  0.26374830  1
  O  O265  1  0.37570419  0.50471001  0.75801780  1
  O  O266  1  0.86479582  -0.00100476  0.25071151  1
  O  O267  1  0.88478701  0.00939572  0.75680614  1
  O  O268  1  0.87239805  0.51328545  0.26019114  1
  O  O269  1  0.88046901  0.51042016  0.75854840  1
  O  O270  1  0.11052276  0.36490359  0.37945611  1
  O  O271  1  0.11877836  0.37384959  0.86610120  1
  O  O272  1  0.11181930  0.88364858  0.37524345  1
  O  O273  1  0.10968280  0.88754599  0.86336663  1
  O  O274  1  0.62072306  0.39532133  0.36567743  1
  O  O275  1  0.61568281  0.38795144  0.85485770  1
  O  O276  1  0.61841614  0.86209277  0.36189550  1
  O  O277  1  0.63045456  0.86249701  0.85995457  1
  O  O278  1  0.38059608  0.11380542  0.12124551  1
  O  O279  1  0.38093105  0.12502591  0.62879107  1
  O  O280  1  0.32429689  0.63711671  0.15578201  1
  O  O281  1  0.36591932  0.63885760  0.64217082  1
  O  O282  1  0.90082639  0.11176539  0.04007467  1
  O  O283  1  0.87569752  0.13330548  0.63005258  1
  O  O284  1  0.88868660  0.62171519  0.13285915  1
  O  O285  1  0.88277885  0.63515683  0.63267891  1
  O  O286  1  0.24452060  0.25302137  0.11379977  1
  O  O287  1  0.25438966  0.25439116  0.61389840  1
  O  O288  1  0.23503987  0.75337319  0.10675131  1
  O  O289  1  0.25977702  0.75787259  0.64332273  1
  O  O290  1  0.74649909  0.25351332  0.11712840  1
  O  O291  1  0.76629164  0.24832775  0.60723313  1
  O  O292  1  0.75266773  0.76095471  0.13489214  1
  O  O293  1  0.76145151  0.75812664  0.61893759  1
  O  O294  1  0.24206200  0.26005429  0.38649993  1
  O  O295  1  0.25940381  0.23982601  0.88563372  1
  O  O296  1  0.27475200  0.72812304  0.36347374  1
  O  O297  1  0.24946035  0.73422406  0.88257749  1
  O  O298  1  0.75582699  0.24513837  0.39878884  1
  O  O299  1  0.78021433  0.25221746  0.89475192  1
  O  O300  1  0.76385592  0.74564281  0.38831095  1
  O  O301  1  0.73760713  0.74942682  0.87048121  1
  O  O302  1  0.02330175  0.13107834  -0.02797432  1
  O  O303  1  0.00863494  0.11240405  0.48904857  1
  O  O304  1  0.00394867  0.61702087  0.00428676  1
  O  O305  1  0.00682854  0.62225784  0.50947637  1
  O  O306  1  0.51168832  0.10703358  -0.00426368  1
  O  O307  1  0.51893721  0.12367531  0.50909903  1
  O  O308  1  0.49088859  0.62414829  0.00579582  1
  O  O309  1  0.51975603  0.63267933  0.50490107  1
  O  O310  1  0.50822692  0.38805858  0.50732541  1
  O  O311  1  0.49053250  0.38918897  1.01709829  1
  O  O312  1  0.48172273  0.83850399  0.49831820  1
  O  O313  1  0.48146483  0.87879804  0.99998448  1
  O  O314  1  0.99340522  0.38023217  0.49046072  1
  O  O315  1  1.00350946  0.37999440  0.98603547  1
  O  O316  1  0.99954324  0.88522887  0.48615645  1
  O  O317  1  0.99033817  0.86566780  0.98838611  1
  O  O318  1  0.50354183  0.51145221  0.40721074  1
  O  O319  1  0.48708819  0.51082921  0.88833562  1
  O  O320  1  0.48499457  0.98722517  0.37183906  1
  O  O321  1  0.48733266  0.99986211  0.88029666  1
  O  O322  1  0.99204894  0.49375338  0.37890253  1
  O  O323  1  0.99885604  0.49078063  0.87895574  1
  O  O324  1  0.99308133  0.99229593  0.37407794  1
  O  O325  1  0.98569104  0.99517049  0.89217629  1
  O  O326  1  0.00293536  -0.00274433  0.10739095  1
  O  O327  1  0.00522882  -0.00446510  0.60994450  1
  O  O328  1  -0.00206600  0.50054209  0.11077201  1
  O  O329  1  0.00522274  0.50418675  0.62118535  1
  O  O330  1  0.51159481  -0.01102204  0.11351927  1
  O  O331  1  0.49781895  0.01376671  0.62497894  1
  O  O332  1  0.49419110  0.51312715  0.11881100  1
  O  O333  1  0.51946419  0.50534244  0.61536297  1
  O  O334  1  0.25768155  0.39532445  0.25616496  1
  O  O335  1  0.24638981  0.37807025  0.74098844  1
  O  O336  1  0.24657608  0.88541735  0.24717864  1
  O  O337  1  0.23570254  0.88626735  0.76070099  1
  O  O338  1  0.74990110  0.40153517  0.26376280  1
  O  O339  1  0.73957986  0.37688411  0.75192433  1
  O  O340  1  0.74852446  0.88339966  0.23516071  1
  O  O341  1  0.74153873  0.87382860  0.73776256  1
  O  O342  1  0.26911007  0.11166010  0.24206812  1
  O  O343  1  0.25606618  0.11541225  0.75324273  1
  O  O344  1  0.21395325  0.57432391  0.27009770  1
  O  O345  1  0.25521123  0.61645209  0.75838964  1
  O  O346  1  0.73079126  0.11194477  0.24181753  1
  O  O347  1  0.76528732  0.13475700  0.75215207  1
  O  O348  1  0.76106827  0.62347289  0.26323005  1
  O  O349  1  0.76448119  0.63407719  0.74704897  1
  O  O350  1  0.37883699  0.10539192  0.39149341  1
  O  O351  1  0.36636755  0.11018534  0.86237568  1
  O  O352  1  0.34075358  0.67829753  0.35879362  1
  O  O353  1  0.36449529  0.61895169  0.86867318  1
  O  O354  1  0.86396655  0.11076737  0.37899791  1
  O  O355  1  0.87009897  0.11253254  0.86545237  1
  O  O356  1  0.87552037  0.62066212  0.37285068  1
  O  O357  1  0.88038172  0.61147310  0.86516962  1
  O  O358  1  0.12461286  0.37964483  0.11261670  1
  O  O359  1  0.13564174  0.37792498  0.62727557  1
  O  O360  1  0.11918925  0.88853447  0.11475519  1
  O  O361  1  0.11735896  0.88948479  0.63812193  1
  O  O362  1  0.65171210  0.38373930  0.14700269  1
  O  O363  1  0.64305117  0.39312603  0.62709861  1
  O  O364  1  0.63845965  0.87727642  0.12266764  1
  O  O365  1  0.63846744  0.87366334  0.63668721  1
  O  O366  1  0.13376148  0.24410239  0.26045534  1
  O  O367  1  0.11955489  0.25162078  0.75080726  1
  O  O368  1  0.12579836  0.73150503  0.24274482  1
  O  O369  1  0.11331441  0.76102533  0.74344756  1
  O  O370  1  0.65863415  0.27612264  0.26852826  1
  O  O371  1  0.63344218  0.26333894  0.74731803  1
  O  O372  1  0.60355004  0.70562201  0.25881328  1
  O  O373  1  0.61856930  0.75172714  0.75839844  1
  O  O374  1  0.37328412  0.23155692  0.23802777  1
  O  O375  1  0.36165423  0.23295567  0.73279224  1
  O  O376  1  0.40452070  0.72199194  0.30868196  1
  O  O377  1  0.37775944  0.74657807  0.75030132  1
  O  O378  1  0.87015426  0.24720822  0.25447210  1
  O  O379  1  0.88380777  0.24395223  0.73802586  1
  O  O380  1  0.88045689  0.73669128  0.24999615  1
  O  O381  1  0.88364184  0.74525480  0.74337937  1
  O  O382  1  0.39169341  0.50204272  0.52120849  1
  O  O383  1  0.38162195  0.50033861  1.00147795  1
  O  O384  1  0.37243570  0.98183210  0.50201276  1
  O  O385  1  0.37859800  0.99067348  0.98873469  1
  O  O386  1  0.88012401  0.49495376  0.49543512  1
  O  O387  1  0.88632037  0.50602138  0.98191227  1
  O  O388  1  0.88212787  1.00063271  0.49004124  1
  O  O389  1  0.87302450  0.97777768  0.98968222  1
  O  O390  1  0.11765453  0.01041111  0.00409954  1
  O  O391  1  0.12033142  0.00637445  0.50518074  1
  O  O392  1  0.11343775  0.50471222  0.00360272  1
  O  O393  1  0.11911819  0.50908796  0.50723322  1
  O  O394  1  0.61283734  -0.01521829  0.00408321  1
  O  O395  1  0.63344804  -0.00032675  0.50034833  1
  O  O396  1  0.60588616  0.52122870  -0.00636252  1
  O  O397  1  0.62605233  0.51410631  0.51401685  1
  O  O398  1  0.36894118  0.39009042  0.11794265  1
  O  O399  1  0.36638798  0.36268230  0.63157550  1
  O  O400  1  0.36188268  0.88451134  0.10595172  1
  O  O401  1  0.37663873  0.86516989  0.61699863  1
  O  O402  1  0.84567068  0.38724520  0.12354835  1
  O  O403  1  0.88259774  0.36611608  0.61316572  1
  O  O404  1  0.86592157  0.87088115  0.11605014  1
  O  O405  1  0.86506856  0.86809934  0.62680119  1
  O  O406  1  0.12265900  0.13309100  0.38239249  1
  O  O407  1  0.14302134  0.12408649  0.87640210  1
  O  O408  1  0.11365175  0.62508458  0.39504583  1
  O  O409  1  0.13332013  0.61273336  0.88272069  1
  O  O410  1  0.62690901  0.10953229  0.38652811  1
  O  O411  1  0.62200351  0.13032047  0.88035704  1
  O  O412  1  0.64390414  0.62291134  0.39820406  1
  O  O413  1  0.62313510  0.63746398  0.88074672  1
