# generated using pymatgen
data_V79Zn79O256
_symmetry_space_group_name_H-M   'P 1'
_cell_length_a   16.87092472
_cell_length_b   16.90007766
_cell_length_c   16.89466678
_cell_angle_alpha   89.79883054
_cell_angle_beta   89.89543868
_cell_angle_gamma   90.17174779
_symmetry_Int_Tables_number   1
_chemical_formula_structural   V79Zn79O256
_chemical_formula_sum   'V79 Zn79 O256'
_cell_volume   4816.94689709
_cell_formula_units_Z   1
loop_
 _symmetry_equiv_pos_site_id
 _symmetry_equiv_pos_as_xyz
  1  'x, y, z'
loop_
 _atom_site_type_symbol
 _atom_site_label
 _atom_site_symmetry_multiplicity
 _atom_site_fract_x
 _atom_site_fract_y
 _atom_site_fract_z
 _atom_site_occupancy
  V  V0  1  0.62641549  0.13312478  0.48516667  1
  V  V1  1  0.00478082  0.74904091  0.75254450  1
  V  V2  1  0.25018255  0.37523549  0.60309901  1
  V  V3  1  0.50120351  0.25470461  0.74864409  1
  V  V4  1  0.62892051  0.73825603  0.88027496  1
  V  V5  1  0.62762877  0.50301701  0.12627966  1
  V  V6  1  0.00498371  0.12218192  0.62318470  1
  V  V7  1  0.86647113  0.87273453  0.00300789  1
  V  V8  1  0.77643428  0.60316061  0.86970489  1
  V  V9  1  0.62826300  -0.00493646  0.12396530  1
  V  V10  1  0.36910136  0.62160733  0.25250842  1
  V  V11  1  0.25364486  0.22722624  0.49530440  1
  V  V12  1  0.49371707  0.49256694  0.50133364  1
  V  V13  1  0.00339353  0.50343459  0.01288753  1
  V  V14  1  0.75413834  0.37973413  0.13080820  1
  V  V15  1  0.87869694  0.24012624  0.13481117  1
  V  V16  1  0.87368579  0.74639526  0.63134413  1
  V  V17  1  0.24081468  0.87713752  0.12695922  1
  V  V18  1  0.50023118  0.37554528  0.88076089  1
  V  V19  1  0.75406307  0.11148616  0.87138247  1
  V  V20  1  0.87153497  0.11274016  0.74992959  1
  V  V21  1  0.63180056  0.87686826  0.74934159  1
  V  V22  1  0.12347994  0.25366453  0.87152068  1
  V  V23  1  0.62682117  0.37367615  0.25345796  1
  V  V24  1  0.01075095  0.76341605  0.25475978  1
  V  V25  1  0.24557991  0.48586965  0.75248850  1
  V  V26  1  0.25116327  0.85756295  0.63909618  1
  V  V27  1  0.11640896  0.12563223  0.00552789  1
  V  V28  1  -0.00003806  0.88234757  0.86968607  1
  V  V29  1  0.63565157  0.49385225  0.62958116  1
  V  V30  1  0.37242060  0.87592709  0.00017457  1
  V  V31  1  0.63254536  -0.00059122  0.62474255  1
  V  V32  1  -0.00612258  0.00019207  0.00356931  1
  V  V33  1  0.49897101  0.87572598  0.87355168  1
  V  V34  1  0.50067065  0.50524701  0.00303245  1
  V  V35  1  -0.00713304  0.25718689  0.74579481  1
  V  V36  1  0.87422322  0.74257600  0.12938572  1
  V  V37  1  0.12419362  0.24420918  0.38686140  1
  V  V38  1  0.62794090  0.25216057  0.87380237  1
  V  V39  1  0.26679276  0.25699762  0.00665557  1
  V  V40  1  0.49855903  0.74851952  0.74477490  1
  V  V41  1  0.00178411  0.38277225  0.87463876  1
  V  V42  1  0.37352550  0.62551406  0.74728691  1
  V  V43  1  0.37224520  0.12649483  0.24561239  1
  V  V44  1  0.49962710  0.37171360  0.37740382  1
  V  V45  1  -0.00122756  0.62330135  0.62978283  1
  V  V46  1  0.87727493  0.38155504  -0.00039255  1
  V  V47  1  0.62644843  0.12447654  -0.00081100  1
  V  V48  1  0.24311749  0.62352122  0.87493525  1
  V  V49  1  0.24706513  0.12149818  0.86786429  1
  V  V50  1  0.36974029  -0.00024288  0.86502421  1
  V  V51  1  0.49991701  0.25030471  0.25039409  1
  V  V52  1  0.24880145  0.39742949  0.14530849  1
  V  V53  1  0.23728056  0.00225879  0.25235263  1
  V  V54  1  0.12008606  0.49730970  0.62912810  1
  V  V55  1  0.37395014  0.49448959  0.88194105  1
  V  V56  1  0.49953819  0.62282909  0.62432967  1
  V  V57  1  0.62157168  0.87181002  0.24691566  1
  V  V58  1  0.75476422  0.87299803  0.61999959  1
  V  V59  1  0.50275689  0.62806404  0.13149905  1
  V  V60  1  0.50182227  -0.00573983  0.49706934  1
  V  V61  1  0.01189997  0.24630961  0.24513661  1
  V  V62  1  0.24462834  0.64076809  0.39042632  1
  V  V63  1  0.87144475  0.38320717  0.50579492  1
  V  V64  1  0.61570231  0.74411936  0.36940591  1
  V  V65  1  0.36211566  0.86573153  0.50453239  1
  V  V66  1  0.75561870  0.00462490  0.25488825  1
  V  V67  1  0.76072522  0.25260388  0.50371032  1
  V  V68  1  0.87932073  0.60889605  0.25575736  1
  V  V69  1  0.49644534  0.13064179  0.12206261  1
  V  V70  1  0.37839645  0.75239609  0.13422711  1
  V  V71  1  0.50096113  0.12573139  0.62652678  1
  V  V72  1  0.75871962  0.74884634  0.48747154  1
  V  V73  1  0.75349867  0.24981914  0.00049906  1
  V  V74  1  0.36227322  0.49357855  0.37387334  1
  V  V75  1  0.14138382  -0.00119078  0.63645172  1
  V  V76  1  0.00182593  0.50499100  0.49214636  1
  V  V77  1  0.12332721  0.62237831  0.01654601  1
  V  V78  1  0.36957769  0.00508460  0.37536968  1
  Zn  Zn79  1  0.24591537  0.74891306  0.00304280  1
  Zn  Zn80  1  0.11544114  -0.00214146  0.12957497  1
  Zn  Zn81  1  0.38118732  0.26136503  0.61772082  1
  Zn  Zn82  1  -0.01823093  0.88268005  0.38307498  1
  Zn  Zn83  1  1.00087923  0.99478304  0.49810263  1
  Zn  Zn84  1  0.64764088  0.37974058  0.74924535  1
  Zn  Zn85  1  0.00089190  0.37530238  0.37513408  1
  Zn  Zn86  1  0.36780360  0.12394395  0.74427489  1
  Zn  Zn87  1  0.62718309  0.62130004  0.49723449  1
  Zn  Zn88  1  0.75454572  0.59536537  0.36705773  1
  Zn  Zn89  1  0.49838400  0.00201703  -0.00079622  1
  Zn  Zn90  1  0.77097814  0.12534451  0.36920965  1
  Zn  Zn91  1  0.49213220  0.86685874  0.36908086  1
  Zn  Zn92  1  0.12695004  0.75494307  0.87246618  1
  Zn  Zn93  1  0.74183543  0.74085754  0.00616904  1
  Zn  Zn94  1  0.18825022  0.18738721  0.18462150  1
  Zn  Zn95  1  0.18211463  0.19618644  0.68615784  1
  Zn  Zn96  1  0.19143302  0.68838777  0.19484393  1
  Zn  Zn97  1  0.18253125  0.68110053  0.68602638  1
  Zn  Zn98  1  0.68623235  0.18679770  0.18962033  1
  Zn  Zn99  1  0.68786090  0.18774139  0.68739807  1
  Zn  Zn100  1  0.69684623  0.68381808  0.19108293  1
  Zn  Zn101  1  0.69076128  0.68137809  0.69261728  1
  Zn  Zn102  1  0.31226878  0.30775351  0.31414065  1
  Zn  Zn103  1  0.31545623  0.30606149  0.81704567  1
  Zn  Zn104  1  0.30790669  0.81955567  0.31257595  1
  Zn  Zn105  1  0.31250849  0.80816875  0.81493872  1
  Zn  Zn106  1  0.81240748  0.31831622  0.32310457  1
  Zn  Zn107  1  0.82101116  0.30646008  0.81751571  1
  Zn  Zn108  1  0.81223973  0.82295918  0.30547972  1
  Zn  Zn109  1  0.81514478  0.81186147  0.81476058  1
  Zn  Zn110  1  0.17173502  0.43711470  0.31488283  1
  Zn  Zn111  1  0.18546145  0.43512570  0.94439326  1
  Zn  Zn112  1  0.15777931  1.03847946  0.42809486  1
  Zn  Zn113  1  0.18365321  0.93938808  0.93567110  1
  Zn  Zn114  1  0.68206833  0.43507230  0.44317082  1
  Zn  Zn115  1  0.68585679  0.44006880  0.94105389  1
  Zn  Zn116  1  0.69213705  0.93202639  0.43186326  1
  Zn  Zn117  1  0.68483834  0.93325553  0.93845434  1
  Zn  Zn118  1  0.30717533  0.06389327  0.05879068  1
  Zn  Zn119  1  0.31533030  0.05551114  0.56568007  1
  Zn  Zn120  1  0.31203229  0.56091288  0.06504212  1
  Zn  Zn121  1  0.31115965  0.55958807  0.56219205  1
  Zn  Zn122  1  0.81321430  0.05886132  0.06350541  1
  Zn  Zn123  1  0.81548001  0.07112112  0.56286605  1
  Zn  Zn124  1  0.81307573  0.56805579  0.05831252  1
  Zn  Zn125  1  0.81551047  0.56868833  0.55798749  1
  Zn  Zn126  1  0.42912989  0.43359573  0.18568330  1
  Zn  Zn127  1  0.43410005  0.43681713  0.69016081  1
  Zn  Zn128  1  0.43887562  0.94082852  0.18723557  1
  Zn  Zn129  1  0.43850066  0.93476915  0.68370826  1
  Zn  Zn130  1  1.00299690  0.45610868  0.21813598  1
  Zn  Zn131  1  0.92367619  0.43278410  0.68632819  1
  Zn  Zn132  1  0.93391448  0.93125882  0.18558581  1
  Zn  Zn133  1  0.93615414  0.93852569  0.68793288  1
  Zn  Zn134  1  0.03498820  0.07039298  0.31637121  1
  Zn  Zn135  1  0.06183275  0.06376681  0.81053334  1
  Zn  Zn136  1  0.06398819  0.59071181  0.31249527  1
  Zn  Zn137  1  0.05801626  0.56320133  0.80988279  1
  Zn  Zn138  1  0.55960533  0.05700376  0.30776202  1
  Zn  Zn139  1  0.56370317  0.06162950  0.81244396  1
  Zn  Zn140  1  0.56121340  0.55927663  0.31095193  1
  Zn  Zn141  1  0.56640839  0.55931127  0.81041004  1
  Zn  Zn142  1  0.43811650  0.18529336  0.43585203  1
  Zn  Zn143  1  0.43823508  0.18393709  0.93238811  1
  Zn  Zn144  1  0.43117106  0.68179875  0.44108887  1
  Zn  Zn145  1  0.43736720  0.68786861  0.93948569  1
  Zn  Zn146  1  0.93783111  0.19168240  0.44032042  1
  Zn  Zn147  1  0.93542306  0.18946166  0.93479001  1
  Zn  Zn148  1  0.93884101  0.68850420  0.43281049  1
  Zn  Zn149  1  0.93635981  0.68685863  0.93657884  1
  Zn  Zn150  1  0.06848885  0.31630500  0.06552025  1
  Zn  Zn151  1  0.06582940  0.31757249  0.56192530  1
  Zn  Zn152  1  0.05500202  0.80774490  0.05982641  1
  Zn  Zn153  1  0.05676402  0.82918009  0.57111257  1
  Zn  Zn154  1  0.56232493  0.31359226  0.06367024  1
  Zn  Zn155  1  0.57037770  0.31336508  0.56192093  1
  Zn  Zn156  1  0.55943163  0.81328286  0.06177340  1
  Zn  Zn157  1  0.56678734  0.80915958  0.55795846  1
  O  O158  1  0.12383732  0.12372990  0.10776222  1
  O  O159  1  0.11182165  0.11721778  0.64061992  1
  O  O160  1  0.13121596  0.62621808  0.11441643  1
  O  O161  1  0.11042082  0.61463483  0.62586164  1
  O  O162  1  0.61587051  0.12011636  0.11857048  1
  O  O163  1  0.61757865  0.11603410  0.61801330  1
  O  O164  1  0.61655646  0.61471014  0.13646814  1
  O  O165  1  0.61283213  0.61485549  0.62711784  1
  O  O166  1  0.38291659  0.38734336  0.36816368  1
  O  O167  1  0.38613849  0.38558404  0.86924924  1
  O  O168  1  0.37392113  0.88677816  0.38517863  1
  O  O169  1  0.37709428  0.88024852  0.88109289  1
  O  O170  1  0.88535360  0.36392555  0.39795610  1
  O  O171  1  0.88718110  0.36682840  0.89209374  1
  O  O172  1  0.86777676  0.88764045  0.37474611  1
  O  O173  1  0.88842282  0.86527901  0.88789606  1
  O  O174  1  0.25236060  0.00216827  0.36070051  1
  O  O175  1  0.25671033  0.00893779  0.87803779  1
  O  O176  1  0.26160395  0.50223407  0.37599540  1
  O  O177  1  0.25475949  0.50356457  0.87181334  1
  O  O178  1  0.74363980  0.00380135  0.36036566  1
  O  O179  1  0.74354443  0.01263580  0.87661944  1
  O  O180  1  0.74645392  0.48562457  0.37115657  1
  O  O181  1  0.75469692  0.50335076  0.87934656  1
  O  O182  1  0.24734899  0.49848987  0.13354683  1
  O  O183  1  0.24348482  0.49094500  0.63043084  1
  O  O184  1  0.24774439  0.99329521  0.13274237  1
  O  O185  1  0.24463269  1.00208896  0.63716490  1
  O  O186  1  0.74162082  0.48953961  0.11504909  1
  O  O187  1  0.73298868  0.50986173  0.61408526  1
  O  O188  1  0.73382877  1.00870683  0.13213464  1
  O  O189  1  0.74109988  0.99078618  0.61289539  1
  O  O190  1  -0.01084234  0.35067317  0.26020217  1
  O  O191  1  -0.00976644  0.36483477  0.75830272  1
  O  O192  1  -0.00030768  0.86950918  0.25481544  1
  O  O193  1  -0.00746596  0.86917615  0.76353065  1
  O  O194  1  0.50321473  0.36708241  0.25340318  1
  O  O195  1  0.50030989  0.36658043  0.75930341  1
  O  O196  1  0.51218046  0.87951251  0.25254461  1
  O  O197  1  0.50706204  0.86568974  0.75063759  1
  O  O198  1  0.49451265  0.13153548  0.24259929  1
  O  O199  1  0.50664498  0.13678415  0.74155831  1
  O  O200  1  0.48852681  0.62103118  0.23915568  1
  O  O201  1  0.49304048  0.62818915  0.74498932  1
  O  O202  1  0.98649996  0.14620637  0.25309246  1
  O  O203  1  0.98830791  0.13472301  0.74948447  1
  O  O204  1  0.98449162  0.64879514  0.25337296  1
  O  O205  1  0.99782961  0.63414655  0.74118181  1
  O  O206  1  0.36578928  0.24553564  -0.00678741  1
  O  O207  1  0.35938897  0.24025080  0.50137420  1
  O  O208  1  0.37209973  0.75971355  0.00850516  1
  O  O209  1  0.38458506  0.76823557  0.49768086  1
  O  O210  1  0.86931716  0.25699089  0.00715513  1
  O  O211  1  0.86466936  0.25017685  0.50776161  1
  O  O212  1  0.88194805  0.75776276  0.01083150  1
  O  O213  1  0.86233397  0.74704777  0.50779346  1
  O  O214  1  0.13490813  0.24769884  0.49408939  1
  O  O215  1  0.12049742  0.23691980  0.99032971  1
  O  O216  1  0.13011138  0.77617613  0.47391474  1
  O  O217  1  0.12203325  0.73242327  0.99659268  1
  O  O218  1  0.62408300  0.23636581  0.49479511  1
  O  O219  1  0.63510483  0.24637934  0.99625936  1
  O  O220  1  0.63273134  0.74487506  0.48632322  1
  O  O221  1  0.62308213  0.75882266  0.98376676  1
  O  O222  1  0.50194904  0.24051925  0.13301102  1
  O  O223  1  0.50211056  0.24457425  0.63024081  1
  O  O224  1  0.49107507  0.73891254  0.11850167  1
  O  O225  1  0.50951698  0.73893679  0.63557226  1
  O  O226  1  0.99020695  0.25627296  0.13374110  1
  O  O227  1  1.01339735  0.24506280  0.64294557  1
  O  O228  1  0.98609295  0.75902729  0.13790393  1
  O  O229  1  0.99439514  0.74559870  0.63048064  1
  O  O230  1  0.01217975  0.24533034  0.37151800  1
  O  O231  1  0.00482057  0.25794490  0.86775893  1
  O  O232  1  -0.00627799  0.75975739  0.36192801  1
  O  O233  1  0.00061486  0.75601708  0.86626584  1
  O  O234  1  0.49115958  0.26016764  0.36469425  1
  O  O235  1  0.50652216  0.25638712  0.86856315  1
  O  O236  1  0.51255618  0.74491976  0.37803367  1
  O  O237  1  0.50643837  0.75473026  0.86679592  1
  O  O238  1  0.24696584  0.12684048  0.50177314  1
  O  O239  1  0.23744159  0.13170256  0.98965054  1
  O  O240  1  0.26068639  0.62787604  0.49014520  1
  O  O241  1  0.23806383  0.62107188  0.99331529  1
  O  O242  1  0.73497834  0.12769733  0.49703890  1
  O  O243  1  0.74800179  0.13282830  0.99209287  1
  O  O244  1  0.74735542  0.63835172  0.49318194  1
  O  O245  1  0.75924507  0.62956728  0.97714276  1
  O  O246  1  0.25193368  0.35865655  -0.00408574  1
  O  O247  1  0.25272453  0.37213342  0.50621400  1
  O  O248  1  0.25832226  0.87506131  0.00600001  1
  O  O249  1  0.26267791  0.87387484  0.51121063  1
  O  O250  1  0.75583294  0.36718133  0.00627718  1
  O  O251  1  0.75854337  0.36250425  0.49709187  1
  O  O252  1  0.76392485  0.86756590  -0.01141729  1
  O  O253  1  0.74059187  0.85923744  0.50990200  1
  O  O254  1  0.10012376  0.50016558  0.25747584  1
  O  O255  1  0.13453714  0.50432665  0.74145729  1
  O  O256  1  0.13654518  1.01280877  0.24631382  1
  O  O257  1  0.11245909  0.99595062  0.73553300  1
  O  O258  1  0.61544999  0.48527436  0.23691085  1
  O  O259  1  0.62264264  0.49640899  0.73586622  1
  O  O260  1  0.62752868  0.99343656  0.24094311  1
  O  O261  1  0.61851155  0.98949297  0.73674478  1
  O  O262  1  0.37008995  0.00668215  0.25795174  1
  O  O263  1  0.38270590  0.00203901  0.76124405  1
  O  O264  1  0.38173221  0.50860455  0.26529251  1
  O  O265  1  0.36741398  0.50752503  0.76136485  1
  O  O266  1  0.85375117  -0.00479944  0.23638500  1
  O  O267  1  0.87646385  0.01331614  0.75420389  1
  O  O268  1  0.90014514  0.51250570  0.24229919  1
  O  O269  1  0.81853604  0.45166036  0.74096823  1
  O  O270  1  0.12080395  0.35170946  0.37450249  1
  O  O271  1  0.11451661  0.36412437  0.88360060  1
  O  O272  1  0.13222412  0.82022696  0.41499732  1
  O  O273  1  0.10667226  0.87059766  0.88487754  1
  O  O274  1  0.61009702  0.37741194  0.36451749  1
  O  O275  1  0.61836154  0.37169113  0.87098083  1
  O  O276  1  0.61979053  0.86043500  0.36938412  1
  O  O277  1  0.61867589  0.87139102  0.86440153  1
  O  O278  1  0.38673861  0.11405652  0.13176524  1
  O  O279  1  0.39157951  0.12258304  0.62598632  1
  O  O280  1  0.37890445  0.63204121  0.13288866  1
  O  O281  1  0.38438840  0.61447307  0.63792904  1
  O  O282  1  0.87146874  0.14195710  0.11701256  1
  O  O283  1  0.88473974  0.12486075  0.64097666  1
  O  O284  1  0.87786097  0.63602124  0.13048800  1
  O  O285  1  0.88241675  0.63635168  0.62499994  1
  O  O286  1  0.25174666  0.24145617  0.10661250  1
  O  O287  1  0.24605401  0.25850793  0.61087503  1
  O  O288  1  0.25983558  0.75949992  0.12545265  1
  O  O289  1  0.24648642  0.75785677  0.62960236  1
  O  O290  1  0.75503661  0.25576146  0.11637695  1
  O  O291  1  0.73782020  0.24302727  0.60305199  1
  O  O292  1  0.76408648  0.74591739  0.11992573  1
  O  O293  1  0.75446079  0.75231550  0.61876783  1
  O  O294  1  0.24324788  0.24835022  0.38894065  1
  O  O295  1  0.24215550  0.24321705  0.88453366  1
  O  O296  1  0.26209798  0.73955005  0.37554681  1
  O  O297  1  0.24833104  0.73728115  0.87926141  1
  O  O298  1  0.75821079  0.23857335  0.39117373  1
  O  O299  1  0.74689179  0.24669269  0.88506385  1
  O  O300  1  0.74577495  0.75449153  0.38434731  1
  O  O301  1  0.73395951  0.74925406  0.87303559  1
  O  O302  1  0.00783731  0.11615497  -0.01097849  1
  O  O303  1  0.00148106  0.14090169  0.52512326  1
  O  O304  1  0.01122066  0.61310893  -0.00472876  1
  O  O305  1  -0.01139417  0.61223404  0.51234606  1
  O  O306  1  0.50729815  0.12674451  0.00555450  1
  O  O307  1  0.50848524  0.11789305  0.50617607  1
  O  O308  1  0.49372609  0.61432586  0.01297824  1
  O  O309  1  0.49895796  0.61515751  0.51043116  1
  O  O310  1  0.50369033  0.38002854  0.49097365  1
  O  O311  1  0.50335866  0.38274359  0.98850985  1
  O  O312  1  0.49570514  0.88583902  0.50283730  1
  O  O313  1  0.48720470  0.87676969  0.99331402  1
  O  O314  1  0.99315554  0.38754896  0.50272432  1
  O  O315  1  0.99805885  0.38497248  0.99624237  1
  O  O316  1  0.98681676  0.87931868  0.50239041  1
  O  O317  1  0.99096789  0.88166488  0.99127715  1
  O  O318  1  0.49526275  0.49213599  0.38362698  1
  O  O319  1  0.49494121  0.49582386  0.88210251  1
  O  O320  1  0.49046041  0.99740690  0.38367221  1
  O  O321  1  0.49149822  0.99466225  0.87692627  1
  O  O322  1  1.00638513  0.50516645  0.39267048  1
  O  O323  1  1.00520017  0.48717234  0.87865109  1
  O  O324  1  1.04637664  0.98736774  0.38724481  1
  O  O325  1  1.00049641  0.98810766  0.88202589  1
  O  O326  1  0.00036245  -0.00756632  0.10964458  1
  O  O327  1  -0.00387359  0.01381984  0.62311806  1
  O  O328  1  0.00666505  0.49613929  0.10975956  1
  O  O329  1  0.00005133  0.50634489  0.63499920  1
  O  O330  1  0.50904489  0.01190608  0.12269365  1
  O  O331  1  0.50901548  0.00569744  0.61670300  1
  O  O332  1  0.50289316  0.50472355  0.11971813  1
  O  O333  1  0.50173159  0.50347647  0.61932563  1
  O  O334  1  0.24810233  0.37762827  0.25051960  1
  O  O335  1  0.25238843  0.38472275  0.75552097  1
  O  O336  1  0.25268835  0.89173255  0.24071703  1
  O  O337  1  0.25995326  0.87181347  0.73874335  1
  O  O338  1  0.74027886  0.36454479  0.24017059  1
  O  O339  1  0.77327785  0.38338424  0.74379821  1
  O  O340  1  0.73096891  0.88883712  0.25024865  1
  O  O341  1  0.73816887  0.86712952  0.73980259  1
  O  O342  1  0.26091627  0.11224923  0.23782322  1
  O  O343  1  0.24947064  0.13805343  0.76357218  1
  O  O344  1  0.26379010  0.62711845  0.26154440  1
  O  O345  1  0.25647112  0.61600675  0.75570161  1
  O  O346  1  0.74285138  0.11253268  0.25368727  1
  O  O347  1  0.76237101  0.13196257  0.75602721  1
  O  O348  1  0.77131886  0.61882428  0.24844082  1
  O  O349  1  0.74605772  0.62736630  0.77359051  1
  O  O350  1  0.37955151  0.11291837  0.36439612  1
  O  O351  1  0.36634270  0.11535482  0.87280313  1
  O  O352  1  0.37155401  0.61348683  0.37007157  1
  O  O353  1  0.36649347  0.61609909  0.86931474  1
  O  O354  1  0.88475999  0.09318908  0.40629441  1
  O  O355  1  0.86628162  0.13077509  0.86375467  1
  O  O356  1  0.87337340  0.62400469  0.36182903  1
  O  O357  1  0.87738455  0.61705707  0.86835592  1
  O  O358  1  0.15097540  0.36849430  0.11931292  1
  O  O359  1  0.13981568  0.38270325  0.62511585  1
  O  O360  1  0.13800734  0.87534752  0.11243652  1
  O  O361  1  0.14356645  0.88345404  0.62492984  1
  O  O362  1  0.63339171  0.38029989  0.13122968  1
  O  O363  1  0.62591242  0.38846909  0.62703452  1
  O  O364  1  0.61663316  0.88500912  0.12961477  1
  O  O365  1  0.63149390  0.87982160  0.62992784  1
  O  O366  1  0.11607482  0.24431972  0.25314352  1
  O  O367  1  0.11194334  0.24665164  0.76480639  1
  O  O368  1  0.11053790  0.74975876  0.24529699  1
  O  O369  1  0.11010848  0.74793029  0.74993476  1
  O  O370  1  0.61186877  0.25983068  0.24525561  1
  O  O371  1  0.62074558  0.25785684  0.75406060  1
  O  O372  1  0.63452258  0.75520296  0.26226600  1
  O  O373  1  0.61600063  0.75621992  0.75926930  1
  O  O374  1  0.38238186  0.23554912  0.25442950  1
  O  O375  1  0.38862047  0.24579811  0.74698785  1
  O  O376  1  0.37443979  0.74638538  0.23951781  1
  O  O377  1  0.38715463  0.73686652  0.75786305  1
  O  O378  1  0.86796176  0.25146535  0.23520431  1
  O  O379  1  0.88918409  0.24267365  0.75120287  1
  O  O380  1  0.87435823  0.75366803  0.23631130  1
  O  O381  1  0.88415426  0.75498439  0.73842778  1
  O  O382  1  0.38413973  0.50205767  0.48698554  1
  O  O383  1  0.38262829  0.50408929  0.98948904  1
  O  O384  1  0.38167117  0.99455912  0.49279101  1
  O  O385  1  0.37418449  0.99075857  0.99063856  1
  O  O386  1  0.88392398  0.49093025  0.50621214  1
  O  O387  1  0.89003530  0.49215533  1.00612882  1
  O  O388  1  0.88548641  1.03835393  0.47306871  1
  O  O389  1  0.87933124  0.98552773  1.00381208  1
  O  O390  1  0.11641203  0.01287227  -0.00146092  1
  O  O391  1  0.12065193  0.00776790  0.53135551  1
  O  O392  1  0.11573927  0.51105734  -0.00395483  1
  O  O393  1  0.10437038  0.49862408  0.52053106  1
  O  O394  1  0.62344657  0.00508855  0.00645574  1
  O  O395  1  0.61837142  0.00545825  0.50530645  1
  O  O396  1  0.61233111  0.49531396  0.01407501  1
  O  O397  1  0.61091463  0.50168927  0.51084517  1
  O  O398  1  0.35070130  0.37620505  0.12791305  1
  O  O399  1  0.35583972  0.37633865  0.62962508  1
  O  O400  1  0.37000887  0.87125096  0.11894430  1
  O  O401  1  0.36401236  0.88121055  0.61564470  1
  O  O402  1  0.86434049  0.36355619  0.11306882  1
  O  O403  1  0.87934076  0.36566905  0.60536596  1
  O  O404  1  0.87276626  0.86576905  0.10888166  1
  O  O405  1  0.86163452  0.86798670  0.62968067  1
  O  O406  1  0.12515503  0.13859105  0.37292679  1
  O  O407  1  0.12962556  0.13085998  0.88094978  1
  O  O408  1  0.14479949  0.63021607  0.37953289  1
  O  O409  1  0.13620072  0.62325203  0.87539418  1
  O  O410  1  0.61756085  0.11973826  0.38622261  1
  O  O411  1  0.63297243  0.13201935  0.87791311  1
  O  O412  1  0.63015635  0.63472432  0.36960356  1
  O  O413  1  0.61658861  0.63814276  0.87658215  1
