# generated using pymatgen
data_V79Zn79O256
_symmetry_space_group_name_H-M   'P 1'
_cell_length_a   16.95780343
_cell_length_b   16.91812248
_cell_length_c   16.98841164
_cell_angle_alpha   89.77222881
_cell_angle_beta   89.80232008
_cell_angle_gamma   89.56051346
_symmetry_Int_Tables_number   1
_chemical_formula_structural   V79Zn79O256
_chemical_formula_sum   'V79 Zn79 O256'
_cell_volume   4873.66630066
_cell_formula_units_Z   1
loop_
 _symmetry_equiv_pos_site_id
 _symmetry_equiv_pos_as_xyz
  1  'x, y, z'
loop_
 _atom_site_type_symbol
 _atom_site_label
 _atom_site_symmetry_multiplicity
 _atom_site_fract_x
 _atom_site_fract_y
 _atom_site_fract_z
 _atom_site_occupancy
  V  V0  1  0.74785020  0.24808319  0.49608432  1
  V  V1  1  0.75069886  0.49350533  0.75262299  1
  V  V2  1  0.75083561  0.76864704  0.50636141  1
  V  V3  1  0.49382914  0.85017023  0.85878041  1
  V  V4  1  0.12312280  0.62347950  -0.00172332  1
  V  V5  1  -0.00280326  0.62203572  0.13543103  1
  V  V6  1  0.12992917  0.62577509  0.50004573  1
  V  V7  1  0.88579009  0.89330031  0.49166594  1
  V  V8  1  0.12785024  0.74540332  0.87411954  1
  V  V9  1  0.51341528  0.11782987  0.12323674  1
  V  V10  1  0.62769975  0.38018282  0.25011216  1
  V  V11  1  -0.00467195  0.24113583  0.75027687  1
  V  V12  1  0.63367959  0.64240436  -0.00236208  1
  V  V13  1  0.06343355  0.80060547  0.32796582  1
  V  V14  1  0.49684517  0.37546948  0.87632521  1
  V  V15  1  0.37291894  0.86559467  0.49602161  1
  V  V16  1  0.49585238  0.52304361  0.50926938  1
  V  V17  1  0.50244466  0.25549042  0.25401256  1
  V  V18  1  0.37747192  0.00104243  0.37624115  1
  V  V19  1  0.24763969  0.12968456  0.37882686  1
  V  V20  1  0.26971356  0.12200201  0.87425290  1
  V  V21  1  0.87345108  0.11774217  0.26343190  1
  V  V22  1  0.62851806  0.25054334  0.37436827  1
  V  V23  1  0.63010694  0.74211639  0.37200110  1
  V  V24  1  0.13503462  0.38003004  0.24871484  1
  V  V25  1  0.37403396  0.26030793  0.12441759  1
  V  V26  1  0.50363107  -0.01448153  -0.02627917  1
  V  V27  1  0.00048685  0.87534524  0.87072085  1
  V  V28  1  0.63541034  -0.00643309  0.62332405  1
  V  V29  1  0.25976747  0.50189484  0.75198430  1
  V  V30  1  0.62823933  0.24125062  0.88068384  1
  V  V31  1  0.00788912  0.11979597  0.12720901  1
  V  V32  1  0.74350064  0.37643845  0.62518110  1
  V  V33  1  0.38100778  0.14470218  0.71885825  1
  V  V34  1  0.00089738  -0.00328373  0.00467229  1
  V  V35  1  0.24825569  0.87358346  0.62035339  1
  V  V36  1  0.50872726  0.63344884  0.13959441  1
  V  V37  1  0.25436394  0.25210761  0.00404669  1
  V  V38  1  -0.00386631  0.25252079  0.25162636  1
  V  V39  1  0.75342827  0.23963418  0.00203962  1
  V  V40  1  0.14082652  0.49786918  0.12872448  1
  V  V41  1  0.24865107  0.25134335  0.50606118  1
  V  V42  1  0.86893122  0.38035570  0.49851422  1
  V  V43  1  0.62443212  0.37386150  0.75522713  1
  V  V44  1  0.01698963  0.01227949  0.49458532  1
  V  V45  1  0.36911701  0.62844528  0.24725665  1
  V  V46  1  0.88071205  0.25212280  0.11927989  1
  V  V47  1  0.25611171  0.37451264  0.62561595  1
  V  V48  1  0.24162520  -0.00989725  0.24622397  1
  V  V49  1  0.86710387  0.00827254  0.86751536  1
  V  V50  1  0.25854140  0.61845769  0.87346129  1
  V  V51  1  0.37678070  0.73870485  0.63522070  1
  V  V52  1  0.75694290  -0.00062750  0.25722478  1
  V  V53  1  0.85621221  0.60806573  0.25925434  1
  V  V54  1  0.11666207  0.50205178  0.63066364  1
  V  V55  1  0.87262045  0.24036198  0.62914147  1
  V  V56  1  0.86912724  0.85922259  -0.00308059  1
  V  V57  1  -0.00294208  0.74417831  0.74027433  1
  V  V58  1  0.75467887  0.64128588  0.87662843  1
  V  V59  1  0.50487866  0.87256888  0.37125408  1
  V  V60  1  0.49711518  0.00591182  0.50514901  1
  V  V61  1  -0.00544439  0.50468008  0.50876153  1
  V  V62  1  0.62265589  0.12438247  0.49539345  1
  V  V63  1  -0.00648115  0.38443010  0.37671993  1
  V  V64  1  0.62594002  0.88139974  0.24321112  1
  V  V65  1  0.63097555  0.63174439  0.51975766  1
  V  V66  1  0.12368402  0.25217258  0.38082854  1
  V  V67  1  0.38412166  0.36965660  0.49546617  1
  V  V68  1  0.49772455  0.50049811  -0.00036543  1
  V  V69  1  0.12735890  0.24473372  0.87657219  1
  V  V70  1  0.63602758  0.49665158  0.12058090  1
  V  V71  1  0.26501283  -0.00099381  0.74679583  1
  V  V72  1  0.86824600  0.75102336  0.13977048  1
  V  V73  1  0.12527329  0.88274170  0.74106378  1
  V  V74  1  0.87364149  0.48817604  0.88329376  1
  V  V75  1  0.37579276  0.12774553  0.24523014  1
  V  V76  1  0.75722565  0.37304801  0.12250787  1
  V  V77  1  -0.00437037  0.36888384  0.88347000  1
  V  V78  1  0.63161757  0.86110663  0.74708946  1
  Zn  Zn79  1  0.01745614  0.11852197  0.62601756  1
  Zn  Zn80  1  0.63767776  0.10815355  0.00456047  1
  Zn  Zn81  1  0.73803937  0.88045681  0.11253580  1
  Zn  Zn82  1  0.53854270  0.68917286  0.70117437  1
  Zn  Zn83  1  0.12487299  0.37345799  0.75146872  1
  Zn  Zn84  1  0.88494450  0.61169524  0.74243450  1
  Zn  Zn85  1  0.87230117  0.75360016  0.62280638  1
  Zn  Zn86  1  0.30493192  0.82703242  0.05891996  1
  Zn  Zn87  1  -0.00251324  0.49185748  0.00239228  1
  Zn  Zn88  1  0.75269501  0.01517848  0.74834053  1
  Zn  Zn89  1  0.13360978  0.11632825  0.00571389  1
  Zn  Zn90  1  0.36492549  0.39173128  0.00286034  1
  Zn  Zn91  1  0.24734395  0.62100526  0.36539488  1
  Zn  Zn92  1  0.20441226  0.77775002  0.45339415  1
  Zn  Zn93  1  0.17399565  -0.06272626  0.08950367  1
  Zn  Zn94  1  0.18868903  0.18959868  0.19066423  1
  Zn  Zn95  1  0.19224272  0.18949388  0.69613688  1
  Zn  Zn96  1  0.19253572  0.71706023  0.19341777  1
  Zn  Zn97  1  0.18716871  0.68753861  0.68298160  1
  Zn  Zn98  1  0.69423709  0.18856650  0.19151363  1
  Zn  Zn99  1  0.66281678  0.18645740  0.68198187  1
  Zn  Zn100  1  0.68445583  0.69403857  0.18517307  1
  Zn  Zn101  1  0.72033360  0.67960701  0.68009928  1
  Zn  Zn102  1  0.31582478  0.31548308  0.31695489  1
  Zn  Zn103  1  0.31723368  0.31346826  0.81176264  1
  Zn  Zn104  1  0.32073560  0.80341755  0.30436842  1
  Zn  Zn105  1  0.31156608  0.80547804  0.80806352  1
  Zn  Zn106  1  0.79689299  0.43293532  0.32048158  1
  Zn  Zn107  1  0.81093847  0.30312124  0.81468298  1
  Zn  Zn108  1  0.81171525  0.81456508  0.31934786  1
  Zn  Zn109  1  0.81379242  0.82678437  0.80425169  1
  Zn  Zn110  1  0.18755276  0.44212212  0.43623823  1
  Zn  Zn111  1  0.18376881  0.43575465  0.93879412  1
  Zn  Zn112  1  0.18554539  0.94251573  0.42590005  1
  Zn  Zn113  1  0.18921673  0.93766445  0.92171100  1
  Zn  Zn114  1  0.62704156  0.49040579  0.39272652  1
  Zn  Zn115  1  0.69053744  0.43005490  0.94180876  1
  Zn  Zn116  1  0.68933478  0.94034516  0.43073909  1
  Zn  Zn117  1  0.68167455  0.93057037  0.93003806  1
  Zn  Zn118  1  0.30717873  0.02862541  0.04075623  1
  Zn  Zn119  1  0.19451737  0.06375161  0.56733999  1
  Zn  Zn120  1  0.31869405  0.66278473  0.06145377  1
  Zn  Zn121  1  0.31107971  0.55489140  0.56166822  1
  Zn  Zn122  1  0.82153389  0.05532986  0.07320973  1
  Zn  Zn123  1  0.81064437  0.06439527  0.55822151  1
  Zn  Zn124  1  0.81323516  0.56528120  0.06194721  1
  Zn  Zn125  1  0.80855143  0.56598003  0.56400941  1
  Zn  Zn126  1  0.44207144  0.44599585  0.18368822  1
  Zn  Zn127  1  0.46733978  0.50373166  0.70758972  1
  Zn  Zn128  1  0.43547242  0.93787698  0.18792620  1
  Zn  Zn129  1  0.44058295  0.92988750  0.68264229  1
  Zn  Zn130  1  0.93877037  0.43863978  0.18831393  1
  Zn  Zn131  1  0.93433934  0.42450635  0.69249076  1
  Zn  Zn132  1  1.03069399  0.92725808  0.19288499  1
  Zn  Zn133  1  0.93328308  0.93984739  0.67402954  1
  Zn  Zn134  1  0.06331164  0.06412530  0.31628204  1
  Zn  Zn135  1  0.06518940  0.06201729  0.81401003  1
  Zn  Zn136  1  0.06296669  0.56676176  0.31377253  1
  Zn  Zn137  1  0.06188722  0.55740218  0.81344662  1
  Zn  Zn138  1  0.56648934  0.06356360  0.31120249  1
  Zn  Zn139  1  0.55827631  0.06773403  0.79942844  1
  Zn  Zn140  1  0.37189363  0.49563495  0.36521270  1
  Zn  Zn141  1  0.57584133  0.56159795  0.82520659  1
  Zn  Zn142  1  0.43695616  0.18983912  0.43732225  1
  Zn  Zn143  1  0.44501806  0.18800810  0.94387141  1
  Zn  Zn144  1  0.43894034  0.68685942  0.42490150  1
  Zn  Zn145  1  0.44278279  0.68152933  0.92861091  1
  Zn  Zn146  1  0.93737305  0.19014797  0.44194953  1
  Zn  Zn147  1  0.94001540  0.18193310  0.93968349  1
  Zn  Zn148  1  0.92814835  0.68188474  0.43703671  1
  Zn  Zn149  1  0.94093384  0.67974185  0.92937084  1
  Zn  Zn150  1  0.07036164  0.31085585  0.06387030  1
  Zn  Zn151  1  0.06160558  0.31434087  0.56748079  1
  Zn  Zn152  1  0.05471926  0.80091574  0.05944123  1
  Zn  Zn153  1  0.05457391  0.81842061  0.55909333  1
  Zn  Zn154  1  0.56392245  0.30892691  0.06338076  1
  Zn  Zn155  1  0.55886779  0.30495476  0.57686190  1
  Zn  Zn156  1  0.46553301  0.80729235  0.05678278  1
  Zn  Zn157  1  0.55733880  0.81557325  0.56029626  1
  O  O158  1  0.11228082  0.12961115  0.12769997  1
  O  O159  1  0.13023168  0.13266071  0.62564156  1
  O  O160  1  0.10902439  0.61316925  0.11974671  1
  O  O161  1  0.12423436  0.60956694  0.62051080  1
  O  O162  1  0.61525241  0.13278674  0.12869381  1
  O  O163  1  0.62198182  0.10310898  0.60225828  1
  O  O164  1  0.63048400  0.61736502  0.11217211  1
  O  O165  1  0.62261531  0.64552339  0.62129742  1
  O  O166  1  0.37447391  0.37913197  0.39002718  1
  O  O167  1  0.39321674  0.36930088  0.88157488  1
  O  O168  1  0.38389644  0.88204694  0.37583334  1
  O  O169  1  0.39341478  0.86501091  0.85820701  1
  O  O170  1  0.88193926  0.37681435  0.38680083  1
  O  O171  1  0.88391674  0.37605430  0.87306418  1
  O  O172  1  0.87658886  0.86587886  0.39497237  1
  O  O173  1  0.88365044  0.88106479  0.88246841  1
  O  O174  1  0.25791255  0.01084050  0.36595632  1
  O  O175  1  0.24714039  0.01277539  0.85817652  1
  O  O176  1  0.25516370  0.50818598  0.37882201  1
  O  O177  1  0.24235828  0.50530874  0.86270662  1
  O  O178  1  0.75268273  0.00101568  0.35828290  1
  O  O179  1  0.76505102  -0.00300161  0.87669698  1
  O  O180  1  0.73393863  0.49674142  0.38344551  1
  O  O181  1  0.76059811  0.48931910  0.86970093  1
  O  O182  1  0.23546918  0.50405036  0.12456478  1
  O  O183  1  0.24034412  0.49478218  0.63706315  1
  O  O184  1  0.24944100  1.01209805  0.14398326  1
  O  O185  1  0.24683908  0.98280664  0.63302086  1
  O  O186  1  0.74673828  0.48766117  0.11686204  1
  O  O187  1  0.75811276  0.48816668  0.64199151  1
  O  O188  1  0.76288762  0.98907637  0.14371435  1
  O  O189  1  0.73691309  0.99465085  0.61644065  1
  O  O190  1  0.00310464  0.36972924  0.25952173  1
  O  O191  1  0.00322988  0.35978943  0.76349497  1
  O  O192  1  0.00390464  0.86921706  0.28111980  1
  O  O193  1  0.00812861  0.86941155  0.75482500  1
  O  O194  1  0.51463837  0.36224895  0.23215030  1
  O  O195  1  0.51130892  0.39278142  0.77084546  1
  O  O196  1  0.51619445  0.88818597  0.26138659  1
  O  O197  1  0.51379602  0.87551297  0.75324255  1
  O  O198  1  0.49565285  0.13557392  0.24609987  1
  O  O199  1  0.47616107  0.11937648  0.74576949  1
  O  O200  1  0.51976814  0.62575237  0.23508565  1
  O  O201  1  0.50034562  0.60070197  0.75503769  1
  O  O202  1  0.99505848  0.13027240  0.24653949  1
  O  O203  1  1.00582858  0.13736929  0.74958604  1
  O  O204  1  0.98591274  0.61582454  0.23772802  1
  O  O205  1  0.99818786  0.63989514  0.75878237  1
  O  O206  1  0.36918723  0.24799110  0.01054686  1
  O  O207  1  0.35967412  0.25954256  0.49077843  1
  O  O208  1  0.38156175  0.74316967  0.00233529  1
  O  O209  1  0.38266953  0.76446883  0.49837102  1
  O  O210  1  0.87154752  0.24115884  0.01277757  1
  O  O211  1  0.86684157  0.25921758  0.50619086  1
  O  O212  1  0.87760471  0.75798929  -0.01065145  1
  O  O213  1  0.85607791  0.74591531  0.50004196  1
  O  O214  1  0.13187470  0.26106743  0.48752106  1
  O  O215  1  0.13735250  0.24357308  0.99523405  1
  O  O216  1  0.11879301  0.73015140  0.51595359  1
  O  O217  1  0.11697751  0.73883229  0.98292251  1
  O  O218  1  0.62664996  0.24443071  0.49284519  1
  O  O219  1  0.63539909  0.24421130  0.99508878  1
  O  O220  1  0.63136793  0.75328211  0.49362466  1
  O  O221  1  0.62919599  0.73746631  0.99966551  1
  O  O222  1  0.49311211  0.24038146  0.13158238  1
  O  O223  1  0.56051392  0.22903004  0.65540099  1
  O  O224  1  0.52257076  0.73084556  0.11889995  1
  O  O225  1  0.48325190  0.75546939  0.62476495  1
  O  O226  1  0.99866484  0.24521431  0.13160329  1
  O  O227  1  0.99097624  0.25193521  0.63448216  1
  O  O228  1  0.98348661  0.72773479  0.11598992  1
  O  O229  1  1.00084602  0.75046103  0.63900420  1
  O  O230  1  0.00607327  0.26002682  0.37029877  1
  O  O231  1  0.00615412  0.24979514  0.87227540  1
  O  O232  1  0.00499877  0.74555456  0.38747601  1
  O  O233  1  0.00736417  0.75904029  0.86549527  1
  O  O234  1  0.50857825  0.24823903  0.36187977  1
  O  O235  1  0.51621119  0.26536621  0.89021160  1
  O  O236  1  0.51404323  0.76531081  0.38105952  1
  O  O237  1  0.50519072  0.75022373  0.86109299  1
  O  O238  1  0.25040500  0.13408108  0.48515338  1
  O  O239  1  0.25208503  0.12396104  0.99072757  1
  O  O240  1  0.23066072  0.61796839  0.50541387  1
  O  O241  1  0.23620310  0.61732195  0.98173174  1
  O  O242  1  0.73960781  0.13924777  0.50228517  1
  O  O243  1  0.75151745  0.13351198  1.01517458  1
  O  O244  1  0.73449572  0.63945184  0.50753075  1
  O  O245  1  0.74646959  0.62591014  0.98818966  1
  O  O246  1  0.25430300  0.35893467  -0.00902532  1
  O  O247  1  0.25384403  0.36888819  0.50509683  1
  O  O248  1  0.25682712  0.92029925  0.01026186  1
  O  O249  1  0.25662809  0.87582769  0.50352384  1
  O  O250  1  0.74895442  0.35799847  0.01516060  1
  O  O251  1  0.75691235  0.36782391  0.51174451  1
  O  O252  1  0.76623324  0.87835015  -0.00336378  1
  O  O253  1  0.75869517  0.87237358  0.49399536  1
  O  O254  1  0.11710259  0.49486607  0.23732750  1
  O  O255  1  0.12740754  0.49431450  0.74344044  1
  O  O256  1  0.13899012  0.99818448  0.25806916  1
  O  O257  1  0.13047678  0.98659287  0.75305531  1
  O  O258  1  0.61988989  0.48239685  0.23520853  1
  O  O259  1  0.64112388  0.48409094  0.76386666  1
  O  O260  1  0.63937167  0.99198244  0.25401454  1
  O  O261  1  0.62318399  1.00046743  0.72920910  1
  O  O262  1  0.36963502  0.01004762  0.25976683  1
  O  O263  1  0.36554712  -0.00039100  0.73977749  1
  O  O264  1  0.39196771  0.51608485  0.25200806  1
  O  O265  1  0.35762816  0.49778557  0.74464720  1
  O  O266  1  0.87195324  0.01447848  0.25670882  1
  O  O267  1  0.87424386  -0.01156830  0.76364159  1
  O  O268  1  0.86580785  0.50231439  0.25200665  1
  O  O269  1  0.86852363  0.49521397  0.76162266  1
  O  O270  1  0.11556855  0.37007358  0.36796582  1
  O  O271  1  0.11776434  0.36010364  0.87696524  1
  O  O272  1  0.13417372  0.85088262  0.38761096  1
  O  O273  1  0.12024329  0.86516690  0.86424328  1
  O  O274  1  0.62160477  0.36757640  0.35296201  1
  O  O275  1  0.61939900  0.36672172  0.87551342  1
  O  O276  1  0.61850638  0.87097514  0.37047663  1
  O  O277  1  0.61673978  0.87461553  0.85291761  1
  O  O278  1  0.38645766  0.13517624  0.13972400  1
  O  O279  1  0.37125029  0.13274734  0.62327260  1
  O  O280  1  0.39983326  0.62013929  0.13527869  1
  O  O281  1  0.36599177  0.64129367  0.61184072  1
  O  O282  1  0.89008012  0.13319749  0.13529040  1
  O  O283  1  0.87443409  0.13976289  0.61713631  1
  O  O284  1  0.87654977  0.63231813  0.13299256  1
  O  O285  1  0.83747629  0.64333771  0.64458176  1
  O  O286  1  0.26044862  0.24175476  0.11535431  1
  O  O287  1  0.24059433  0.26124913  0.61340810  1
  O  O288  1  0.24294802  0.74039021  0.10043005  1
  O  O289  1  0.25940872  0.76280254  0.62833627  1
  O  O290  1  0.76226875  0.25339033  0.12223787  1
  O  O291  1  0.75379236  0.25860785  0.61648314  1
  O  O292  1  0.76501033  0.75747505  0.12462575  1
  O  O293  1  0.74201234  0.76817545  0.60792773  1
  O  O294  1  0.24242289  0.24762679  0.38203252  1
  O  O295  1  0.24607803  0.24075776  0.88172183  1
  O  O296  1  0.26723839  0.73292002  0.37533543  1
  O  O297  1  0.23736680  0.73216731  0.86120076  1
  O  O298  1  0.73453732  0.26106220  0.38922549  1
  O  O299  1  0.74134797  0.25311997  0.89130704  1
  O  O300  1  0.73554215  0.75528875  0.38817074  1
  O  O301  1  0.76012752  0.73860749  0.86439277  1
  O  O302  1  0.00308150  0.11349273  0.01056788  1
  O  O303  1  0.00060753  0.11812734  0.50296272  1
  O  O304  1  0.01068977  0.61885651  0.00084967  1
  O  O305  1  -0.00253212  0.60821892  0.50166278  1
  O  O306  1  0.50891908  0.12040216  0.01503958  1
  O  O307  1  0.50747500  0.11582481  0.48927731  1
  O  O308  1  0.52028900  0.61314061  -0.00682652  1
  O  O309  1  0.50363618  0.62784297  0.50504977  1
  O  O310  1  0.48149806  0.35267485  0.51011784  1
  O  O311  1  0.50296443  0.38597988  0.99737850  1
  O  O312  1  0.49172972  0.88609373  0.48904092  1
  O  O313  1  0.50836243  0.87698320  0.96991749  1
  O  O314  1  0.98940821  0.37957678  0.49501181  1
  O  O315  1  1.00486328  0.37051965  0.98800669  1
  O  O316  1  0.99530348  0.89318424  0.49724256  1
  O  O317  1  0.99261868  0.87642355  0.98724294  1
  O  O318  1  0.51563996  0.48674607  0.41417872  1
  O  O319  1  0.51318409  0.48699879  0.89271691  1
  O  O320  1  0.49377254  0.99565814  0.37885821  1
  O  O321  1  0.49952840  1.00037143  0.87490310  1
  O  O322  1  1.00550220  0.48850641  0.38705234  1
  O  O323  1  0.99217893  0.48642811  0.87465513  1
  O  O324  1  1.00433834  1.00849603  0.39364413  1
  O  O325  1  0.99597531  0.98933170  0.87987241  1
  O  O326  1  -0.00345131  0.00692038  0.11833646  1
  O  O327  1  -0.00334302  0.00499231  0.60682042  1
  O  O328  1  -0.00996615  0.51291160  0.11759325  1
  O  O329  1  0.00517762  0.48682085  0.62106669  1
  O  O330  1  0.50355427  0.01990043  0.14087046  1
  O  O331  1  0.50378676  -0.00666087  0.60726340  1
  O  O332  1  0.51688562  0.50868994  0.11280864  1
  O  O333  1  0.50368606  0.48481268  0.60365600  1
  O  O334  1  0.23354067  0.36654801  0.25424312  1
  O  O335  1  0.24815572  0.38480056  0.74566546  1
  O  O336  1  0.26062267  0.89188688  0.25341484  1
  O  O337  1  0.24432201  0.88023573  0.74413563  1
  O  O338  1  0.73690673  0.37028100  0.23627436  1
  O  O339  1  0.74664543  0.37578603  0.74514759  1
  O  O340  1  0.74306070  0.88432520  0.25372234  1
  O  O341  1  0.73356401  0.88752067  0.75072572  1
  O  O342  1  0.25940336  0.12580029  0.26065636  1
  O  O343  1  0.26692937  0.11924819  0.75404563  1
  O  O344  1  0.26680738  0.63009958  0.24009898  1
  O  O345  1  0.24049910  0.61033518  0.75848792  1
  O  O346  1  0.76508717  0.11591359  0.24421216  1
  O  O347  1  0.73832912  0.12540871  0.73482700  1
  O  O348  1  0.75921236  0.62603202  0.24304909  1
  O  O349  1  0.74231476  0.60917240  0.77089951  1
  O  O350  1  0.36944416  0.12166751  0.36612738  1
  O  O351  1  0.36930796  0.13178492  0.87716123  1
  O  O352  1  0.38332995  0.61690137  0.35841054  1
  O  O353  1  0.35647438  0.62252985  0.87673349  1
  O  O354  1  0.87752529  0.13772194  0.36016018  1
  O  O355  1  0.88258565  0.10668483  0.87716904  1
  O  O356  1  0.87325959  0.62609854  0.35533183  1
  O  O357  1  0.86436497  0.61339863  0.87016427  1
  O  O358  1  0.11817752  0.38964859  0.13295592  1
  O  O359  1  0.13505952  0.38484483  0.62544878  1
  O  O360  1  0.10547027  0.86493171  0.13373765  1
  O  O361  1  0.13373780  0.86460030  0.63351368  1
  O  O362  1  0.63579433  0.37645059  0.12832521  1
  O  O363  1  0.63710879  0.37215636  0.63879742  1
  O  O364  1  0.62482536  0.87000383  0.14506726  1
  O  O365  1  0.61692017  0.88627546  0.63131432  1
  O  O366  1  0.11348193  0.25909041  0.25541275  1
  O  O367  1  0.11937320  0.25220943  0.76329363  1
  O  O368  1  0.11136723  0.73455307  0.26465202  1
  O  O369  1  0.11488598  0.75538954  0.75521176  1
  O  O370  1  0.62132414  0.25356359  0.25538610  1
  O  O371  1  0.63738322  0.26432087  0.77566052  1
  O  O372  1  0.63575116  0.76423814  0.26504379  1
  O  O373  1  0.63266677  0.75962776  0.73537276  1
  O  O374  1  0.38209758  0.24801867  0.24635663  1
  O  O375  1  0.36805846  0.24449588  0.73977931  1
  O  O376  1  0.39020753  0.72938053  0.25019062  1
  O  O377  1  0.37243540  0.74075045  0.73477713  1
  O  O378  1  0.89099209  0.24119131  0.23959591  1
  O  O379  1  0.88350006  0.25336648  0.74150443  1
  O  O380  1  0.87199886  0.74698398  0.24078565  1
  O  O381  1  0.89261138  0.76097229  0.75057001  1
  O  O382  1  0.38655878  0.49176976  0.49839720  1
  O  O383  1  0.39805121  0.50531137  1.00577871  1
  O  O384  1  0.38038131  0.99199737  0.48296317  1
  O  O385  1  0.41127026  1.00238733  1.01044173  1
  O  O386  1  0.87945486  0.48942806  0.51267229  1
  O  O387  1  0.87607654  0.50305251  0.98602990  1
  O  O388  1  0.87654167  0.99582035  0.49388182  1
  O  O389  1  0.88682751  0.98920120  0.99194454  1
  O  O390  1  0.11000536  -0.00373392  -0.00393250  1
  O  O391  1  0.12268804  0.00333077  0.49849811  1
  O  O392  1  0.12207041  0.50371334  0.01233719  1
  O  O393  1  0.11360308  0.50458994  0.51170013  1
  O  O394  1  0.61097782  -0.00312668  -0.00545990  1
  O  O395  1  0.61715204  0.00239081  0.49952651  1
  O  O396  1  0.62559718  0.49939426  0.01048515  1
  O  O397  1  0.61916604  0.53016756  0.51217962  1
  O  O398  1  0.38272774  0.36401785  0.12242446  1
  O  O399  1  0.35750543  0.38111134  0.60760866  1
  O  O400  1  0.39218341  0.86447486  0.12185846  1
  O  O401  1  0.36724247  0.86649502  0.61406352  1
  O  O402  1  0.87032282  0.36224089  0.13300979  1
  O  O403  1  0.86552958  0.36405261  0.61853634  1
  O  O404  1  0.88571635  0.85412844  0.10608793  1
  O  O405  1  0.88106725  0.86791226  0.60070311  1
  O  O406  1  0.13561178  0.14255420  0.36529266  1
  O  O407  1  0.13300748  0.13464479  0.87730415  1
  O  O408  1  0.12146634  0.61749405  0.39660869  1
  O  O409  1  0.12578361  0.62757396  0.88085677  1
  O  O410  1  0.62434586  0.13618562  0.38235370  1
  O  O411  1  0.61615383  0.13993636  0.87518458  1
  O  O412  1  0.61921052  0.64435235  0.38994575  1
  O  O413  1  0.64411242  0.62332940  0.88905300  1
