# generated using pymatgen
data_V79Zn79O256
_symmetry_space_group_name_H-M   'P 1'
_cell_length_a   16.93340021
_cell_length_b   16.96856007
_cell_length_c   16.93704299
_cell_angle_alpha   89.90291898
_cell_angle_beta   89.78424388
_cell_angle_gamma   89.76657575
_symmetry_Int_Tables_number   1
_chemical_formula_structural   V79Zn79O256
_chemical_formula_sum   'V79 Zn79 O256'
_cell_volume   4866.53058687
_cell_formula_units_Z   1
loop_
 _symmetry_equiv_pos_site_id
 _symmetry_equiv_pos_as_xyz
  1  'x, y, z'
loop_
 _atom_site_type_symbol
 _atom_site_label
 _atom_site_symmetry_multiplicity
 _atom_site_fract_x
 _atom_site_fract_y
 _atom_site_fract_z
 _atom_site_occupancy
  V  V0  1  0.37675480  0.36786543  0.49123970  1
  V  V1  1  0.62258705  0.37435094  0.75630201  1
  V  V2  1  0.74729913  0.87634278  0.62923095  1
  V  V3  1  0.50753038  0.48953452  -0.00329593  1
  V  V4  1  0.13155858  -0.00178335  0.12882396  1
  V  V5  1  0.11762633  0.24006024  0.37212897  1
  V  V6  1  0.49272075  0.74246165  0.25398192  1
  V  V7  1  0.37446534  0.12520707  0.24289442  1
  V  V8  1  0.62218073  0.50435084  0.62648887  1
  V  V9  1  0.61579083  0.76732525  0.87111418  1
  V  V10  1  0.62686178  0.00116550  0.61640635  1
  V  V11  1  0.24768346  0.72776498  0.48953713  1
  V  V12  1  0.37926492  -0.00583113  0.87883888  1
  V  V13  1  0.38208592  0.00955616  0.37599013  1
  V  V14  1  0.62496254  0.50552576  0.12989065  1
  V  V15  1  0.00050649  -0.00053529  0.00036348  1
  V  V16  1  0.74817942  0.62538476  0.87390042  1
  V  V17  1  0.74718385  0.62906671  0.37947453  1
  V  V18  1  0.50225807  0.13128107  0.11597819  1
  V  V19  1  0.25224142  0.23710131  0.48847866  1
  V  V20  1  0.25256979  0.76478212  -0.00597451  1
  V  V21  1  0.41647309  0.60763235  0.75239294  1
  V  V22  1  0.74664508  -0.00140153  0.24793323  1
  V  V23  1  0.22648537  0.52871689  0.74721073  1
  V  V24  1  0.12992360  0.88337549  0.73544550  1
  V  V25  1  -0.01564326  0.38818621  0.88517984  1
  V  V26  1  0.62945915  0.12059104  -0.00788988  1
  V  V27  1  0.73563475  0.48866535  0.26249308  1
  V  V28  1  0.75394830  0.36246901  0.62587420  1
  V  V29  1  0.00123763  0.87634507  0.87316868  1
  V  V30  1  0.62701392  0.14172348  0.49667358  1
  V  V31  1  0.13083052  0.74913795  0.86876401  1
  V  V32  1  0.87607855  0.13214999  0.24958873  1
  V  V33  1  0.74638868  0.13177303  0.37983271  1
  V  V34  1  0.36238230  0.26068822  0.11846483  1
  V  V35  1  0.36306302  0.37730952  -0.00758470  1
  V  V36  1  -0.01200170  0.62728951  0.10002006  1
  V  V37  1  0.87288917  0.36291896  0.50556668  1
  V  V38  1  0.50205735  0.24906535  0.75237616  1
  V  V39  1  0.87321158  0.01042908  0.87107931  1
  V  V40  1  0.00231365  0.60905738  0.62453195  1
  V  V41  1  0.12800803  0.13089029  0.00025598  1
  V  V42  1  0.49288552  0.88059171  0.38258456  1
  V  V43  1  0.24780774  0.00626920  0.74496797  1
  V  V44  1  0.19373192  0.82025720  0.18284343  1
  V  V45  1  0.12337592  0.25602530  0.87718443  1
  V  V46  1  -0.00688486  0.75387376  0.73689161  1
  V  V47  1  0.75162815  0.86750599  0.12391468  1
  V  V48  1  0.87827184  -0.00666597  0.37303661  1
  V  V49  1  0.77157905  0.39718650  0.10579438  1
  V  V50  1  0.87601422  0.25077272  0.11825188  1
  V  V51  1  0.49908510  0.62627833  0.11707335  1
  V  V52  1  0.61917277  -0.00065882  0.11640036  1
  V  V53  1  0.25702067  0.13169230  0.87579167  1
  V  V54  1  0.50091578  0.76988889  0.73682266  1
  V  V55  1  0.00141841  0.12877664  0.13152483  1
  V  V56  1  0.25158039  0.00268559  0.25008094  1
  V  V57  1  0.12695918  0.49400434  0.10937528  1
  V  V58  1  0.01563084  0.49551614  0.50108078  1
  V  V59  1  0.37494944  0.75348693  0.12845043  1
  V  V60  1  0.87195654  0.87041644  0.00208235  1
  V  V61  1  0.00125476  -0.00290130  0.50596707  1
  V  V62  1  0.74165785  0.74951304  -0.00164341  1
  V  V63  1  0.50192796  0.12663289  0.62113882  1
  V  V64  1  0.74434757  0.00515979  0.75786776  1
  V  V65  1  0.50236601  0.49761746  0.49791608  1
  V  V66  1  -0.00728267  0.25040412  0.74209204  1
  V  V67  1  0.87317967  0.50168379  0.38295871  1
  V  V68  1  0.88395048  0.63195677  0.25196349  1
  V  V69  1  0.75295057  0.24905628  -0.00532454  1
  V  V70  1  0.88112327  0.86915766  0.49932105  1
  V  V71  1  0.74946149  0.75074011  0.50917786  1
  V  V72  1  0.14244314  0.62489954  -0.00980323  1
  V  V73  1  0.13197662  0.37445328  0.73756912  1
  V  V74  1  0.36802778  0.24914175  0.63266284  1
  V  V75  1  0.37042736  0.50487197  0.37194549  1
  V  V76  1  0.62168476  0.75316515  0.37643797  1
  V  V77  1  0.75877089  0.50066658  0.75332881  1
  V  V78  1  0.62744668  0.24618198  0.87719889  1
  Zn  Zn79  1  0.37445244  0.50131163  0.87552310  1
  Zn  Zn80  1  0.61214783  0.63186120  0.50803959  1
  Zn  Zn81  1  0.00081780  0.12620796  0.61996220  1
  Zn  Zn82  1  0.31487224  0.67211911  0.30685233  1
  Zn  Zn83  1  0.49053351  0.24858097  0.25849165  1
  Zn  Zn84  1  0.62251242  0.87502324  0.24931461  1
  Zn  Zn85  1  0.12636411  0.36607860  0.24696883  1
  Zn  Zn86  1  0.38733246  0.88042453  0.00472934  1
  Zn  Zn87  1  0.59680856  0.32761489  0.32371456  1
  Zn  Zn88  1  0.33546925  0.85272837  0.55485722  1
  Zn  Zn89  1  0.86531957  0.64020742  0.74074848  1
  Zn  Zn90  1  0.87072865  0.13171337  0.73733584  1
  Zn  Zn91  1  -0.00845402  0.36035268  0.36554992  1
  Zn  Zn92  1  0.25486692  0.49717441  0.23973156  1
  Zn  Zn93  1  0.14425568  0.09699227  0.50378889  1
  Zn  Zn94  1  0.18998968  0.18643185  0.18841335  1
  Zn  Zn95  1  0.17775441  0.18130362  0.68357333  1
  Zn  Zn96  1  0.15757132  0.64121299  0.20733441  1
  Zn  Zn97  1  0.30547757  0.70380846  0.67733918  1
  Zn  Zn98  1  0.69546605  0.18707192  0.18181359  1
  Zn  Zn99  1  0.68758406  0.18368178  0.68936093  1
  Zn  Zn100  1  0.68622657  0.68238051  0.19157642  1
  Zn  Zn101  1  0.67708328  0.68815369  0.69273686  1
  Zn  Zn102  1  0.30706597  0.31664302  0.30720290  1
  Zn  Zn103  1  0.31333145  0.31466209  0.81505501  1
  Zn  Zn104  1  0.27415248  0.85322201  0.36614680  1
  Zn  Zn105  1  0.31717912  0.81595095  0.80829026  1
  Zn  Zn106  1  0.78902425  0.32610917  0.31718963  1
  Zn  Zn107  1  0.81014378  0.31339737  0.81583432  1
  Zn  Zn108  1  0.81158937  0.81208821  0.31394300  1
  Zn  Zn109  1  0.80823544  0.82022773  0.81677912  1
  Zn  Zn110  1  0.19494685  0.42073927  0.43253129  1
  Zn  Zn111  1  0.18972123  0.44341251  0.92246513  1
  Zn  Zn112  1  0.14594882  0.87846601  0.51588964  1
  Zn  Zn113  1  0.18747175  0.94293263  0.93345253  1
  Zn  Zn114  1  0.69026286  0.43494320  0.44502754  1
  Zn  Zn115  1  0.68632970  0.43834575  0.93881464  1
  Zn  Zn116  1  0.68774192  0.93912910  0.43841913  1
  Zn  Zn117  1  0.55816177  0.94148752  0.93449013  1
  Zn  Zn118  1  0.31243422  0.06426134  0.06083647  1
  Zn  Zn119  1  0.32754351  0.04742976  0.57240198  1
  Zn  Zn120  1  0.31566871  0.56660429  0.06586030  1
  Zn  Zn121  1  0.31530380  0.55423520  0.57406544  1
  Zn  Zn122  1  0.81086993  0.06017174  0.05887492  1
  Zn  Zn123  1  0.81646123  0.06356601  0.56461493  1
  Zn  Zn124  1  0.80506897  0.57303400  0.06788459  1
  Zn  Zn125  1  0.81476255  0.56080390  0.57106749  1
  Zn  Zn126  1  0.44182093  0.43405727  0.19033274  1
  Zn  Zn127  1  0.43769323  0.42750861  0.67819179  1
  Zn  Zn128  1  0.44224713  0.93229242  0.19005159  1
  Zn  Zn129  1  0.43658867  0.94980487  0.69237335  1
  Zn  Zn130  1  0.94496407  0.43896160  0.17673368  1
  Zn  Zn131  1  0.94020242  0.42920935  0.69142445  1
  Zn  Zn132  1  0.93348835  0.94461682  0.18213037  1
  Zn  Zn133  1  0.93030609  0.93552195  0.68488607  1
  Zn  Zn134  1  0.06614209  0.06328285  0.31827318  1
  Zn  Zn135  1  0.06278320  0.06734723  0.81267597  1
  Zn  Zn136  1  0.03827237  0.51886808  0.28827134  1
  Zn  Zn137  1  0.05425123  0.56534286  0.81322707  1
  Zn  Zn138  1  0.56264704  0.07063059  0.30738026  1
  Zn  Zn139  1  0.56231624  0.06586529  0.80532523  1
  Zn  Zn140  1  0.55558537  0.56341667  0.31862177  1
  Zn  Zn141  1  0.57712574  0.56425719  0.82256249  1
  Zn  Zn142  1  0.44981797  0.19315575  0.43176961  1
  Zn  Zn143  1  0.44160359  0.19338712  0.94048098  1
  Zn  Zn144  1  0.43277326  0.68713634  0.45255363  1
  Zn  Zn145  1  0.43487890  0.68686461  0.93442006  1
  Zn  Zn146  1  0.93405678  0.17941297  0.43765073  1
  Zn  Zn147  1  0.94359240  0.19057470  0.93584242  1
  Zn  Zn148  1  0.93322377  0.67907732  0.45171671  1
  Zn  Zn149  1  0.92975562  0.69173306  0.92261507  1
  Zn  Zn150  1  0.05790005  0.31446499  0.05887074  1
  Zn  Zn151  1  0.06741241  0.31045903  0.55788631  1
  Zn  Zn152  1  0.05704344  0.80533046  0.05934992  1
  Zn  Zn153  1  0.13784361  0.73390156  0.62100737  1
  Zn  Zn154  1  0.57909691  0.31822083  0.14583550  1
  Zn  Zn155  1  0.56210191  0.31589855  0.56462279  1
  Zn  Zn156  1  0.56346427  0.81083884  0.06473085  1
  Zn  Zn157  1  0.56330563  0.82113687  0.56162494  1
  O  O158  1  0.12044155  0.11920821  0.11977174  1
  O  O159  1  0.11298682  0.13016160  0.60922979  1
  O  O160  1  0.10841593  0.61992161  0.09789806  1
  O  O161  1  0.10136907  0.62499623  0.63281095  1
  O  O162  1  0.62090757  0.11779158  0.11408207  1
  O  O163  1  0.62582232  0.12363964  0.61123131  1
  O  O164  1  0.61366657  0.61742312  0.12880705  1
  O  O165  1  0.63225871  0.60916286  0.62103773  1
  O  O166  1  0.37728029  0.37844082  0.38751634  1
  O  O167  1  0.37863834  0.37441501  0.88822575  1
  O  O168  1  0.38848328  0.89089559  0.36818380  1
  O  O169  1  0.37093606  0.89207385  0.87599174  1
  O  O170  1  0.87170129  0.38205813  0.38858360  1
  O  O171  1  0.88508708  0.37442171  0.87283131  1
  O  O172  1  0.86313540  0.88284453  0.38664330  1
  O  O173  1  0.88514322  0.88577803  0.88093085  1
  O  O174  1  0.27293673  -0.00466253  0.35498387  1
  O  O175  1  0.25519573  0.01385407  0.87113646  1
  O  O176  1  0.26997609  0.49710798  0.38734694  1
  O  O177  1  0.25973989  0.49753723  0.84451590  1
  O  O178  1  0.75533337  0.00483167  0.36472452  1
  O  O179  1  0.75914892  -0.00480654  0.85882970  1
  O  O180  1  0.75536102  0.51477718  0.37947146  1
  O  O181  1  0.73735848  0.51132115  0.86545687  1
  O  O182  1  0.23117773  0.50304461  0.11310464  1
  O  O183  1  0.27124239  0.49416735  0.66315518  1
  O  O184  1  0.24078623  1.00043648  0.13076843  1
  O  O185  1  0.24086323  1.02244508  0.64771084  1
  O  O186  1  0.73660727  0.51719069  0.14772874  1
  O  O187  1  0.74157233  0.49136557  0.63363865  1
  O  O188  1  0.74254339  0.99280897  0.13034535  1
  O  O189  1  0.74469112  0.99478434  0.63084553  1
  O  O190  1  0.01482628  0.40435313  0.26163379  1
  O  O191  1  0.00897679  0.36617287  0.76020052  1
  O  O192  1  -0.01369330  0.85460585  0.24581595  1
  O  O193  1  0.00768807  0.87351780  0.75411586  1
  O  O194  1  0.51610247  0.36447068  0.23556777  1
  O  O195  1  0.51496330  0.36033916  0.73830560  1
  O  O196  1  0.50459077  0.85979734  0.25904409  1
  O  O197  1  0.49242469  0.86853324  0.74875309  1
  O  O198  1  0.49071501  0.12579898  0.23419458  1
  O  O199  1  0.51060088  0.14071098  0.73508646  1
  O  O200  1  0.50295325  0.63651949  0.24454327  1
  O  O201  1  0.51401194  0.63515747  0.74968064  1
  O  O202  1  0.98980212  0.11549760  0.24072751  1
  O  O203  1  1.00406828  0.14250376  0.74986940  1
  O  O204  1  0.98485301  0.62022869  0.25537827  1
  O  O205  1  0.99585230  0.64095557  0.74623002  1
  O  O206  1  0.37889039  0.26494553  0.00805558  1
  O  O207  1  0.37249433  0.25252115  0.50179828  1
  O  O208  1  0.36548461  0.75237550  0.00438970  1
  O  O209  1  0.35809815  0.75080169  0.50595577  1
  O  O210  1  0.86623477  0.23579786  0.00772314  1
  O  O211  1  0.88223270  0.26504485  0.49662598  1
  O  O212  1  0.86501527  0.76618337  -0.01197806  1
  O  O213  1  0.86453955  0.76111204  0.49251645  1
  O  O214  1  0.14437257  0.25189432  0.49353664  1
  O  O215  1  0.11936131  0.24011378  0.99234598  1
  O  O216  1  0.14429097  0.75882866  0.50458294  1
  O  O217  1  0.13314342  0.74651114  0.98834252  1
  O  O218  1  0.63142092  0.24060711  0.50370617  1
  O  O219  1  0.63304859  0.23802328  0.98891568  1
  O  O220  1  0.63039182  0.74997527  0.49285927  1
  O  O221  1  0.63430957  0.75548718  0.98788468  1
  O  O222  1  0.48894104  0.23882605  0.12337406  1
  O  O223  1  0.49690152  0.24341853  0.63031301  1
  O  O224  1  0.49655712  0.74300843  0.13387175  1
  O  O225  1  0.50705330  0.75732171  0.63705082  1
  O  O226  1  0.99494746  0.23452189  0.11957946  1
  O  O227  1  1.00114580  0.25919562  0.64059253  1
  O  O228  1  1.00059651  0.72675872  0.11866557  1
  O  O229  1  1.00705260  0.74862493  0.63724004  1
  O  O230  1  0.01161092  0.24522123  0.38250997  1
  O  O231  1  0.00900288  0.25795734  0.86780356  1
  O  O232  1  0.02990434  0.72304529  0.38764922  1
  O  O233  1  0.00838996  0.76080948  0.86585237  1
  O  O234  1  0.51744210  0.25555334  0.36924986  1
  O  O235  1  0.51113749  0.24419768  0.86285567  1
  O  O236  1  0.50243533  0.75712423  0.37391052  1
  O  O237  1  0.51324521  0.74875419  0.87261922  1
  O  O238  1  0.25836221  0.13480385  0.50523315  1
  O  O239  1  0.23737225  0.12088887  0.98849343  1
  O  O240  1  0.25198375  0.62937480  0.51249788  1
  O  O241  1  0.24540029  0.64050925  1.00026066  1
  O  O242  1  0.74447083  0.12035514  0.48693095  1
  O  O243  1  0.73946406  0.13413345  1.00704552  1
  O  O244  1  0.75376592  0.63545129  0.49402655  1
  O  O245  1  0.76052107  0.64152838  0.99101092  1
  O  O246  1  0.26385495  0.38480257  -0.00630966  1
  O  O247  1  0.26835069  0.35739502  0.50113145  1
  O  O248  1  0.25153434  0.86722762  -0.00543300  1
  O  O249  1  0.25140017  0.86948463  0.47623380  1
  O  O250  1  0.74181686  0.35430093  -0.00262107  1
  O  O251  1  0.76077217  0.37536293  0.51565497  1
  O  O252  1  0.75698104  0.86634714  0.01042415  1
  O  O253  1  0.75325593  0.86703466  0.50652398  1
  O  O254  1  0.12907648  0.52519723  0.22142436  1
  O  O255  1  0.12526792  0.48991450  0.75221790  1
  O  O256  1  0.13605868  1.00948946  0.24059231  1
  O  O257  1  0.13090090  0.98930998  0.76041726  1
  O  O258  1  0.62830894  0.50518288  0.24811342  1
  O  O259  1  0.62974711  0.49032089  0.74430246  1
  O  O260  1  0.63572691  1.00215193  0.24122568  1
  O  O261  1  0.63953764  1.00563714  0.74146644  1
  O  O262  1  0.37080247  0.00871917  0.24209937  1
  O  O263  1  0.35604972  0.00390830  0.76519835  1
  O  O264  1  0.37972996  0.48949301  0.27010725  1
  O  O265  1  0.41586348  0.50381384  0.75898420  1
  O  O266  1  0.86516317  0.00693671  0.25301219  1
  O  O267  1  0.86886762  0.00158854  0.75649609  1
  O  O268  1  0.86719849  0.51053272  0.27027168  1
  O  O269  1  0.85956172  0.49604618  0.74473517  1
  O  O270  1  0.11999946  0.35241481  0.37912517  1
  O  O271  1  0.11931627  0.36648954  0.86968803  1
  O  O272  1  0.03759165  0.87034871  0.29787555  1
  O  O273  1  0.11416565  0.87022546  0.87272832  1
  O  O274  1  0.68823495  0.38752509  0.34433317  1
  O  O275  1  0.62941890  0.36513341  0.86285522  1
  O  O276  1  0.61665040  0.86873367  0.37429478  1
  O  O277  1  0.62304651  0.86680527  0.87277714  1
  O  O278  1  0.38207245  0.13385727  0.12280747  1
  O  O279  1  0.39202303  0.13789074  0.61667936  1
  O  O280  1  0.38462589  0.64132458  0.12167514  1
  O  O281  1  0.37825874  0.61768875  0.65419680  1
  O  O282  1  0.88215201  0.12672546  0.13042755  1
  O  O283  1  0.88750823  0.12243525  0.62479497  1
  O  O284  1  0.88319545  0.61704050  0.14049984  1
  O  O285  1  0.89066890  0.62502444  0.62928340  1
  O  O286  1  0.26347027  0.24522177  0.12130814  1
  O  O287  1  0.26675409  0.23898407  0.62259601  1
  O  O288  1  0.25468996  0.76224541  0.11835955  1
  O  O289  1  0.24909440  0.76860188  0.61018893  1
  O  O290  1  0.76162568  0.26055518  0.11399943  1
  O  O291  1  0.74998541  0.26422057  0.63456838  1
  O  O292  1  0.73920105  0.75873968  0.11835702  1
  O  O293  1  0.73802653  0.75798788  0.61645244  1
  O  O294  1  0.24912489  0.24440090  0.38497795  1
  O  O295  1  0.23999132  0.23803609  0.86937499  1
  O  O296  1  0.25597851  0.73681758  0.38227201  1
  O  O297  1  0.23836871  0.75868997  0.87670450  1
  O  O298  1  0.75473782  0.22929336  0.36832803  1
  O  O299  1  0.73901440  0.24770067  0.87857196  1
  O  O300  1  0.73968306  0.74693319  0.38488801  1
  O  O301  1  0.73892805  0.75220034  0.87859615  1
  O  O302  1  0.00928112  0.11818844  0.00896846  1
  O  O303  1  -0.00576176  0.10113573  0.49540603  1
  O  O304  1  -0.01880810  0.62356239  -0.00056923  1
  O  O305  1  -0.00175044  0.60764689  0.51381593  1
  O  O306  1  0.51198215  0.12789058  0.00670889  1
  O  O307  1  0.51827119  0.13045475  0.50609763  1
  O  O308  1  0.49325689  0.61685761  0.01223488  1
  O  O309  1  0.49684389  0.60422271  0.50398874  1
  O  O310  1  0.48993562  0.38136561  0.50267051  1
  O  O311  1  0.49221429  0.39129732  1.00743017  1
  O  O312  1  0.49987195  0.87449204  0.48226750  1
  O  O313  1  0.49999825  0.87863763  1.00494333  1
  O  O314  1  0.98724121  0.38494273  0.50583993  1
  O  O315  1  0.99844127  0.37343369  0.98424063  1
  O  O316  1  0.98153857  0.87794149  0.49522424  1
  O  O317  1  0.99320195  0.87826658  0.99306098  1
  O  O318  1  0.49442636  0.49468208  0.39053052  1
  O  O319  1  0.50799205  0.50611738  0.89500758  1
  O  O320  1  0.49587479  0.98864961  0.36044817  1
  O  O321  1  0.48456362  1.00745442  0.86687328  1
  O  O322  1  0.99055488  0.50297619  0.39392041  1
  O  O323  1  0.99825158  0.48698198  0.86948202  1
  O  O324  1  0.98294342  1.00125890  0.37497616  1
  O  O325  1  0.99617469  0.99281261  0.87893672  1
  O  O326  1  0.01074346  0.00664236  0.12169604  1
  O  O327  1  -0.00358584  -0.00969570  0.60726869  1
  O  O328  1  0.00942628  0.51682609  0.12064514  1
  O  O329  1  -0.00117520  0.50194840  0.61821986  1
  O  O330  1  0.51412619  0.00854352  0.13207739  1
  O  O331  1  0.51760964  0.01752780  0.63880514  1
  O  O332  1  0.50524498  0.50851358  0.12132791  1
  O  O333  1  0.51319052  0.48879406  0.61360638  1
  O  O334  1  0.23709625  0.38751152  0.25715619  1
  O  O335  1  0.23110253  0.36450094  0.75292036  1
  O  O336  1  0.24351874  0.87901683  0.25276199  1
  O  O337  1  0.23768872  0.88890450  0.75359471  1
  O  O338  1  0.77655036  0.39628114  0.22281461  1
  O  O339  1  0.74372967  0.38076153  0.74259270  1
  O  O340  1  0.75071828  0.88242488  0.24199045  1
  O  O341  1  0.75841182  0.88808771  0.73682864  1
  O  O342  1  0.26472581  0.11566904  0.24272544  1
  O  O343  1  0.23505866  0.11718195  0.76795749  1
  O  O344  1  0.26202565  0.61055846  0.23313802  1
  O  O345  1  0.23275896  0.62845174  0.74327535  1
  O  O346  1  0.75606298  0.11455157  0.25549974  1
  O  O347  1  0.75471503  0.11003657  0.74466962  1
  O  O348  1  0.75381509  0.61724683  0.26636024  1
  O  O349  1  0.74681018  0.61666091  0.75210332  1
  O  O350  1  0.39289161  0.11712883  0.35479602  1
  O  O351  1  0.36033586  0.12653448  0.88216067  1
  O  O352  1  0.38383118  0.60903440  0.37877380  1
  O  O353  1  0.38279035  0.62190853  0.85310581  1
  O  O354  1  0.86357002  0.11490108  0.36835181  1
  O  O355  1  0.88458284  0.11182221  0.87326694  1
  O  O356  1  0.86762832  0.62120977  0.37406627  1
  O  O357  1  0.85483501  0.63775732  0.85864837  1
  O  O358  1  0.11292239  0.39228719  0.12191884  1
  O  O359  1  0.12205160  0.37161079  0.63886364  1
  O  O360  1  0.12568904  0.87868370  0.12536833  1
  O  O361  1  0.12332457  0.87942816  0.63694828  1
  O  O362  1  0.65370371  0.39951225  0.11830030  1
  O  O363  1  0.63825273  0.38006175  0.63167775  1
  O  O364  1  0.63490203  0.88361445  0.12769920  1
  O  O365  1  0.63613979  0.88868266  0.61827837  1
  O  O366  1  0.13045808  0.24331414  0.26707144  1
  O  O367  1  0.11573861  0.25830084  0.75705554  1
  O  O368  1  0.13896657  0.75265920  0.23039246  1
  O  O369  1  0.11597108  0.76939784  0.75421469  1
  O  O370  1  0.62078957  0.25040918  0.23247779  1
  O  O371  1  0.62284232  0.25469176  0.75694942  1
  O  O372  1  0.61937300  0.74902341  0.26494258  1
  O  O373  1  0.61295672  0.75679466  0.75902192  1
  O  O374  1  0.37090657  0.24346508  0.23600333  1
  O  O375  1  0.38351245  0.25711664  0.73857784  1
  O  O376  1  0.38310750  0.74868283  0.24429239  1
  O  O377  1  0.39139335  0.74433266  0.75301866  1
  O  O378  1  0.86548930  0.23448717  0.24014374  1
  O  O379  1  0.88903952  0.24993919  0.75776073  1
  O  O380  1  0.86816372  0.73099553  0.25911297  1
  O  O381  1  0.89084990  0.76449013  0.75069089  1
  O  O382  1  0.38316401  0.48600388  0.50073496  1
  O  O383  1  0.38286438  0.49248385  1.00005927  1
  O  O384  1  0.37985148  1.02039080  0.47220545  1
  O  O385  1  0.36838923  1.00047996  0.98413161  1
  O  O386  1  0.87557848  0.49280987  0.49412032  1
  O  O387  1  0.82558521  0.46213342  1.04749331  1
  O  O388  1  0.87746427  0.98803681  0.49067119  1
  O  O389  1  0.87919703  0.99214318  0.99225309  1
  O  O390  1  0.12122456  0.00710964  0.00925365  1
  O  O391  1  0.10383929  -0.01668524  0.48587552  1
  O  O392  1  0.13062311  0.51122276  -0.00248502  1
  O  O393  1  0.11304070  0.48475374  0.49420338  1
  O  O394  1  0.62733890  0.00851287  0.00564798  1
  O  O395  1  0.63202295  0.01083155  0.51115346  1
  O  O396  1  0.61516417  0.49954617  0.01141189  1
  O  O397  1  0.61507618  0.49494136  0.50588457  1
  O  O398  1  0.37426586  0.36496995  0.11790379  1
  O  O399  1  0.38028412  0.35433820  0.61238762  1
  O  O400  1  0.38136472  0.85924955  0.12468874  1
  O  O401  1  0.36839510  0.94087532  0.60682120  1
  O  O402  1  0.88631504  0.35379749  0.12838094  1
  O  O403  1  0.86474074  0.37786395  0.61716812  1
  O  O404  1  0.86488692  0.88205207  0.11433662  1
  O  O405  1  0.86177591  0.87945355  0.60747221  1
  O  O406  1  0.12372920  0.13403451  0.38884656  1
  O  O407  1  0.12777587  0.13407815  0.88454997  1
  O  O408  1  0.08329994  0.67266017  0.37493509  1
  O  O409  1  0.11491282  0.63811560  0.88194045  1
  O  O410  1  0.63569405  0.11845338  0.38515712  1
  O  O411  1  0.62175330  0.13077732  0.88214910  1
  O  O412  1  0.63048146  0.63440533  0.38317378  1
  O  O413  1  0.64154929  0.64380420  0.87211762  1
