# generated using pymatgen
data_V79Zn79O256
_symmetry_space_group_name_H-M   'P 1'
_cell_length_a   16.87113350
_cell_length_b   16.88044246
_cell_length_c   16.87057440
_cell_angle_alpha   90.20272876
_cell_angle_beta   90.03715253
_cell_angle_gamma   90.00946014
_symmetry_Int_Tables_number   1
_chemical_formula_structural   V79Zn79O256
_chemical_formula_sum   'V79 Zn79 O256'
_cell_volume   4804.57681795
_cell_formula_units_Z   1
loop_
 _symmetry_equiv_pos_site_id
 _symmetry_equiv_pos_as_xyz
  1  'x, y, z'
loop_
 _atom_site_type_symbol
 _atom_site_label
 _atom_site_symmetry_multiplicity
 _atom_site_fract_x
 _atom_site_fract_y
 _atom_site_fract_z
 _atom_site_occupancy
  V  V0  1  0.12146656  0.87624419  0.76224397  1
  V  V1  1  0.49807268  0.76014674  0.74426876  1
  V  V2  1  0.12208936  0.50327816  0.61613380  1
  V  V3  1  0.36738374  0.37424399  0.00008865  1
  V  V4  1  0.37614047  0.74594905  0.10347744  1
  V  V5  1  0.51589195  0.61571957  0.62679548  1
  V  V6  1  0.36347118  0.24763392  0.11984246  1
  V  V7  1  0.62259748  0.62972524  0.00442075  1
  V  V8  1  0.62429047  0.76349809  0.87540058  1
  V  V9  1  0.62993678  0.50287279  0.12262407  1
  V  V10  1  0.75847758  0.25097612  0.00327231  1
  V  V11  1  -0.00746571  0.37735551  0.89311431  1
  V  V12  1  0.62697226  0.12163721  0.50134091  1
  V  V13  1  0.75129564  0.62820120  0.87765927  1
  V  V14  1  0.74388620  0.12189687  0.87630462  1
  V  V15  1  0.75282006  0.11840668  0.37015810  1
  V  V16  1  0.61416030  0.38912458  0.26264969  1
  V  V17  1  0.12296979  0.64697857  -0.00402002  1
  V  V18  1  0.76448873  0.37555455  0.12085212  1
  V  V19  1  0.11614782  0.24987781  0.86735949  1
  V  V20  1  0.37778247  0.25037549  0.62365520  1
  V  V21  1  0.87926627  0.62825070  0.75019733  1
  V  V22  1  0.50057029  -0.00369408  0.49150296  1
  V  V23  1  0.37683328  0.86688552  0.49913748  1
  V  V24  1  0.88194100  0.24950603  0.63410143  1
  V  V25  1  0.62354423  0.61827867  0.48488172  1
  V  V26  1  0.75160275  0.75691944  0.01387218  1
  V  V27  1  0.62961046  0.85666865  0.27463526  1
  V  V28  1  0.13019009  0.38529450  0.25097952  1
  V  V29  1  0.62525033  0.37980627  0.75062710  1
  V  V30  1  0.74707003  0.50521530  0.74658171  1
  V  V31  1  0.50180965  0.12334773  0.62698113  1
  V  V32  1  0.12843058  0.24250459  0.37044540  1
  V  V33  1  0.87720400  -0.00972011  0.86852084  1
  V  V34  1  0.12511840  0.50137278  0.10604055  1
  V  V35  1  0.25252737  0.24492300  0.49221365  1
  V  V36  1  0.87980754  0.50085732  0.88572508  1
  V  V37  1  0.76188875  0.50286468  0.26727766  1
  V  V38  1  0.00720923  0.75286767  0.76803563  1
  V  V39  1  0.62261956  0.25049850  0.37489207  1
  V  V40  1  0.37042600  -0.00083030  0.88657515  1
  V  V41  1  0.50085813  0.37776538  0.87710649  1
  V  V42  1  0.88003017  0.62788589  0.25819753  1
  V  V43  1  0.37379083  0.12617715  0.75120713  1
  V  V44  1  0.50117399  -0.00583031  0.00340256  1
  V  V45  1  0.35933621  0.00514905  0.37112340  1
  V  V46  1  0.50005673  0.24829921  0.24950540  1
  V  V47  1  0.11682540  0.74468570  0.38012932  1
  V  V48  1  0.37423570  0.60516582  0.26279691  1
  V  V49  1  0.25135007  0.37404757  0.62265554  1
  V  V50  1  0.39311000  0.38331709  0.48627767  1
  V  V51  1  -0.00039000  0.00166949  0.01253043  1
  V  V52  1  0.13089529  0.88475476  0.24878441  1
  V  V53  1  0.24556821  0.73851245  0.50063878  1
  V  V54  1  0.24425608  0.00340893  0.74403961  1
  V  V55  1  0.11420121  0.13007689  0.00774227  1
  V  V56  1  0.24292607  0.87560540  0.62130858  1
  V  V57  1  0.63163239  -0.01065021  0.63571010  1
  V  V58  1  0.87833791  0.12610737  0.75442619  1
  V  V59  1  0.49933756  0.50499833  0.00571344  1
  V  V60  1  -0.00491927  0.24537434  0.23713069  1
  V  V61  1  -0.01208800  0.37488649  0.37994517  1
  V  V62  1  0.00293199  0.75270593  0.23881802  1
  V  V63  1  0.75734186  0.25096499  0.50207283  1
  V  V64  1  0.24728222  0.63967380  0.87962227  1
  V  V65  1  0.24480819  0.13323515  0.88157104  1
  V  V66  1  0.50135149  0.25152855  0.75189328  1
  V  V67  1  0.87376920  0.87375623  0.02044844  1
  V  V68  1  0.37354424  0.62941049  0.74056232  1
  V  V69  1  0.74497584  0.74910673  0.48573722  1
  V  V70  1  0.63799778  -0.01011774  0.13108702  1
  V  V71  1  0.51231510  0.13044847  0.11299231  1
  V  V72  1  0.00945291  0.63036430  0.61633664  1
  V  V73  1  0.88457841  -0.00393664  0.38061316  1
  V  V74  1  0.12229067  0.11957982  0.50429434  1
  V  V75  1  0.74816057  0.37508732  0.62512558  1
  V  V76  1  0.24973528  0.49957274  0.75101657  1
  V  V77  1  0.10438076  0.37452698  0.74471538  1
  V  V78  1  0.87459815  0.12405265  0.23812612  1
  Zn  Zn79  1  0.37225536  0.50211520  0.87847711  1
  Zn  Zn80  1  0.87540284  0.75302564  0.62195457  1
  Zn  Zn81  1  0.01251394  -0.01741705  0.50912763  1
  Zn  Zn82  1  0.00936596  0.12074920  0.63606885  1
  Zn  Zn83  1  0.75154813  -0.13066486  0.63239176  1
  Zn  Zn84  1  0.88037277  0.86967516  0.50269800  1
  Zn  Zn85  1  -0.01008584  0.61982094  0.11272358  1
  Zn  Zn86  1  0.25217951  0.38243966  0.12634538  1
  Zn  Zn87  1  0.49173928  0.87552561  0.87728933  1
  Zn  Zn88  1  0.62186236  0.24453031  0.88574301  1
  Zn  Zn89  1  -0.02157566  0.50491177  0.48275678  1
  Zn  Zn90  1  0.24734796  0.60140358  0.37269346  1
  Zn  Zn91  1  0.25802077  0.86639738  0.13691781  1
  Zn  Zn92  1  0.36331201  0.11742151  0.25058516  1
  Zn  Zn93  1  0.51198478  0.73723557  0.23641605  1
  Zn  Zn94  1  0.18811919  0.17691000  0.19457463  1
  Zn  Zn95  1  0.18790680  0.19144356  0.68751335  1
  Zn  Zn96  1  0.19633389  0.68618245  0.18645315  1
  Zn  Zn97  1  0.18816772  0.69248464  0.68755617  1
  Zn  Zn98  1  0.68847209  0.19081829  0.18644365  1
  Zn  Zn99  1  0.68835929  0.18638013  0.69278608  1
  Zn  Zn100  1  0.69376769  0.68649242  0.19755151  1
  Zn  Zn101  1  0.69223877  0.71318667  0.69180399  1
  Zn  Zn102  1  0.31551138  0.31886959  0.31000534  1
  Zn  Zn103  1  0.31039357  0.31291491  0.81358058  1
  Zn  Zn104  1  0.30675460  0.81484163  0.32059087  1
  Zn  Zn105  1  0.31292312  0.81676921  0.81111458  1
  Zn  Zn106  1  0.80714709  0.30978188  0.30839153  1
  Zn  Zn107  1  0.81346263  0.31261113  0.81521389  1
  Zn  Zn108  1  0.81099207  0.81495861  0.30424221  1
  Zn  Zn109  1  0.80865425  0.81288903  0.81082782  1
  Zn  Zn110  1  0.18132208  0.43244742  0.43949734  1
  Zn  Zn111  1  0.18418178  0.43722170  0.93089053  1
  Zn  Zn112  1  0.18545262  0.93137015  0.42946748  1
  Zn  Zn113  1  0.18257298  0.94583167  0.93528801  1
  Zn  Zn114  1  0.68320607  0.43951856  0.44535426  1
  Zn  Zn115  1  0.69236816  0.43797721  0.93755421  1
  Zn  Zn116  1  0.69471645  0.93477185  0.44035780  1
  Zn  Zn117  1  0.68842298  0.94209851  0.94798914  1
  Zn  Zn118  1  0.29859104  0.06915787  0.08327174  1
  Zn  Zn119  1  0.31260291  0.06188575  0.55988979  1
  Zn  Zn120  1  0.31037258  0.56916933  0.07212094  1
  Zn  Zn121  1  0.31873513  0.55881080  0.56206735  1
  Zn  Zn122  1  0.81184749  0.06453954  0.05544947  1
  Zn  Zn123  1  0.81545490  0.06004729  0.56707556  1
  Zn  Zn124  1  0.81245452  0.57007833  0.06878103  1
  Zn  Zn125  1  0.80669845  0.56807767  0.55100167  1
  Zn  Zn126  1  0.43935880  0.43649792  0.18484814  1
  Zn  Zn127  1  0.43709600  0.43991190  0.68324822  1
  Zn  Zn128  1  0.44547513  0.92523636  0.19442696  1
  Zn  Zn129  1  0.43278049  0.94053466  0.68232222  1
  Zn  Zn130  1  0.94607315  0.44018069  0.18962677  1
  Zn  Zn131  1  0.91413298  0.45996880  0.65150813  1
  Zn  Zn132  1  0.94191397  0.94172745  0.19624803  1
  Zn  Zn133  1  0.93789730  0.93813152  0.68253239  1
  Zn  Zn134  1  0.05880270  0.06501075  0.31550386  1
  Zn  Zn135  1  0.05689832  0.05769803  0.81696257  1
  Zn  Zn136  1  0.06177676  0.56485916  0.31501978  1
  Zn  Zn137  1  0.06425509  0.56017539  0.81378296  1
  Zn  Zn138  1  0.56002117  0.06137494  0.30388813  1
  Zn  Zn139  1  0.56050551  0.05867180  0.81472726  1
  Zn  Zn140  1  0.55895260  0.56250813  0.30287728  1
  Zn  Zn141  1  0.56229543  0.56799799  0.81528195  1
  Zn  Zn142  1  0.43651553  0.18584027  0.43536234  1
  Zn  Zn143  1  0.43608396  0.18697113  0.93918676  1
  Zn  Zn144  1  0.43598345  0.67511190  0.43547378  1
  Zn  Zn145  1  0.43673925  0.68645783  0.92977141  1
  Zn  Zn146  1  0.93952620  0.18845332  0.43338808  1
  Zn  Zn147  1  0.93445104  0.19061451  0.93784382  1
  Zn  Zn148  1  0.93300868  0.69046112  0.43327109  1
  Zn  Zn149  1  0.93656836  0.69299494  0.94048486  1
  Zn  Zn150  1  0.06449338  0.31150708  0.06237688  1
  Zn  Zn151  1  0.06293813  0.30979338  0.55895693  1
  Zn  Zn152  1  0.06194739  0.82135033  0.06464713  1
  Zn  Zn153  1  0.06229399  0.81516285  0.56646128  1
  Zn  Zn154  1  0.57171107  0.31725916  0.06469468  1
  Zn  Zn155  1  0.56670257  0.31292787  0.56390009  1
  Zn  Zn156  1  0.55581315  0.81359782  0.06939157  1
  Zn  Zn157  1  0.56334363  0.80590293  0.55699676  1
  O  O158  1  0.12111615  0.13527484  0.10544403  1
  O  O159  1  0.12511976  0.13430228  0.61040631  1
  O  O160  1  0.13197810  0.61779216  0.10689987  1
  O  O161  1  0.11778855  0.61959522  0.62865815  1
  O  O162  1  0.61482874  0.11615082  0.13227933  1
  O  O163  1  0.62270426  0.11827242  0.61867524  1
  O  O164  1  0.63537398  0.61686509  0.11307875  1
  O  O165  1  0.61621563  0.62969433  0.63262533  1
  O  O166  1  0.38051286  0.36896884  0.38677532  1
  O  O167  1  0.38417087  0.37731174  0.88061949  1
  O  O168  1  0.36653232  0.88879673  0.39446520  1
  O  O169  1  0.37034535  0.89425255  0.87354718  1
  O  O170  1  0.88856346  0.36621512  0.36794204  1
  O  O171  1  0.88652329  0.38369940  0.87105401  1
  O  O172  1  0.86853764  0.89588254  0.36579832  1
  O  O173  1  0.86637530  0.88854750  0.87525133  1
  O  O174  1  0.25983103  0.00241339  0.37429210  1
  O  O175  1  0.25309005  0.01329578  0.86433402  1
  O  O176  1  0.24119545  0.49059805  0.37121468  1
  O  O177  1  0.24863481  0.50444411  0.86131116  1
  O  O178  1  0.75499617  0.01451109  0.37763605  1
  O  O179  1  0.76084109  0.01520615  0.88944464  1
  O  O180  1  0.74984417  0.49338648  0.36511246  1
  O  O181  1  0.75893329  0.50624267  0.86709161  1
  O  O182  1  0.23220850  0.49882345  0.12176925  1
  O  O183  1  0.24212383  0.49418477  0.63009025  1
  O  O184  1  0.24583524  0.96606903  0.07807402  1
  O  O185  1  0.25266236  0.99734337  0.63780719  1
  O  O186  1  0.74578536  0.48832429  0.12057065  1
  O  O187  1  0.75590040  0.49111765  0.63983685  1
  O  O188  1  0.73513810  1.00918446  0.11823581  1
  O  O189  1  0.73495575  0.99830771  0.62385040  1
  O  O190  1  0.01023359  0.36289511  0.25548015  1
  O  O191  1  0.00644132  0.38102561  0.73977322  1
  O  O192  1  0.00609525  0.85873231  0.24706513  1
  O  O193  1  0.01248873  0.86592386  0.74648376  1
  O  O194  1  0.50505816  0.35222339  0.22837989  1
  O  O195  1  0.50535954  0.37448775  0.75710682  1
  O  O196  1  0.52893591  0.86210036  0.23662821  1
  O  O197  1  0.48971486  0.86358816  0.75046775  1
  O  O198  1  0.49333801  0.13383543  0.23573231  1
  O  O199  1  0.49412259  0.13107837  0.74829416  1
  O  O200  1  0.48228013  0.62236669  0.24892311  1
  O  O201  1  0.49161438  0.63017694  0.74523487  1
  O  O202  1  0.99077866  0.13713977  0.25211929  1
  O  O203  1  0.98494917  0.12410266  0.75391326  1
  O  O204  1  0.99555001  0.63243901  0.24585128  1
  O  O205  1  1.00048719  0.63826626  0.75256266  1
  O  O206  1  0.38232606  0.26162376  0.01036247  1
  O  O207  1  0.37024269  0.25650705  0.50362119  1
  O  O208  1  0.37478235  0.74671068  0.00273447  1
  O  O209  1  0.36393879  0.76166634  0.49490985  1
  O  O210  1  0.86024375  0.25316459  -0.00042179  1
  O  O211  1  0.86303795  0.23959400  0.51302370  1
  O  O212  1  0.86964745  0.76632559  -0.00114145  1
  O  O213  1  0.86370123  0.74727576  0.49943128  1
  O  O214  1  0.13428588  0.24459443  0.49048943  1
  O  O215  1  0.11407491  0.23893130  0.98448112  1
  O  O216  1  0.13394607  0.75200661  0.49115823  1
  O  O217  1  0.12855214  0.74550223  1.00294113  1
  O  O218  1  0.63139998  0.23855611  0.49578566  1
  O  O219  1  0.64298247  0.25952862  0.99809074  1
  O  O220  1  0.63522312  0.73924692  0.49911929  1
  O  O221  1  0.62847086  0.74596137  0.99607843  1
  O  O222  1  0.50470914  0.23946639  0.12615527  1
  O  O223  1  0.49810875  0.24373111  0.63189552  1
  O  O224  1  0.48611247  0.74261173  0.12160329  1
  O  O225  1  0.50431033  0.74401839  0.64162435  1
  O  O226  1  1.00044356  0.25433416  0.13818660  1
  O  O227  1  0.98378671  0.24684553  0.61923135  1
  O  O228  1  1.00602733  0.74346207  0.13627106  1
  O  O229  1  1.00368832  0.73713007  0.63465321  1
  O  O230  1  0.00897129  0.25728265  0.36592326  1
  O  O231  1  0.00188748  0.26672912  0.87452319  1
  O  O232  1  0.01308057  0.74386441  0.36851900  1
  O  O233  1  0.00299245  0.75465138  0.86667267  1
  O  O234  1  0.51147402  0.24001968  0.36347951  1
  O  O235  1  0.49999051  0.26111986  0.87172603  1
  O  O236  1  0.45396496  0.75065510  0.34586467  1
  O  O237  1  0.50561361  0.75644924  0.87024138  1
  O  O238  1  0.24250712  0.13799837  0.50508556  1
  O  O239  1  0.22971319  0.11707392  0.98784629  1
  O  O240  1  0.25734243  0.63693098  0.50346394  1
  O  O241  1  0.24304832  0.62204310  0.98469475  1
  O  O242  1  0.74170572  0.13112830  0.49493629  1
  O  O243  1  0.75282532  0.13982533  0.99025977  1
  O  O244  1  0.73479276  0.63093205  0.49339274  1
  O  O245  1  0.74364033  0.63464626  0.99627129  1
  O  O246  1  0.26397255  0.38124605  -0.00497288  1
  O  O247  1  0.25211883  0.36453161  0.51048476  1
  O  O248  1  0.26250115  0.91611022  0.00995151  1
  O  O249  1  0.25374206  0.86940878  0.50551215  1
  O  O250  1  0.75280153  0.37150062  0.01220638  1
  O  O251  1  0.73974384  0.36312093  0.51404542  1
  O  O252  1  0.76502370  0.87196858  0.00055366  1
  O  O253  1  0.75210618  0.86004357  0.50484958  1
  O  O254  1  0.12386383  0.48608531  0.24892474  1
  O  O255  1  0.13391925  0.49204494  0.74241680  1
  O  O256  1  0.11172499  0.98307860  0.25876543  1
  O  O257  1  0.13106504  0.98935566  0.75589736  1
  O  O258  1  0.64974786  0.51027454  0.23498675  1
  O  O259  1  0.63590415  0.49354628  0.76015743  1
  O  O260  1  0.61992959  0.99016375  0.23613798  1
  O  O261  1  0.61599840  0.99954166  0.73472885  1
  O  O262  1  0.38885885  -0.00803280  0.27109690  1
  O  O263  1  0.36632941  0.00834547  0.75826897  1
  O  O264  1  0.37111151  0.50655317  0.23762499  1
  O  O265  1  0.36330344  0.50771517  0.74855657  1
  O  O266  1  0.88473622  0.01762414  0.26234133  1
  O  O267  1  0.87403138  0.00566492  0.76389603  1
  O  O268  1  0.86672541  0.50274168  0.25047056  1
  O  O269  1  0.86760480  0.51170588  0.75645648  1
  O  O270  1  0.11769719  0.36240701  0.36171891  1
  O  O271  1  0.11024378  0.37115752  0.86648316  1
  O  O272  1  0.12771796  0.85642838  0.36264224  1
  O  O273  1  0.13136951  0.87421697  0.86198747  1
  O  O274  1  0.64461840  0.35336375  0.37521683  1
  O  O275  1  0.61549746  0.37754130  0.86840914  1
  O  O276  1  0.62318315  0.87622108  0.37351298  1
  O  O277  1  0.62311508  0.86665655  0.88457821  1
  O  O278  1  0.39021327  0.14294794  0.11319537  1
  O  O279  1  0.38108279  0.12996713  0.62994395  1
  O  O280  1  0.37056654  0.64133494  0.13764144  1
  O  O281  1  0.38346372  0.62396279  0.63576658  1
  O  O282  1  0.86975581  0.12032625  0.13929082  1
  O  O283  1  0.86599858  0.13730054  0.63776021  1
  O  O284  1  0.87940979  0.61948709  0.14351550  1
  O  O285  1  0.89156900  0.62588700  0.64085383  1
  O  O286  1  0.26285211  0.25082326  0.12217459  1
  O  O287  1  0.25673175  0.25794243  0.61849409  1
  O  O288  1  0.26587194  0.75137922  0.12396213  1
  O  O289  1  0.24437857  0.75890435  0.61087552  1
  O  O290  1  0.74638775  0.26465365  0.11784763  1
  O  O291  1  0.75354598  0.25478964  0.62067504  1
  O  O292  1  0.74494344  0.74698412  0.11264225  1
  O  O293  1  0.75854356  0.73827311  0.60360005  1
  O  O294  1  0.24295664  0.25617982  0.38206854  1
  O  O295  1  0.23642661  0.24274772  0.87041441  1
  O  O296  1  0.24159868  0.74729929  0.39182383  1
  O  O297  1  0.25053644  0.73829376  0.86906535  1
  O  O298  1  0.74679692  0.23885138  0.38401550  1
  O  O299  1  0.75008467  0.24408374  0.88535135  1
  O  O300  1  0.75724860  0.75051701  0.38560040  1
  O  O301  1  0.74223704  0.74590215  0.88837829  1
  O  O302  1  0.00327902  0.11690730  -0.00445955  1
  O  O303  1  0.01826375  0.13157701  0.49840596  1
  O  O304  1  0.01730172  0.63294446  -0.00347919  1
  O  O305  1  -0.00273317  0.62498647  0.51492639  1
  O  O306  1  0.50667113  0.12398395  0.00827051  1
  O  O307  1  0.50959149  0.11933575  0.50531739  1
  O  O308  1  0.51018049  0.61449206  -0.00941469  1
  O  O309  1  0.51024258  0.63816005  0.51777947  1
  O  O310  1  0.49287775  0.37079178  0.50252445  1
  O  O311  1  0.49545719  0.38434727  0.99395511  1
  O  O312  1  0.48350390  0.87906713  0.50830684  1
  O  O313  1  0.49344897  0.89217169  1.00212420  1
  O  O314  1  1.00221518  0.36941264  0.48256184  1
  O  O315  1  0.99877610  0.37739970  0.99163429  1
  O  O316  1  0.99604283  0.87104378  0.49745091  1
  O  O317  1  0.98734744  0.88713602  1.00363604  1
  O  O318  1  0.55362855  0.44930743  0.32025628  1
  O  O319  1  0.49775068  0.49302034  0.88393177  1
  O  O320  1  0.50163683  1.00488413  0.38980266  1
  O  O321  1  0.49194725  1.00164609  0.88725069  1
  O  O322  1  1.00536435  0.48169973  0.37258196  1
  O  O323  1  0.99486693  0.48600620  0.86934467  1
  O  O324  1  0.98743793  1.00727571  0.38698386  1
  O  O325  1  0.98126161  1.00169903  0.88514622  1
  O  O326  1  -0.00366628  0.00375284  0.11206121  1
  O  O327  1  -0.01326115  0.01251065  0.61586393  1
  O  O328  1  0.02037967  0.50511562  0.13175403  1
  O  O329  1  0.01237012  0.52054148  0.64104652  1
  O  O330  1  0.49706745  0.01316887  0.11554794  1
  O  O331  1  0.50665832  0.00519939  0.61432629  1
  O  O332  1  0.51566760  0.49418472  0.11447664  1
  O  O333  1  0.50436139  0.51568129  0.63203395  1
  O  O334  1  0.23224302  0.36332490  0.24468492  1
  O  O335  1  0.24751768  0.38166452  0.73919260  1
  O  O336  1  0.23702015  0.87578570  0.25458854  1
  O  O337  1  0.24146376  0.88164398  0.74360198  1
  O  O338  1  0.74197117  0.38660268  0.24344460  1
  O  O339  1  0.74307446  0.38294919  0.74861807  1
  O  O340  1  0.72843288  0.86819029  0.24732398  1
  O  O341  1  0.73006590  0.82171837  0.73414960  1
  O  O342  1  0.26556490  0.09759577  0.19488987  1
  O  O343  1  0.25191396  0.12118115  0.75632351  1
  O  O344  1  0.26998140  0.63583759  0.25821518  1
  O  O345  1  0.25249305  0.62040586  0.75541211  1
  O  O346  1  0.76430359  0.13793037  0.25834173  1
  O  O347  1  0.76019502  0.13168425  0.76766182  1
  O  O348  1  0.76627804  0.61349897  0.25125897  1
  O  O349  1  0.75903531  0.62369924  0.75643417  1
  O  O350  1  0.37525670  0.11243811  0.37160294  1
  O  O351  1  0.36355002  0.12418622  0.87151067  1
  O  O352  1  0.37428903  0.60273696  0.37037029  1
  O  O353  1  0.36147032  0.62057050  0.86531073  1
  O  O354  1  0.86868945  0.11930448  0.37072922  1
  O  O355  1  0.86678952  0.11900235  0.87142815  1
  O  O356  1  0.88853260  0.61430338  0.35901639  1
  O  O357  1  0.87375897  0.62239052  0.86793802  1
  O  O358  1  0.12488572  0.38405083  0.13156380  1
  O  O359  1  0.13197462  0.37837202  0.62908019  1
  O  O360  1  0.12931754  0.86822985  0.14402644  1
  O  O361  1  0.13676841  0.87625981  0.63457320  1
  O  O362  1  0.63220782  0.38827268  0.13926884  1
  O  O363  1  0.63426742  0.37032317  0.63993980  1
  O  O364  1  0.62972181  0.88985115  0.11258724  1
  O  O365  1  0.62182297  0.88849532  0.61593211  1
  O  O366  1  0.11612594  0.24696907  0.25265382  1
  O  O367  1  0.12444275  0.26039872  0.75717174  1
  O  O368  1  0.11585491  0.74974007  0.25709978  1
  O  O369  1  0.11715611  0.76134881  0.74986654  1
  O  O370  1  0.62032879  0.25952029  0.25744410  1
  O  O371  1  0.61970034  0.26120868  0.75704106  1
  O  O372  1  0.62669319  0.74722578  0.26344916  1
  O  O373  1  0.60381456  0.73849392  0.76625252  1
  O  O374  1  0.38090849  0.25049979  0.23428176  1
  O  O375  1  0.38018148  0.24669428  0.74488817  1
  O  O376  1  0.38834448  0.73804355  0.28974448  1
  O  O377  1  0.38700414  0.74118155  0.75894206  1
  O  O378  1  0.88675023  0.24066321  0.25316431  1
  O  O379  1  0.87231327  0.24340759  0.74144577  1
  O  O380  1  0.88977149  0.73952575  0.25774578  1
  O  O381  1  0.89221867  0.74358677  0.75393140  1
  O  O382  1  0.37549530  0.48170439  0.50354806  1
  O  O383  1  0.38432714  0.49513299  1.00502849  1
  O  O384  1  0.38135455  0.99720747  0.49150402  1
  O  O385  1  0.38706386  1.01928284  0.99216125  1
  O  O386  1  0.88464497  0.49055995  0.54110543  1
  O  O387  1  0.87199407  0.51333287  0.98450218  1
  O  O388  1  0.86845631  0.99871345  0.48626009  1
  O  O389  1  0.88081931  0.99118486  0.99500080  1
  O  O390  1  0.10540495  0.01306841  -0.01012204  1
  O  O391  1  0.13076149  0.01658419  0.49063104  1
  O  O392  1  0.12095199  0.49953435  0.00427151  1
  O  O393  1  0.11229748  0.49079220  0.51535829  1
  O  O394  1  0.60840060  0.00321061  0.00882143  1
  O  O395  1  0.62045792  0.00873770  0.50551530  1
  O  O396  1  0.62172571  0.50781707  0.00365996  1
  O  O397  1  0.62723525  0.51791593  0.50374179  1
  O  O398  1  0.37404037  0.36444187  0.11697950  1
  O  O399  1  0.36792278  0.36957502  0.61922683  1
  O  O400  1  0.37699183  0.85040883  0.14138341  1
  O  O401  1  0.35917885  0.88339380  0.61050328  1
  O  O402  1  0.86263094  0.37912405  0.13453094  1
  O  O403  1  0.86021137  0.35697912  0.63622094  1
  O  O404  1  0.87467092  0.88095818  0.11905910  1
  O  O405  1  0.86898321  0.87009930  0.62473168  1
  O  O406  1  0.12475442  0.13636215  0.38190710  1
  O  O407  1  0.12593049  0.13419129  0.87394497  1
  O  O408  1  0.13172237  0.63892306  0.36991006  1
  O  O409  1  0.13573254  0.62305153  0.88400004  1
  O  O410  1  0.63204575  0.13054768  0.37934911  1
  O  O411  1  0.63974279  0.12358967  0.86991386  1
  O  O412  1  0.60656709  0.62307947  0.38659899  1
  O  O413  1  0.63123266  0.63278805  0.88723061  1
