# generated using pymatgen
data_V79Zn79O256
_symmetry_space_group_name_H-M   'P 1'
_cell_length_a   16.93834780
_cell_length_b   16.96065958
_cell_length_c   16.96354418
_cell_angle_alpha   89.83131202
_cell_angle_beta   89.83342846
_cell_angle_gamma   89.96336895
_symmetry_Int_Tables_number   1
_chemical_formula_structural   V79Zn79O256
_chemical_formula_sum   'V79 Zn79 O256'
_cell_volume   4873.33844852
_cell_formula_units_Z   1
loop_
 _symmetry_equiv_pos_site_id
 _symmetry_equiv_pos_as_xyz
  1  'x, y, z'
loop_
 _atom_site_type_symbol
 _atom_site_label
 _atom_site_symmetry_multiplicity
 _atom_site_fract_x
 _atom_site_fract_y
 _atom_site_fract_z
 _atom_site_occupancy
  V  V0  1  0.37010164  0.62382312  0.74714771  1
  V  V1  1  0.75688151  0.75641435  0.00204381  1
  V  V2  1  -0.01150556  0.00910768  0.48730038  1
  V  V3  1  0.49799907  0.74779036  0.74782829  1
  V  V4  1  0.37445013  0.86564474  0.00886775  1
  V  V5  1  0.24935417  0.49957676  0.74739760  1
  V  V6  1  0.12179626  0.63148488  -0.00546610  1
  V  V7  1  0.74387376  0.02331894  0.24586662  1
  V  V8  1  0.24935518  0.50239454  0.25247501  1
  V  V9  1  0.13938270  0.25049554  0.88476510  1
  V  V10  1  0.38000655  0.49367347  0.88643560  1
  V  V11  1  0.62435943  0.74424608  0.87501449  1
  V  V12  1  0.75464568  0.49122480  0.27208028  1
  V  V13  1  0.63238327  0.61895830  0.50039835  1
  V  V14  1  0.49774462  0.87009603  0.87332614  1
  V  V15  1  0.62161854  -0.00014656  0.62238142  1
  V  V16  1  0.24453644  -0.00024972  0.73987502  1
  V  V17  1  0.37417662  -0.00521276  0.86908315  1
  V  V18  1  0.24516527  0.62778205  0.87236145  1
  V  V19  1  0.62514392  0.87355795  0.74951834  1
  V  V20  1  0.37183721  0.12030774  0.74674816  1
  V  V21  1  0.00168013  0.36740997  0.87287628  1
  V  V22  1  0.12392297  0.50920164  0.62173979  1
  V  V23  1  0.12482816  0.24736325  0.37532679  1
  V  V24  1  0.25117149  0.25238062  0.50140877  1
  V  V25  1  0.00200923  0.50250101  0.00256241  1
  V  V26  1  0.87243595  0.49613091  0.87493558  1
  V  V27  1  0.75414686  0.23356066  0.00527863  1
  V  V28  1  0.75728648  0.74643445  0.50704580  1
  V  V29  1  0.74826221  0.25405242  0.51139692  1
  V  V30  1  0.37817314  0.62682314  0.24812671  1
  V  V31  1  0.62474134  -0.00731505  0.12035593  1
  V  V32  1  0.62812071  0.25152238  0.36336794  1
  V  V33  1  0.37403325  0.24991890  0.61869027  1
  V  V34  1  0.04071846  0.01507827  -0.00286607  1
  V  V35  1  0.37826177  0.49560193  0.38435662  1
  V  V36  1  0.63697971  0.48979974  0.12144252  1
  V  V37  1  0.50037933  0.25382116  0.75718919  1
  V  V38  1  -0.00264952  0.12659089  0.62719311  1
  V  V39  1  0.75960476  0.87290983  0.63024215  1
  V  V40  1  0.50164514  0.36372539  0.37238929  1
  V  V41  1  0.63212454  0.73736491  0.37682776  1
  V  V42  1  0.36237701  -0.01747626  0.38094326  1
  V  V43  1  0.49971080  0.62237581  0.62103244  1
  V  V44  1  0.62929236  0.48549502  0.63156861  1
  V  V45  1  0.12315310  0.12128643  0.50706900  1
  V  V46  1  0.24994000  0.87816668  0.60133208  1
  V  V47  1  0.12343269  0.37828877  0.24694670  1
  V  V48  1  0.50152743  0.12053071  0.61813628  1
  V  V49  1  0.62709941  0.12677297  0.50600977  1
  V  V50  1  0.87649156  0.62561106  0.27388134  1
  V  V51  1  0.49391791  0.00376137  0.00549248  1
  V  V52  1  0.25088723  0.74755907  -0.00091751  1
  V  V53  1  0.00344016  0.22994415  0.24601034  1
  V  V54  1  0.00280886  0.51125463  0.50314051  1
  V  V55  1  0.36796531  0.75105517  0.60714243  1
  V  V56  1  0.15062919  0.01380396  0.14899057  1
  V  V57  1  0.63813337  0.86491898  0.24286741  1
  V  V58  1  0.74791724  0.61747119  0.87501542  1
  V  V59  1  0.87652106  0.25633619  0.63196901  1
  V  V60  1  0.87121709  0.88645064  0.48588132  1
  V  V61  1  0.24533328  0.87126537  0.13955427  1
  V  V62  1  0.50487134  0.61618296  0.12086796  1
  V  V63  1  0.25288473  0.37493821  0.61977454  1
  V  V64  1  0.12038122  0.36854102  0.74747463  1
  V  V65  1  0.25768614  0.12551944  0.36807012  1
  V  V66  1  0.74893798  0.00742115  0.75878565  1
  V  V67  1  0.12613105  0.86749649  0.75288609  1
  V  V68  1  0.87491469  0.37469855  0.01088756  1
  V  V69  1  0.88195220  -0.01322643  0.88336766  1
  V  V70  1  0.50544384  0.74789419  0.24683174  1
  V  V71  1  0.87797797  0.62665579  0.73916079  1
  V  V72  1  -0.00561927  0.37771286  0.37640901  1
  V  V73  1  0.87521772  0.37558328  0.50318729  1
  V  V74  1  0.26500568  0.37317445  0.11552783  1
  V  V75  1  0.50759470  0.87486652  0.38791223  1
  V  V76  1  0.23926472  0.63947630  0.38554655  1
  V  V77  1  0.87417810  0.13085173  0.76155421  1
  V  V78  1  0.88586961  0.22779706  0.12741971  1
  Zn  Zn79  1  0.12751451  0.50061992  0.12013443  1
  Zn  Zn80  1  0.00642001  0.85296948  0.90649733  1
  Zn  Zn81  1  0.63757296  0.24680748  0.87097595  1
  Zn  Zn82  1  0.62700095  0.11935054  -0.00475701  1
  Zn  Zn83  1  0.74948374  0.36308387  0.14305466  1
  Zn  Zn84  1  0.77943264  0.10350646  0.38977192  1
  Zn  Zn85  1  0.74843840  0.48082868  0.74953971  1
  Zn  Zn86  1  0.49609034  0.49007498  0.50528952  1
  Zn  Zn87  1  0.00130681  0.62787543  0.13510909  1
  Zn  Zn88  1  0.00281349  0.74219205  0.74231333  1
  Zn  Zn89  1  0.86710775  0.74714403  0.13028660  1
  Zn  Zn90  1  0.40170870  0.24106947  0.14114643  1
  Zn  Zn91  1  0.21647603  0.10134266  0.91862967  1
  Zn  Zn92  1  0.62142943  0.61593179  -0.00345454  1
  Zn  Zn93  1  0.49761784  0.37388212  0.87891466  1
  Zn  Zn94  1  0.19799475  0.19837050  0.18683471  1
  Zn  Zn95  1  0.18496134  0.18684899  0.69083178  1
  Zn  Zn96  1  0.18871129  0.68316129  0.18150853  1
  Zn  Zn97  1  0.14851808  0.72041640  0.63775120  1
  Zn  Zn98  1  0.57451328  0.18526314  0.18161938  1
  Zn  Zn99  1  0.68240666  0.30908440  0.69057678  1
  Zn  Zn100  1  0.69521834  0.67265904  0.18980795  1
  Zn  Zn101  1  0.69122042  0.68063108  0.68858870  1
  Zn  Zn102  1  0.31239778  0.31705188  0.31058184  1
  Zn  Zn103  1  0.31412073  0.31379298  0.80624849  1
  Zn  Zn104  1  0.32207757  0.80789411  0.31607245  1
  Zn  Zn105  1  0.30890376  0.80978523  0.80536857  1
  Zn  Zn106  1  0.82063440  0.28304541  0.31991416  1
  Zn  Zn107  1  0.81370323  0.30982035  0.82210169  1
  Zn  Zn108  1  0.81475907  0.80066061  0.31933986  1
  Zn  Zn109  1  0.81688187  0.80850414  0.81378400  1
  Zn  Zn110  1  0.18497212  0.44068428  0.43594520  1
  Zn  Zn111  1  0.18921162  0.43964478  0.93400503  1
  Zn  Zn112  1  0.17272789  0.94205547  0.42942224  1
  Zn  Zn113  1  0.19276888  0.92428379  0.92712375  1
  Zn  Zn114  1  0.68436408  0.43035537  0.44406659  1
  Zn  Zn115  1  0.68523687  0.42433579  0.94061639  1
  Zn  Zn116  1  0.68665956  0.93408742  0.43549953  1
  Zn  Zn117  1  0.68644348  0.93476992  0.93447688  1
  Zn  Zn118  1  0.29626128  0.08422141  0.07924775  1
  Zn  Zn119  1  0.32017392  0.06100809  0.55206359  1
  Zn  Zn120  1  0.31382491  0.56001821  0.06499023  1
  Zn  Zn121  1  0.30468643  0.56772320  0.56090768  1
  Zn  Zn122  1  0.81464581  0.05094563  0.06872532  1
  Zn  Zn123  1  0.80873517  0.06569573  0.57414141  1
  Zn  Zn124  1  0.81588977  0.56912338  0.06730754  1
  Zn  Zn125  1  0.81163401  0.55233412  0.55931645  1
  Zn  Zn126  1  0.44427661  0.43725871  0.19187729  1
  Zn  Zn127  1  0.43706735  0.43630838  0.68838382  1
  Zn  Zn128  1  0.44007681  1.05352568  0.19421623  1
  Zn  Zn129  1  0.43457129  0.93190382  0.67971585  1
  Zn  Zn130  1  0.93513292  0.44491942  0.19469712  1
  Zn  Zn131  1  0.93960480  0.44223006  0.68740397  1
  Zn  Zn132  1  0.88163599  0.91506835  0.20167301  1
  Zn  Zn133  1  0.93795478  0.95106085  0.68993554  1
  Zn  Zn134  1  0.01526222  0.01554653  0.27597953  1
  Zn  Zn135  1  0.06031118  0.06513152  0.81165293  1
  Zn  Zn136  1  0.05990097  0.56476936  0.31834972  1
  Zn  Zn137  1  0.06104462  0.55786373  0.81020353  1
  Zn  Zn138  1  0.58556516  0.05417750  0.32484560  1
  Zn  Zn139  1  0.56242441  0.06940796  0.81433958  1
  Zn  Zn140  1  0.56751255  0.55291888  0.30753304  1
  Zn  Zn141  1  0.55863453  0.55856162  0.80925281  1
  Zn  Zn142  1  0.44034331  0.18113977  0.31532757  1
  Zn  Zn143  1  0.40205478  0.17848772  0.94771063  1
  Zn  Zn144  1  0.44135764  0.67992084  0.43075888  1
  Zn  Zn145  1  0.43424470  0.68206268  0.93783889  1
  Zn  Zn146  1  0.93729436  0.19070787  0.43678702  1
  Zn  Zn147  1  0.94350838  0.18698428  0.93904541  1
  Zn  Zn148  1  0.94559960  0.69986427  0.44836099  1
  Zn  Zn149  1  0.93818663  0.68687442  0.92582465  1
  Zn  Zn150  1  0.06523036  0.31140458  0.06292349  1
  Zn  Zn151  1  0.06154478  0.31270614  0.56516561  1
  Zn  Zn152  1  0.01999624  0.87719211  0.12162994  1
  Zn  Zn153  1  0.03528987  0.84605808  0.59596054  1
  Zn  Zn154  1  0.56752422  0.31721797  0.04580256  1
  Zn  Zn155  1  0.54819617  0.30969407  0.55435015  1
  Zn  Zn156  1  0.56194775  0.80737278  0.06192198  1
  Zn  Zn157  1  0.56921177  0.80575829  0.56747575  1
  O  O158  1  0.17904339  0.11014043  0.11847120  1
  O  O159  1  0.11314453  0.13556389  0.61602938  1
  O  O160  1  0.11847851  0.62005033  0.11091325  1
  O  O161  1  0.13989012  0.60627301  0.62835698  1
  O  O162  1  0.61688848  0.09757832  0.11374742  1
  O  O163  1  0.61870992  0.11358668  0.62180013  1
  O  O164  1  0.61733191  0.61449520  0.12333726  1
  O  O165  1  0.61656864  0.61656725  0.62002920  1
  O  O166  1  0.38031270  0.39016314  0.37449658  1
  O  O167  1  0.37094783  0.39181565  0.86731046  1
  O  O168  1  0.39159550  0.87748244  0.37644939  1
  O  O169  1  0.37893751  0.87815252  0.87331692  1
  O  O170  1  0.88845438  0.36222529  0.38692446  1
  O  O171  1  0.88402756  0.37945952  0.88550095  1
  O  O172  1  0.86654688  0.87948689  0.38739832  1
  O  O173  1  0.88457165  0.88501611  0.86762614  1
  O  O174  1  0.25596028  0.00994444  0.38056303  1
  O  O175  1  0.26303769  -0.00112450  0.86111549  1
  O  O176  1  0.25838794  0.50421212  0.36857734  1
  O  O177  1  0.26060418  0.50735086  0.86699065  1
  O  O178  1  0.71642934  0.01442713  0.35844394  1
  O  O179  1  0.76094761  -0.00949328  0.86501635  1
  O  O180  1  0.74402949  0.49536004  0.37103287  1
  O  O181  1  0.75594705  0.50027629  0.87916680  1
  O  O182  1  0.24830443  0.49683115  0.13942955  1
  O  O183  1  0.24546639  0.49020829  0.62583050  1
  O  O184  1  0.25609325  0.98079766  0.12510184  1
  O  O185  1  0.26595575  0.98675702  0.62805692  1
  O  O186  1  0.74413561  0.49871190  0.12771829  1
  O  O187  1  0.73255604  0.49545320  0.62602102  1
  O  O188  1  0.73932110  0.99521512  0.13438953  1
  O  O189  1  0.74162766  0.99231711  0.63854597  1
  O  O190  1  0.01018178  0.37926146  0.25937604  1
  O  O191  1  0.00955331  0.38434049  0.76099384  1
  O  O192  1  -0.00764281  0.91999428  0.22722016  1
  O  O193  1  0.02359160  0.88183344  0.72084322  1
  O  O194  1  0.50318451  0.38746859  0.27455593  1
  O  O195  1  0.48916577  0.35769560  0.75224423  1
  O  O196  1  0.51837567  0.85383992  0.26275313  1
  O  O197  1  0.50441215  0.86616211  0.75173975  1
  O  O198  1  0.51675928  0.11727710  0.25771654  1
  O  O199  1  0.49111772  0.13121274  0.73657888  1
  O  O200  1  0.49752374  0.62717996  0.24577120  1
  O  O201  1  0.49028851  0.62721742  0.73884982  1
  O  O202  1  1.00837024  0.13250068  0.25498581  1
  O  O203  1  0.98429904  0.11643281  0.73967716  1
  O  O204  1  0.98252629  0.60931754  0.25063670  1
  O  O205  1  0.98185984  0.61769446  0.75433305  1
  O  O206  1  0.40424995  0.27804416  0.01093260  1
  O  O207  1  0.35963494  0.24519188  0.51368490  1
  O  O208  1  0.36313927  0.75217554  -0.00557963  1
  O  O209  1  0.38192981  0.73935684  0.50956819  1
  O  O210  1  0.88159224  0.25416989  0.01150909  1
  O  O211  1  0.86744374  0.25716701  0.51373152  1
  O  O212  1  0.85713343  0.74355385  -0.01222006  1
  O  O213  1  0.86651894  0.76805305  0.49979609  1
  O  O214  1  0.13104007  0.24558240  0.49466682  1
  O  O215  1  0.12603487  0.25503969  0.98418288  1
  O  O216  1  0.07913908  0.80446642  0.41377560  1
  O  O217  1  0.13693246  0.73412060  0.99091563  1
  O  O218  1  0.63429214  0.24242637  0.51361608  1
  O  O219  1  0.65321681  0.23875500  1.02473063  1
  O  O220  1  0.63431053  0.73739548  0.49685607  1
  O  O221  1  0.62850444  0.74294310  0.98469967  1
  O  O222  1  0.51419003  0.26360452  0.13104961  1
  O  O223  1  0.48905252  0.24344377  0.63199125  1
  O  O224  1  0.51261761  0.73093711  0.13758345  1
  O  O225  1  0.49343808  0.73961331  0.62890403  1
  O  O226  1  0.99709068  0.24896317  0.13149286  1
  O  O227  1  0.98802205  0.24045782  0.62210918  1
  O  O228  1  1.04331651  0.75599819  0.16784795  1
  O  O229  1  1.03484187  0.73988488  0.62909884  1
  O  O230  1  0.01076549  0.25824584  0.36542153  1
  O  O231  1  0.00830239  0.26388140  0.87786196  1
  O  O232  1  0.01724930  0.76805311  0.37935247  1
  O  O233  1  -0.00594673  0.75497348  0.85728677  1
  O  O234  1  0.51087251  0.25798525  0.37548163  1
  O  O235  1  0.47702252  0.24196070  0.85564213  1
  O  O236  1  0.51331883  0.74849625  0.36883474  1
  O  O237  1  0.50546008  0.74743304  0.86794445  1
  O  O238  1  0.23996769  0.13344377  0.49977996  1
  O  O239  1  0.29941745  0.13645147  0.98037436  1
  O  O240  1  0.24473083  0.62498955  0.48535564  1
  O  O241  1  0.24526632  0.62762723  0.99407453  1
  O  O242  1  0.74424498  0.13587344  0.50411561  1
  O  O243  1  0.75976960  0.13172727  1.00685304  1
  O  O244  1  0.74246893  0.63201634  0.51179713  1
  O  O245  1  0.74661025  0.62826347  0.98432576  1
  O  O246  1  0.24683117  0.39017818  0.01807486  1
  O  O247  1  0.24047280  0.36501743  0.50958785  1
  O  O248  1  0.25682743  0.86181449  -0.00497899  1
  O  O249  1  0.24477561  0.88624966  0.50283857  1
  O  O250  1  0.76672395  0.36498068  0.00613306  1
  O  O251  1  0.76487498  0.36902020  0.50047832  1
  O  O252  1  0.74276462  0.85532963  -0.00710185  1
  O  O253  1  0.75709304  0.87095719  0.50864262  1
  O  O254  1  0.13292607  0.49293947  0.25278715  1
  O  O255  1  0.13033531  0.49000394  0.74242419  1
  O  O256  1  0.13366214  1.01631612  0.24619242  1
  O  O257  1  0.14115497  1.00315263  0.75028723  1
  O  O258  1  0.64710230  0.50501378  0.24101227  1
  O  O259  1  0.62225585  0.50000664  0.73432894  1
  O  O260  1  0.63094846  0.98300099  0.23739152  1
  O  O261  1  0.63094125  0.99449520  0.74644634  1
  O  O262  1  0.39128918  0.01113209  0.28933801  1
  O  O263  1  0.36989556  0.00061292  0.75093932  1
  O  O264  1  0.36748739  0.50819857  0.26210886  1
  O  O265  1  0.36877794  0.51028649  0.74845937  1
  O  O266  1  0.84308645  0.00180071  0.25748189  1
  O  O267  1  0.86925262  0.00857546  0.76133043  1
  O  O268  1  0.86438421  0.50933424  0.25592193  1
  O  O269  1  0.87099310  0.50021806  0.76228752  1
  O  O270  1  0.12089361  0.36529954  0.36825205  1
  O  O271  1  0.12101962  0.37015511  0.86720354  1
  O  O272  1  0.10710351  0.86570098  0.36883248  1
  O  O273  1  0.11518218  0.88291970  0.85521837  1
  O  O274  1  0.61287571  0.36224180  0.38360406  1
  O  O275  1  0.60156663  0.34869713  0.92139256  1
  O  O276  1  0.62308458  0.85644922  0.36971846  1
  O  O277  1  0.61821608  0.86211415  0.86757549  1
  O  O278  1  0.38162435  0.12778082  0.13454137  1
  O  O279  1  0.38258443  0.12815265  0.62731718  1
  O  O280  1  0.39185692  0.61112566  0.13719441  1
  O  O281  1  0.37871902  0.62908108  0.62950918  1
  O  O282  1  0.88311835  0.12934046  0.12346719  1
  O  O283  1  0.87834852  0.13678031  0.63435467  1
  O  O284  1  0.88742837  0.63463427  0.12490248  1
  O  O285  1  0.86626248  0.60985120  0.64181032  1
  O  O286  1  0.26012713  0.27177347  0.12812755  1
  O  O287  1  0.25251881  0.25622410  0.62013480  1
  O  O288  1  0.24220809  0.76055898  0.11087261  1
  O  O289  1  0.25425401  0.76536467  0.61584793  1
  O  O290  1  0.78011570  0.25280371  0.11807097  1
  O  O291  1  0.76005573  0.25553083  0.61982352  1
  O  O292  1  0.74523734  0.73670149  0.10432438  1
  O  O293  1  0.74077432  0.76030193  0.61715732  1
  O  O294  1  0.24328984  0.24853752  0.38426357  1
  O  O295  1  0.23931935  0.25919001  0.87257782  1
  O  O296  1  0.25429124  0.73820364  0.37291547  1
  O  O297  1  0.25715917  0.73440143  0.87987224  1
  O  O298  1  0.73094549  0.26116275  0.39438454  1
  O  O299  1  0.75554664  0.24982963  0.90109102  1
  O  O300  1  0.74016510  0.74911647  0.39341562  1
  O  O301  1  0.74038003  0.73923008  0.87664798  1
  O  O302  1  0.00120121  0.10763569  -0.00843490  1
  O  O303  1  0.00374100  0.12759486  0.50518848  1
  O  O304  1  0.00760848  0.61670635  -0.00950372  1
  O  O305  1  -0.00200639  0.60955056  0.49636621  1
  O  O306  1  0.48943478  0.10268752  -0.00662818  1
  O  O307  1  0.51358687  0.13156181  0.51615982  1
  O  O308  1  0.49859869  0.62702256  0.01743226  1
  O  O309  1  0.51019484  0.62200811  0.51065403  1
  O  O310  1  0.49386431  0.37796602  0.48310918  1
  O  O311  1  0.45848513  0.33470968  0.99533189  1
  O  O312  1  0.51123633  0.86001469  0.48654491  1
  O  O313  1  0.49037358  0.86884129  0.99176654  1
  O  O314  1  0.99314505  0.37253398  0.49298093  1
  O  O315  1  0.99680077  0.38313760  0.99227543  1
  O  O316  1  0.97800744  0.89276985  0.50917811  1
  O  O317  1  1.01892056  0.90901387  1.00357482  1
  O  O318  1  0.48720949  0.50170221  0.37843679  1
  O  O319  1  0.48528232  0.49648575  0.86944029  1
  O  O320  1  0.52093458  0.97365586  0.37896952  1
  O  O321  1  0.49332503  0.98800137  0.87775451  1
  O  O322  1  1.00948829  0.48638627  0.39227989  1
  O  O323  1  0.99144055  0.49092763  0.88323327  1
  O  O324  1  0.98792210  1.01522552  0.38826671  1
  O  O325  1  0.99060886  1.00019800  0.87990143  1
  O  O326  1  0.05222933  0.01684313  0.10410462  1
  O  O327  1  -0.01316265  0.02036674  0.60860302  1
  O  O328  1  0.00133723  0.49826398  0.10935131  1
  O  O329  1  0.01030302  0.49487553  0.61262554  1
  O  O330  1  0.49997648  -0.00964852  0.10872579  1
  O  O331  1  0.51136477  0.00490967  0.63176913  1
  O  O332  1  0.51833114  0.50913328  0.13742464  1
  O  O333  1  0.50521852  0.50686239  0.62428395  1
  O  O334  1  0.24083137  0.38542878  0.24775062  1
  O  O335  1  0.24150931  0.38085078  0.73839309  1
  O  O336  1  0.25746706  0.86025646  0.23714544  1
  O  O337  1  0.24101108  0.88375504  0.74748662  1
  O  O338  1  0.76646810  0.38652434  0.25527152  1
  O  O339  1  0.73935824  0.36921716  0.76516927  1
  O  O340  1  0.73987623  0.86305461  0.25339595  1
  O  O341  1  0.74485199  0.87856541  0.74586026  1
  O  O342  1  0.24698759  0.13534250  0.27137606  1
  O  O343  1  0.26257227  0.11519979  0.73671743  1
  O  O344  1  0.25851626  0.61997366  0.25112166  1
  O  O345  1  0.25921426  0.61882587  0.75648037  1
  O  O346  1  0.73853775  0.11964374  0.24203166  1
  O  O347  1  0.76689014  0.11226242  0.74764137  1
  O  O348  1  0.76581776  0.61022806  0.25466305  1
  O  O349  1  0.75610314  0.61531402  0.76131852  1
  O  O350  1  0.35643437  0.13491029  0.38409940  1
  O  O351  1  0.38597591  0.10651819  0.85303007  1
  O  O352  1  0.36676763  0.61550028  0.36644934  1
  O  O353  1  0.37009948  0.61448174  0.86478005  1
  O  O354  1  0.85829779  0.17365889  0.36292257  1
  O  O355  1  0.88122611  0.12081246  0.86314783  1
  O  O356  1  0.88311186  0.63397391  0.37328902  1
  O  O357  1  0.86529368  0.61073452  0.86810650  1
  O  O358  1  0.13226420  0.37717661  0.13681366  1
  O  O359  1  0.13192949  0.37946475  0.63126571  1
  O  O360  1  0.14264264  0.89327436  0.12878737  1
  O  O361  1  0.14718946  0.87862839  0.62893377  1
  O  O362  1  0.63174252  0.38701668  0.12263942  1
  O  O363  1  0.61599278  0.38264502  0.62135573  1
  O  O364  1  0.61853532  0.87792057  0.13251531  1
  O  O365  1  0.63275226  0.88153215  0.63025960  1
  O  O366  1  0.12056075  0.25877516  0.25525426  1
  O  O367  1  0.12821587  0.26481626  0.75515911  1
  O  O368  1  0.09683359  0.75058783  0.22372206  1
  O  O369  1  0.13575054  0.76757769  0.75069518  1
  O  O370  1  0.63722821  0.24563748  0.26665826  1
  O  O371  1  0.60431393  0.24822863  0.75339136  1
  O  O372  1  0.62644420  0.74365001  0.25880704  1
  O  O373  1  0.62018174  0.75042871  0.75691309  1
  O  O374  1  0.38167471  0.25454025  0.25372266  1
  O  O375  1  0.37393388  0.23861638  0.73610524  1
  O  O376  1  0.39141005  0.73553127  0.25647814  1
  O  O377  1  0.37737724  0.73825765  0.74044618  1
  O  O378  1  0.89153730  0.25629328  0.23104960  1
  O  O379  1  0.87007003  0.23780908  0.74794180  1
  O  O380  1  0.86858819  0.73057712  0.25078580  1
  O  O381  1  0.86973713  0.72979489  0.74733411  1
  O  O382  1  0.37310244  0.50762710  0.48714998  1
  O  O383  1  0.37359557  0.50450073  0.98490434  1
  O  O384  1  0.38836947  1.01041412  0.47499949  1
  O  O385  1  0.38587361  0.98240872  0.98620099  1
  O  O386  1  0.89109385  0.48729368  0.50783799  1
  O  O387  1  0.88113351  0.49418882  0.99196491  1
  O  O388  1  0.86708700  0.99498081  0.49878357  1
  O  O389  1  0.86757421  0.99925991  0.98170685  1
  O  O390  1  0.14082313  0.01961324  -0.03082904  1
  O  O391  1  0.10927030  0.01590375  0.49327742  1
  O  O392  1  0.11616477  0.50808794  -0.00384895  1
  O  O393  1  0.11257347  0.49247927  0.50817201  1
  O  O394  1  0.60815621  -0.01074462  0.00043008  1
  O  O395  1  0.63772064  0.00984885  0.51412358  1
  O  O396  1  0.63140609  0.50050592  0.01559700  1
  O  O397  1  0.62324161  0.50508815  0.51209485  1
  O  O398  1  0.36466369  0.38822511  0.13022755  1
  O  O399  1  0.36165163  0.36543394  0.63044530  1
  O  O400  1  0.36163641  0.87065106  0.10836912  1
  O  O401  1  0.36276303  0.86290182  0.62486994  1
  O  O402  1  0.88254796  0.37798270  0.11475354  1
  O  O403  1  0.88478725  0.36569574  0.61976222  1
  O  O404  1  0.90355875  0.85034794  0.11624310  1
  O  O405  1  0.86152427  0.88314018  0.62523529  1
  O  O406  1  0.13521011  0.14076228  0.38833038  1
  O  O407  1  0.12731288  0.14660865  0.86058949  1
  O  O408  1  0.14088310  0.62604178  0.36549830  1
  O  O409  1  0.13819701  0.61250616  0.87864598  1
  O  O410  1  0.62080156  0.14366259  0.39441188  1
  O  O411  1  0.61961876  0.13422255  0.88416723  1
  O  O412  1  0.61870211  0.62713454  0.38883888  1
  O  O413  1  0.62882849  0.62741160  0.87169156  1
