# generated using pymatgen
data_V79Zn79O256
_symmetry_space_group_name_H-M   'P 1'
_cell_length_a   16.90107119
_cell_length_b   16.89312846
_cell_length_c   16.89377962
_cell_angle_alpha   90.06611899
_cell_angle_beta   89.95321520
_cell_angle_gamma   90.04856097
_symmetry_Int_Tables_number   1
_chemical_formula_structural   V79Zn79O256
_chemical_formula_sum   'V79 Zn79 O256'
_cell_volume   4823.36969667
_cell_formula_units_Z   1
loop_
 _symmetry_equiv_pos_site_id
 _symmetry_equiv_pos_as_xyz
  1  'x, y, z'
loop_
 _atom_site_type_symbol
 _atom_site_label
 _atom_site_symmetry_multiplicity
 _atom_site_fract_x
 _atom_site_fract_y
 _atom_site_fract_z
 _atom_site_occupancy
  V  V0  1  -0.00286023  0.77035120  0.25084592  1
  V  V1  1  0.87510687  0.39107898  -0.00109449  1
  V  V2  1  0.24472051  0.12772554  0.87545746  1
  V  V3  1  0.12822843  0.75384331  0.37020500  1
  V  V4  1  0.87915584  0.39931924  0.49873294  1
  V  V5  1  0.76148860  0.12233032  0.86944007  1
  V  V6  1  0.62766438  0.62176130  0.49901225  1
  V  V7  1  0.00614528  0.61416400  0.12149104  1
  V  V8  1  0.14540270  0.88556491  0.24459262  1
  V  V9  1  0.62572288  0.25273040  0.38159589  1
  V  V10  1  0.50006974  0.75349518  0.25330047  1
  V  V11  1  -0.00445597  0.39032845  0.37305617  1
  V  V12  1  0.62199237  -0.00535982  0.63468130  1
  V  V13  1  0.50439846  0.75460150  0.74902088  1
  V  V14  1  0.49479342  0.49815901  -0.00055288  1
  V  V15  1  0.49593499  0.62012703  0.61927154  1
  V  V16  1  0.88318235  0.75859564  0.11103782  1
  V  V17  1  -0.00186642  0.12707995  0.14395306  1
  V  V18  1  0.37495676  0.62488366  0.75297143  1
  V  V19  1  0.61974024  0.25060517  0.86190941  1
  V  V20  1  -0.01413202  0.87875666  0.88130855  1
  V  V21  1  0.49667502  0.37073334  0.86387434  1
  V  V22  1  0.61622251  0.37688905  0.25573397  1
  V  V23  1  0.62056644  0.49907943  0.12757735  1
  V  V24  1  0.86889246  0.74900043  0.61945486  1
  V  V25  1  0.12474361  0.61430999  0.00163253  1
  V  V26  1  0.25001779  0.36100133  0.62217255  1
  V  V27  1  0.86867453  0.61401052  0.75646750  1
  V  V28  1  -0.00218864  0.74927052  0.74870061  1
  V  V29  1  0.25017193  0.75837789  0.00133781  1
  V  V30  1  -0.00432474  0.38631620  0.87927609  1
  V  V31  1  0.24635861  0.88161589  0.62191976  1
  V  V32  1  0.62280653  -0.00530870  0.11502219  1
  V  V33  1  0.87045059  0.01487701  0.36137287  1
  V  V34  1  0.11473513  0.24715320  0.37881688  1
  V  V35  1  0.76676227  0.00091356  0.75178242  1
  V  V36  1  0.62121860  0.49594320  0.62895859  1
  V  V37  1  0.25173463  0.00686480  0.74725850  1
  V  V38  1  0.36738182  0.50745065  0.39517834  1
  V  V39  1  0.74656117  0.37307581  0.12887400  1
  V  V40  1  0.88313942  0.87906071  0.49086285  1
  V  V41  1  0.24717333  0.39129042  0.13145427  1
  V  V42  1  0.25370296  0.62274694  0.87582687  1
  V  V43  1  0.12465166  0.88211227  0.74621280  1
  V  V44  1  0.61326335  0.11763514  -0.00622145  1
  V  V45  1  -0.01468936  0.24211463  0.74128226  1
  V  V46  1  0.37120611  0.75716371  0.12576477  1
  V  V47  1  0.75577263  0.87615764  0.11282148  1
  V  V48  1  0.37832844  0.87707433  0.49563531  1
  V  V49  1  0.12218283  0.50066185  0.61855684  1
  V  V50  1  0.13491663  0.00292620  0.11673670  1
  V  V51  1  0.37762802  0.00444662  0.87259980  1
  V  V52  1  0.62782834  0.12328108  0.50191021  1
  V  V53  1  0.63564729  0.87399019  0.25569248  1
  V  V54  1  0.48397371  0.13161284  0.63537708  1
  V  V55  1  0.25458298  0.13451346  0.36687764  1
  V  V56  1  0.50737169  0.87830560  0.87159722  1
  V  V57  1  0.37698931  0.35085981  0.50768310  1
  V  V58  1  0.75219634  0.24648677  0.00000354  1
  V  V59  1  0.36973777  0.00167059  0.36283141  1
  V  V60  1  0.37260245  0.37454122  0.00016687  1
  V  V61  1  0.76444607  0.24393118  0.50057676  1
  V  V62  1  0.62637655  0.74413663  0.37904714  1
  V  V63  1  0.24753329  0.74633339  0.49393522  1
  V  V64  1  0.12300919  0.36971648  0.75344099  1
  V  V65  1  0.11892849  0.10072652  0.50773681  1
  V  V66  1  0.36116651  0.61670570  0.25189625  1
  V  V67  1  0.74553600  0.87148005  0.62302922  1
  V  V68  1  0.50304029  0.62488694  0.12219829  1
  V  V69  1  0.50099056  -0.00332117  0.49139763  1
  V  V70  1  0.25117504  0.49988209  0.75294135  1
  V  V71  1  0.62558973  0.73243689  0.88133782  1
  V  V72  1  0.75181129  0.37319140  0.63028081  1
  V  V73  1  0.38001865  0.87982571  -0.00169212  1
  V  V74  1  0.24205697  0.24214936  0.00916607  1
  V  V75  1  0.00298124  0.62144748  0.61761653  1
  V  V76  1  0.12628968  0.75226818  0.87453721  1
  V  V77  1  0.12322462  0.38281659  0.24767330  1
  V  V78  1  -0.01208138  0.01164237  -0.00432793  1
  Zn  Zn79  1  0.49078268  0.22984737  0.26131707  1
  Zn  Zn80  1  0.49647774  0.11726094  0.14265045  1
  Zn  Zn81  1  0.88638650  0.25221426  0.13501078  1
  Zn  Zn82  1  0.83548022  0.13286817  0.25322476  1
  Zn  Zn83  1  0.77454348  0.61694043  0.39723286  1
  Zn  Zn84  1  0.88526238  0.61720598  0.25788514  1
  Zn  Zn85  1  0.74179397  0.49394980  0.76136406  1
  Zn  Zn86  1  0.37619906  0.24006378  0.14008367  1
  Zn  Zn87  1  0.79931651  0.56602981  0.92600428  1
  Zn  Zn88  1  0.12646519  0.61369816  0.48122601  1
  Zn  Zn89  1  0.76343501  0.49992590  0.26711843  1
  Zn  Zn90  1  0.49886669  0.37963990  0.39038687  1
  Zn  Zn91  1  0.74789192  0.73901230  -0.00669531  1
  Zn  Zn92  1  0.11687004  0.24380783  0.88065252  1
  Zn  Zn93  1  0.37432270  0.75208909  0.62283027  1
  Zn  Zn94  1  0.17919047  0.18870086  0.19434005  1
  Zn  Zn95  1  0.17763368  0.18168955  0.68583625  1
  Zn  Zn96  1  0.18364583  0.69191086  0.18588304  1
  Zn  Zn97  1  0.18736427  0.69163010  0.68370378  1
  Zn  Zn98  1  0.66627396  0.19270569  0.18279079  1
  Zn  Zn99  1  0.68981808  0.18339881  0.68256895  1
  Zn  Zn100  1  0.69220514  0.69001141  0.19203947  1
  Zn  Zn101  1  0.68434054  0.68485269  0.69031029  1
  Zn  Zn102  1  0.31073504  0.31671859  0.31789853  1
  Zn  Zn103  1  0.31507995  0.30730822  0.81365667  1
  Zn  Zn104  1  0.31399588  0.81530398  0.31252839  1
  Zn  Zn105  1  0.31453414  0.81470451  0.81165625  1
  Zn  Zn106  1  0.81112837  0.31429023  0.31389597  1
  Zn  Zn107  1  0.81334277  0.31032231  0.81699444  1
  Zn  Zn108  1  0.81155165  0.79338109  0.31460483  1
  Zn  Zn109  1  0.80484461  0.80970338  0.80587279  1
  Zn  Zn110  1  0.19244637  0.43120217  0.43555567  1
  Zn  Zn111  1  0.18788719  0.43276001  0.93786934  1
  Zn  Zn112  1  0.18873100  0.93795807  0.43129390  1
  Zn  Zn113  1  0.18340116  0.94160929  0.93515550  1
  Zn  Zn114  1  0.68857072  0.43954399  0.44330870  1
  Zn  Zn115  1  0.67730492  0.43315649  0.94136920  1
  Zn  Zn116  1  0.69494122  0.93526853  0.43924073  1
  Zn  Zn117  1  0.69348427  0.93356867  0.93268793  1
  Zn  Zn118  1  0.31975896  0.06379436  0.06322881  1
  Zn  Zn119  1  0.30504227  0.06889720  0.55246484  1
  Zn  Zn120  1  0.31492673  0.56672075  0.06294571  1
  Zn  Zn121  1  0.30471055  0.56531171  0.56981766  1
  Zn  Zn122  1  0.81225022  0.06552056  0.06343385  1
  Zn  Zn123  1  0.81092741  0.05070469  0.55441325  1
  Zn  Zn124  1  0.79613312  0.58364374  0.10618296  1
  Zn  Zn125  1  0.80849242  0.56401254  0.57286285  1
  Zn  Zn126  1  0.43266863  0.43102698  0.19005917  1
  Zn  Zn127  1  0.43259051  0.43723783  0.68364132  1
  Zn  Zn128  1  0.44554258  0.93617681  0.18677898  1
  Zn  Zn129  1  0.43514166  0.94126202  0.68429510  1
  Zn  Zn130  1  0.93673377  0.43459723  0.18708508  1
  Zn  Zn131  1  0.93928259  0.43251566  0.68672198  1
  Zn  Zn132  1  0.93470424  0.94864757  0.18740631  1
  Zn  Zn133  1  0.93413918  0.93276653  0.68648469  1
  Zn  Zn134  1  0.05824992  0.05156205  0.32223803  1
  Zn  Zn135  1  0.06038650  0.06241722  0.81363614  1
  Zn  Zn136  1  0.06503624  0.56801351  0.30338331  1
  Zn  Zn137  1  0.06403822  0.56315427  0.81020341  1
  Zn  Zn138  1  0.63664492  0.07721560  0.29509098  1
  Zn  Zn139  1  0.56324223  0.06417832  0.81129552  1
  Zn  Zn140  1  0.54969443  0.55869673  0.31432407  1
  Zn  Zn141  1  0.55759410  0.55633750  0.81276937  1
  Zn  Zn142  1  0.44284986  0.17959745  0.43978743  1
  Zn  Zn143  1  0.42939618  0.19225414  0.93653366  1
  Zn  Zn144  1  0.43691820  0.68865757  0.43464928  1
  Zn  Zn145  1  0.43907793  0.68944402  0.93794055  1
  Zn  Zn146  1  0.94339031  0.18415205  0.43139351  1
  Zn  Zn147  1  0.93876792  0.19644150  0.93511627  1
  Zn  Zn148  1  0.94649097  0.69573636  0.43625212  1
  Zn  Zn149  1  0.94217397  0.68611797  0.93746102  1
  Zn  Zn150  1  0.06092069  0.31461749  0.06406919  1
  Zn  Zn151  1  0.05878528  0.30768065  0.55811587  1
  Zn  Zn152  1  0.06823415  0.81936182  0.06044788  1
  Zn  Zn153  1  0.06345360  0.81388774  0.56039580  1
  Zn  Zn154  1  0.55901571  0.30519338  0.06326847  1
  Zn  Zn155  1  0.56340081  0.30900289  0.56997281  1
  Zn  Zn156  1  0.56132460  0.81191218  0.06041567  1
  Zn  Zn157  1  0.56201958  0.80999875  0.56200548  1
  O  O158  1  0.11288842  0.11118695  0.13211097  1
  O  O159  1  0.13327422  0.11562250  0.60765962  1
  O  O160  1  0.11558288  0.63335088  0.11529814  1
  O  O161  1  0.11720285  0.61655834  0.63076397  1
  O  O162  1  0.62517946  0.11397507  0.10172735  1
  O  O163  1  0.62111538  0.11358842  0.61662658  1
  O  O164  1  0.60993780  0.61663112  0.13228389  1
  O  O165  1  0.61545527  0.62112739  0.61774158  1
  O  O166  1  0.36929237  0.38138054  0.40053490  1
  O  O167  1  0.38540491  0.37015258  0.88712748  1
  O  O168  1  0.36940403  0.88800240  0.38495184  1
  O  O169  1  0.38232642  0.88085162  0.88026737  1
  O  O170  1  0.88593416  0.37619355  0.38514814  1
  O  O171  1  0.87856824  0.37200221  0.89204296  1
  O  O172  1  0.86533803  0.85788537  0.39240122  1
  O  O173  1  0.88782763  0.86818916  0.86761345  1
  O  O174  1  0.26452318  0.00569501  0.37154407  1
  O  O175  1  0.25520456  0.00591976  0.86779623  1
  O  O176  1  0.26799857  0.49341943  0.37518224  1
  O  O177  1  0.24281379  0.51112228  0.86486113  1
  O  O178  1  0.76670707  -0.00505718  0.37780918  1
  O  O179  1  0.74645956  0.00444481  0.85893759  1
  O  O180  1  0.73718229  0.51359362  0.37600519  1
  O  O181  1  0.74448658  0.48721821  0.87210414  1
  O  O182  1  0.24788789  0.48972596  0.12066030  1
  O  O183  1  0.24060862  0.49597097  0.63785497  1
  O  O184  1  0.23350841  1.00743296  0.11385474  1
  O  O185  1  0.25572581  0.98927879  0.63242580  1
  O  O186  1  0.73413756  0.48204347  0.11672756  1
  O  O187  1  0.74126424  0.48841105  0.62856842  1
  O  O188  1  0.74282898  0.98271735  0.11449137  1
  O  O189  1  0.74415849  0.99484294  0.63374838  1
  O  O190  1  0.01028526  0.37587896  0.26028455  1
  O  O191  1  0.00566482  0.36889582  0.75756657  1
  O  O192  1  0.00428713  0.87132573  0.24374622  1
  O  O193  1  0.00558641  0.87026018  0.75427847  1
  O  O194  1  0.51197850  0.37443159  0.25290681  1
  O  O195  1  0.49097938  0.38100129  0.76539451  1
  O  O196  1  0.51739829  0.85976891  0.23962917  1
  O  O197  1  0.48940449  0.86312494  0.75649599  1
  O  O198  1  0.54176952  0.12738247  0.24923112  1
  O  O199  1  0.49695946  0.11377658  0.73440805  1
  O  O200  1  0.48822873  0.63432481  0.24066262  1
  O  O201  1  0.48982082  0.63060467  0.74579208  1
  O  O202  1  1.00154228  0.12214336  0.24273138  1
  O  O203  1  1.00824111  0.14407953  0.75832252  1
  O  O204  1  1.00784287  0.64142609  0.23216629  1
  O  O205  1  0.99350137  0.63337920  0.74409390  1
  O  O206  1  0.36066317  0.26081354  0.00398255  1
  O  O207  1  0.37199309  0.25280249  0.49971922  1
  O  O208  1  0.36893718  0.75703818  0.00564682  1
  O  O209  1  0.36644491  0.75931278  0.49622424  1
  O  O210  1  0.86024414  0.24979646  0.00738446  1
  O  O211  1  0.86492604  0.24674997  0.49751400  1
  O  O212  1  0.88188862  0.75629399  0.00929587  1
  O  O213  1  0.87588408  0.75108544  0.51641914  1
  O  O214  1  0.12870310  0.25987767  0.48114866  1
  O  O215  1  0.13935582  0.25875749  0.99808747  1
  O  O216  1  0.13199401  0.75863010  0.48574093  1
  O  O217  1  0.13499443  0.74727140  0.99455452  1
  O  O218  1  0.63316513  0.24317987  0.49887858  1
  O  O219  1  0.63223569  0.23713391  0.99107717  1
  O  O220  1  0.61775538  0.73828837  0.49105355  1
  O  O221  1  0.62037108  0.74789000  0.98504321  1
  O  O222  1  0.50187201  0.24081538  0.13504267  1
  O  O223  1  0.50510008  0.23027355  0.62492361  1
  O  O224  1  0.49180542  0.74256825  0.12869262  1
  O  O225  1  0.49840383  0.74155579  0.63441903  1
  O  O226  1  1.00421502  0.22996782  0.11786239  1
  O  O227  1  1.00414450  0.25750341  0.64197951  1
  O  O228  1  0.99419251  0.76082319  0.12952637  1
  O  O229  1  0.99422191  0.74378853  0.63449584  1
  O  O230  1  0.01062763  0.26253998  0.37478083  1
  O  O231  1  0.00146065  0.26454145  0.86673396  1
  O  O232  1  0.01067870  0.75622008  0.35588674  1
  O  O233  1  0.00467079  0.75998160  0.86609548  1
  O  O234  1  0.51435529  0.25386803  0.38290631  1
  O  O235  1  0.50372486  0.26052948  0.87792424  1
  O  O236  1  0.50848135  0.74584875  0.36243505  1
  O  O237  1  0.50665446  0.75542530  0.86883533  1
  O  O238  1  0.23026477  0.11544979  0.48056795  1
  O  O239  1  0.25206244  0.13807347  0.99494455  1
  O  O240  1  0.24165899  0.64251940  0.50984179  1
  O  O241  1  0.24703563  0.63440661  0.99259332  1
  O  O242  1  0.74611930  0.13775141  0.51542998  1
  O  O243  1  0.74366932  0.12937708  0.99053396  1
  O  O244  1  0.73155322  0.62728572  0.50957348  1
  O  O245  1  0.76248881  0.62861037  1.00905604  1
  O  O246  1  0.25297403  0.36915199  0.01059760  1
  O  O247  1  0.25701844  0.37465584  0.51673506  1
  O  O248  1  0.25891007  0.86357995  -0.01151818  1
  O  O249  1  0.25574218  0.87128940  0.50575556  1
  O  O250  1  0.75754705  0.36626366  0.00533076  1
  O  O251  1  0.76546400  0.36904284  0.50530245  1
  O  O252  1  0.74724041  0.86319568  0.00938188  1
  O  O253  1  0.76067104  0.87557458  0.51693636  1
  O  O254  1  0.12705455  0.48305728  0.25636641  1
  O  O255  1  0.13170974  0.49085057  0.74291989  1
  O  O256  1  0.12318019  0.98960937  0.24212010  1
  O  O257  1  0.13382717  0.98926093  0.75511217  1
  O  O258  1  0.61913502  0.49408857  0.24048572  1
  O  O259  1  0.62577169  0.50703998  0.73458134  1
  O  O260  1  0.62703000  0.97567112  0.23737401  1
  O  O261  1  0.62809541  0.99927425  0.73696266  1
  O  O262  1  0.38673059  -0.00680567  0.26495323  1
  O  O263  1  0.36117623  -0.00828099  0.76028861  1
  O  O264  1  0.37071367  0.51607086  0.24270929  1
  O  O265  1  0.36250230  0.51252958  0.74495310  1
  O  O266  1  0.86639594  0.00805512  0.25549725  1
  O  O267  1  0.86584088  0.00277115  0.74845087  1
  O  O268  1  0.87738478  0.50265517  0.25018429  1
  O  O269  1  0.87659940  0.51256448  0.74574876  1
  O  O270  1  0.11666802  0.37091277  0.36976584  1
  O  O271  1  0.11747982  0.37463905  0.86758975  1
  O  O272  1  0.13220183  0.86916710  0.35459717  1
  O  O273  1  0.11839380  0.86979019  0.86401424  1
  O  O274  1  0.62074506  0.37169863  0.37575999  1
  O  O275  1  0.60697013  0.36270845  0.88187843  1
  O  O276  1  0.63525951  0.86427891  0.36191826  1
  O  O277  1  0.61001467  0.87234759  0.87722094  1
  O  O278  1  0.38653513  0.12607430  0.12164213  1
  O  O279  1  0.38544330  0.11784572  0.61583515  1
  O  O280  1  0.38005296  0.63626069  0.13389087  1
  O  O281  1  0.37916294  0.62918396  0.63504670  1
  O  O282  1  0.88836383  0.12300507  0.12961917  1
  O  O283  1  0.91685481  0.08657677  0.61627026  1
  O  O284  1  0.89804849  0.64531138  0.12219932  1
  O  O285  1  0.88368189  0.63002251  0.63414457  1
  O  O286  1  0.24683460  0.25054525  0.11578805  1
  O  O287  1  0.24388757  0.26326198  0.63231543  1
  O  O288  1  0.26049086  0.74634493  0.11289355  1
  O  O289  1  0.25003066  0.76334657  0.61636408  1
  O  O290  1  0.73618806  0.26252058  0.11390241  1
  O  O291  1  0.74430890  0.26443151  0.61316059  1
  O  O292  1  0.76791718  0.75727290  0.12206510  1
  O  O293  1  0.75790021  0.75918302  0.63957615  1
  O  O294  1  0.24461984  0.23892483  0.37650624  1
  O  O295  1  0.24886585  0.24362889  0.88694034  1
  O  O296  1  0.24343868  0.75663537  0.38324538  1
  O  O297  1  0.24666640  0.74189531  0.87983779  1
  O  O298  1  0.74118352  0.25918427  0.39510504  1
  O  O299  1  0.74099030  0.24378932  0.88165972  1
  O  O300  1  0.72750522  0.72834878  0.36233261  1
  O  O301  1  0.72971629  0.75423368  0.87125185  1
  O  O302  1  -0.00100182  0.11300376  -0.00886649  1
  O  O303  1  0.02263404  0.13290171  0.49274966  1
  O  O304  1  0.01201472  0.63237372  0.00997515  1
  O  O305  1  0.00922618  0.63510152  0.51372078  1
  O  O306  1  0.51402329  0.12573514  -0.01321868  1
  O  O307  1  0.51000597  0.11484497  0.51093952  1
  O  O308  1  0.48562598  0.61316060  0.01163594  1
  O  O309  1  0.50260441  0.63184283  0.51398425  1
  O  O310  1  0.48058699  0.36987611  0.51295442  1
  O  O311  1  0.48803866  0.37898546  1.00248266  1
  O  O312  1  0.48827730  0.88133328  0.50641982  1
  O  O313  1  0.48782803  0.86930549  0.98825800  1
  O  O314  1  0.98620564  0.37662113  0.49188995  1
  O  O315  1  0.98356793  0.37071852  0.99754033  1
  O  O316  1  0.98259946  0.86781266  0.50483148  1
  O  O317  1  1.00089504  0.87787277  0.98428726  1
  O  O318  1  0.47350434  0.49123045  0.36732034  1
  O  O319  1  0.50592060  0.48419359  0.88832273  1
  O  O320  1  0.48763792  1.00607838  0.39081750  1
  O  O321  1  0.48806343  0.99151512  0.86507255  1
  O  O322  1  1.00849399  0.48922707  0.37504963  1
  O  O323  1  1.00214322  0.48683096  0.86992264  1
  O  O324  1  0.97306702  0.99286257  0.36843630  1
  O  O325  1  1.00292872  0.98806943  0.88267471  1
  O  O326  1  0.00334614  0.01132989  0.11309409  1
  O  O327  1  -0.02953931  0.03316955  0.62383464  1
  O  O328  1  0.00058731  0.51602974  0.12660594  1
  O  O329  1  0.01042542  0.50879243  0.63127833  1
  O  O330  1  0.51868848  -0.00466004  0.12040460  1
  O  O331  1  0.50676147  0.00329822  0.61615180  1
  O  O332  1  0.50074752  0.50553470  0.12197546  1
  O  O333  1  0.50470219  0.51110202  0.63192859  1
  O  O334  1  0.24254032  0.37542431  0.23784094  1
  O  O335  1  0.24436376  0.38265718  0.74575749  1
  O  O336  1  0.24457664  0.87511286  0.24089687  1
  O  O337  1  0.24276887  0.87985146  0.74330477  1
  O  O338  1  0.73971271  0.38100889  0.24299122  1
  O  O339  1  0.76090591  0.37273709  0.73256272  1
  O  O340  1  0.73839360  0.85879989  0.23571256  1
  O  O341  1  0.75495856  0.89007567  0.73833968  1
  O  O342  1  0.24348891  0.12423553  0.26723649  1
  O  O343  1  0.24376813  0.11371147  0.75608241  1
  O  O344  1  0.26291714  0.63487708  0.24517444  1
  O  O345  1  0.25373540  0.62235215  0.75631799  1
  O  O346  1  0.72647428  0.11426357  0.23532880  1
  O  O347  1  0.74713452  0.11070660  0.75304620  1
  O  O348  1  0.76678326  0.61109210  0.21779004  1
  O  O349  1  0.76578623  0.62091056  0.74408525  1
  O  O350  1  0.36486034  0.11504489  0.38084206  1
  O  O351  1  0.36306734  0.11298611  0.88211783  1
  O  O352  1  0.37670434  0.61691782  0.36329373  1
  O  O353  1  0.36400879  0.62996156  0.86759381  1
  O  O354  1  0.87095952  0.11934453  0.37208896  1
  O  O355  1  0.85993650  0.13147708  0.87712890  1
  O  O356  1  0.87210301  0.65763759  0.36392947  1
  O  O357  1  0.87879416  0.62780688  0.86127018  1
  O  O358  1  0.13279516  0.37081807  0.13729715  1
  O  O359  1  0.13359888  0.38133893  0.63163319  1
  O  O360  1  0.12277768  0.88934250  0.13432444  1
  O  O361  1  0.13191051  0.87107366  0.63556327  1
  O  O362  1  0.62671613  0.37877187  0.13530987  1
  O  O363  1  0.63946111  0.38387293  0.61468607  1
  O  O364  1  0.63679764  0.87370943  0.12597537  1
  O  O365  1  0.63282901  0.88261602  0.61752577  1
  O  O366  1  0.13132708  0.26604538  0.26743896  1
  O  O367  1  0.12372751  0.26264140  0.75352412  1
  O  O368  1  0.11851984  0.76653453  0.24727202  1
  O  O369  1  0.11563151  0.75703336  0.75334634  1
  O  O370  1  0.63268948  0.26569251  0.26908019  1
  O  O371  1  0.63118411  0.24382204  0.76268089  1
  O  O372  1  0.61726074  0.75215411  0.25353487  1
  O  O373  1  0.61098075  0.74294372  0.76037907  1
  O  O374  1  0.38311363  0.26354752  0.25291318  1
  O  O375  1  0.37105499  0.24497686  0.74256819  1
  O  O376  1  0.38151290  0.74828804  0.24392904  1
  O  O377  1  0.38147668  0.74008744  0.74961753  1
  O  O378  1  0.86255888  0.24400210  0.24525721  1
  O  O379  1  0.88505562  0.25159107  0.75015563  1
  O  O380  1  0.89143868  0.75673154  0.23658227  1
  O  O381  1  0.88306415  0.74241521  0.74285939  1
  O  O382  1  0.37268567  0.51053156  0.49632809  1
  O  O383  1  0.38169703  0.48825196  1.00720879  1
  O  O384  1  0.38011297  0.99206554  0.49471270  1
  O  O385  1  0.36553899  0.98696621  0.98800257  1
  O  O386  1  0.87268426  0.49833303  0.49810410  1
  O  O387  1  0.86954345  0.48909558  1.00444046  1
  O  O388  1  0.87519117  0.98441609  0.48835441  1
  O  O389  1  0.88905311  0.99868400  1.00318631  1
  O  O390  1  0.11216992  -0.00827312  0.01166783  1
  O  O391  1  0.11553557  -0.00023579  0.49182615  1
  O  O392  1  0.13227332  0.51513469  -0.00371365  1
  O  O393  1  0.13547538  0.50025428  0.51338331  1
  O  O394  1  0.63097142  0.00943716  -0.00190158  1
  O  O395  1  0.62086988  0.00394283  0.50501572  1
  O  O396  1  0.60709187  0.48899601  0.01725215  1
  O  O397  1  0.62104263  0.51317594  0.51278707  1
  O  O398  1  0.35793513  0.37196755  0.12055565  1
  O  O399  1  0.36031695  0.37711944  0.61876418  1
  O  O400  1  0.38367870  0.86507562  0.11553104  1
  O  O401  1  0.36497884  0.87349029  0.61492644  1
  O  O402  1  0.86663171  0.37139923  0.11455711  1
  O  O403  1  0.86545645  0.38398258  0.60949435  1
  O  O404  1  0.86459915  0.87131725  0.12749604  1
  O  O405  1  0.86863768  0.86711153  0.61817708  1
  O  O406  1  0.12838209  0.13505633  0.37553001  1
  O  O407  1  0.13997390  0.12435223  0.87565363  1
  O  O408  1  0.12112025  0.64513248  0.36892540  1
  O  O409  1  0.13226585  0.63253816  0.87986671  1
  O  O410  1  0.62995422  0.13431684  0.39574438  1
  O  O411  1  0.63315515  0.12838920  0.88051613  1
  O  O412  1  0.60947713  0.62512929  0.39267426  1
  O  O413  1  0.61794971  0.63290124  0.87522098  1
