# generated using pymatgen
data_V79Zn79O256
_symmetry_space_group_name_H-M   'P 1'
_cell_length_a   16.86993852
_cell_length_b   16.86702450
_cell_length_c   16.86614698
_cell_angle_alpha   89.94917767
_cell_angle_beta   90.00056353
_cell_angle_gamma   89.98735211
_symmetry_Int_Tables_number   1
_chemical_formula_structural   V79Zn79O256
_chemical_formula_sum   'V79 Zn79 O256'
_cell_volume   4799.18702745
_cell_formula_units_Z   1
loop_
 _symmetry_equiv_pos_site_id
 _symmetry_equiv_pos_as_xyz
  1  'x, y, z'
loop_
 _atom_site_type_symbol
 _atom_site_label
 _atom_site_symmetry_multiplicity
 _atom_site_fract_x
 _atom_site_fract_y
 _atom_site_fract_z
 _atom_site_occupancy
  V  V0  1  0.24969333  0.76227869  0.00716677  1
  V  V1  1  0.73169263  0.37676609  0.63050191  1
  V  V2  1  0.86947153  0.12050480  0.74757424  1
  V  V3  1  0.75457464  0.75394108  0.50907539  1
  V  V4  1  0.00067852  0.24970995  0.75013722  1
  V  V5  1  0.51057875  0.61778156  0.61105649  1
  V  V6  1  0.87312447  0.00802142  0.37690279  1
  V  V7  1  0.50559847  0.72638564  0.25397243  1
  V  V8  1  -0.00690024  0.37982488  0.37484646  1
  V  V9  1  0.37000152  0.61811451  0.74071220  1
  V  V10  1  0.63212275  0.12103513  0.49618968  1
  V  V11  1  0.00749830  0.25620733  0.24749609  1
  V  V12  1  0.75399477  0.25767101  -0.00087211  1
  V  V13  1  -0.00501641  0.74981073  0.23781469  1
  V  V14  1  0.76516893  0.61901008  0.38224526  1
  V  V15  1  0.87104250  0.87633374  0.00645752  1
  V  V16  1  0.74853457  0.73503459  0.00163649  1
  V  V17  1  -0.00414629  0.87413947  0.87491031  1
  V  V18  1  -0.00569484  0.63294829  0.63471584  1
  V  V19  1  0.25687880  0.11483294  0.37937729  1
  V  V20  1  0.62560427  0.87481328  0.25127864  1
  V  V21  1  0.11975541  0.62337916  0.00378022  1
  V  V22  1  0.86978879  0.50363818  0.87275428  1
  V  V23  1  0.34567861  0.61948922  0.25264913  1
  V  V24  1  0.63144052  0.24119560  0.37253417  1
  V  V25  1  0.01329422  0.12447441  0.62068794  1
  V  V26  1  0.48809635  0.75737661  0.74006742  1
  V  V27  1  0.63819767  -0.00296608  0.62510464  1
  V  V28  1  0.38116293  0.37620111  0.50385769  1
  V  V29  1  0.12484639  0.63018251  0.49859025  1
  V  V30  1  0.37187915  0.00119175  0.88516066  1
  V  V31  1  0.24937856  0.37752087  0.12167429  1
  V  V32  1  0.62459963  0.73933159  0.87738814  1
  V  V33  1  0.49745668  0.37971276  0.37233013  1
  V  V34  1  -0.00757698  0.37166397  0.87878359  1
  V  V35  1  0.11785236  0.87595230  0.73932470  1
  V  V36  1  0.51339077  0.26232357  0.76319333  1
  V  V37  1  0.74732134  0.12298236  0.87151798  1
  V  V38  1  0.87448674  0.00021760  0.87628212  1
  V  V39  1  0.63317667  0.74904471  0.38371055  1
  V  V40  1  0.12623162  0.88523394  0.23558710  1
  V  V41  1  0.62979153  0.37530723  0.24280954  1
  V  V42  1  0.12300636  0.11297853  -0.00444946  1
  V  V43  1  0.87331185  0.12713099  0.24861796  1
  V  V44  1  0.50124451  0.24581005  0.24674446  1
  V  V45  1  0.62455748  -0.00451456  0.12004332  1
  V  V46  1  0.75986469  0.49827715  0.24794117  1
  V  V47  1  0.75058840  0.00283242  0.25192875  1
  V  V48  1  0.61962725  0.51196488  0.12489431  1
  V  V49  1  0.73485773  0.50188265  0.75037669  1
  V  V50  1  0.49896670  0.11876755  0.11588286  1
  V  V51  1  0.26858476  0.87332519  0.62325758  1
  V  V52  1  0.25224289  0.00461215  0.74848926  1
  V  V53  1  0.48490694  -0.00417598  0.50101217  1
  V  V54  1  0.63310150  0.87996328  0.74660504  1
  V  V55  1  0.87404516  0.25678368  0.62271736  1
  V  V56  1  -0.00681769  0.49566102  0.00334060  1
  V  V57  1  0.12589236  0.49661002  0.12456190  1
  V  V58  1  0.24745476  0.62081157  0.87055495  1
  V  V59  1  0.18138895  0.42901432  0.30349823  1
  V  V60  1  0.13085802  0.38133352  0.74870436  1
  V  V61  1  0.26188267  0.75166275  0.50141329  1
  V  V62  1  0.37831629  0.49660465  0.88782217  1
  V  V63  1  0.11650743  0.74929877  0.86976211  1
  V  V64  1  0.62661747  0.12328787  -0.00475831  1
  V  V65  1  0.01539444  0.00717419  0.50241352  1
  V  V66  1  0.00257986  0.87812749  0.37728899  1
  V  V67  1  0.25779357  0.24722917  0.50737168  1
  V  V68  1  0.13180205  0.75303647  0.37642820  1
  V  V69  1  0.49307157  0.87894707  0.89078821  1
  V  V70  1  0.87265896  0.87838583  0.50854569  1
  V  V71  1  0.25252029  0.00001764  0.23285807  1
  V  V72  1  0.12773513  0.24173694  0.37852443  1
  V  V73  1  0.37497048  0.25408077  0.11948766  1
  V  V74  1  0.87375581  0.26343634  0.12049486  1
  V  V75  1  0.00505988  0.11376854  0.12063123  1
  V  V76  1  0.24718389  0.24883660  -0.00752471  1
  V  V77  1  -0.00543976  0.50171639  0.49872713  1
  V  V78  1  0.48610971  0.87804987  0.37486973  1
  Zn  Zn79  1  0.13050369  0.50862773  0.63399168  1
  Zn  Zn80  1  0.88074606  0.62916014  0.23637716  1
  Zn  Zn81  1  0.86783856  0.63452643  0.75863670  1
  Zn  Zn82  1  0.75201419  0.86660715  0.12710837  1
  Zn  Zn83  1  0.36099264  0.50027106  0.36795921  1
  Zn  Zn84  1  0.49079451  0.13613660  0.62608305  1
  Zn  Zn85  1  0.12792977  0.24550038  0.87336778  1
  Zn  Zn86  1  0.37569671  0.13671300  0.74794090  1
  Zn  Zn87  1  0.39491081  0.74677198  0.10924719  1
  Zn  Zn88  1  0.26956397  0.37866996  0.64364043  1
  Zn  Zn89  1  0.87417562  0.76285188  0.64157785  1
  Zn  Zn90  1  0.38054786  0.11213997  0.25057506  1
  Zn  Zn91  1  0.49910802  0.52151609  0.00423098  1
  Zn  Zn92  1  0.74978002  0.25160312  0.49583870  1
  Zn  Zn93  1  0.86905028  0.38235834  0.49809481  1
  Zn  Zn94  1  0.18827213  0.18410971  0.18589682  1
  Zn  Zn95  1  0.19108097  0.19181974  0.68846602  1
  Zn  Zn96  1  0.17648568  0.69120082  0.18630925  1
  Zn  Zn97  1  0.18702915  0.69291244  0.68388557  1
  Zn  Zn98  1  0.68903276  0.18630921  0.18114220  1
  Zn  Zn99  1  0.67716436  0.18898042  0.68606515  1
  Zn  Zn100  1  0.69597761  0.68667598  0.19481308  1
  Zn  Zn101  1  0.68381706  0.68763342  0.69036295  1
  Zn  Zn102  1  0.31775033  0.29890254  0.31259163  1
  Zn  Zn103  1  0.32651357  0.31141064  0.81569619  1
  Zn  Zn104  1  0.33310496  0.82755104  0.26215941  1
  Zn  Zn105  1  0.30713818  0.81430005  0.81676038  1
  Zn  Zn106  1  0.81492385  0.31252140  0.30935765  1
  Zn  Zn107  1  0.80675967  0.31227157  0.81202261  1
  Zn  Zn108  1  0.81526684  0.81606842  0.31763451  1
  Zn  Zn109  1  0.80876981  0.81087389  0.81715268  1
  Zn  Zn110  1  0.20912315  0.45548529  0.48585473  1
  Zn  Zn111  1  0.18693247  0.43417339  0.93572789  1
  Zn  Zn112  1  0.19414972  0.93251116  0.43676019  1
  Zn  Zn113  1  0.18485818  0.93880006  0.93148362  1
  Zn  Zn114  1  0.68422654  0.43928390  0.44574544  1
  Zn  Zn115  1  0.68482227  0.44415601  0.94049217  1
  Zn  Zn116  1  0.68835646  0.93689003  0.43817316  1
  Zn  Zn117  1  0.68710287  0.93448981  0.93304994  1
  Zn  Zn118  1  0.31026608  0.06578725  0.05957243  1
  Zn  Zn119  1  0.30724596  0.06151624  0.56836284  1
  Zn  Zn120  1  0.31151426  0.57293303  0.06583455  1
  Zn  Zn121  1  0.31747258  0.56171922  0.56157319  1
  Zn  Zn122  1  0.81314951  0.06345197  0.06294334  1
  Zn  Zn123  1  0.81603334  0.06541389  0.56338802  1
  Zn  Zn124  1  0.81435791  0.55835855  0.06689703  1
  Zn  Zn125  1  0.81015054  0.56231585  0.56886582  1
  Zn  Zn126  1  0.43447529  0.44371123  0.18865636  1
  Zn  Zn127  1  0.45281977  0.43724029  0.68968987  1
  Zn  Zn128  1  0.43961316  0.92885893  0.17129716  1
  Zn  Zn129  1  0.44010902  0.94564104  0.68830334  1
  Zn  Zn130  1  0.93915748  0.43953710  0.18626311  1
  Zn  Zn131  1  0.93996915  0.44295510  0.68716605  1
  Zn  Zn132  1  0.93849147  0.93571743  0.18800859  1
  Zn  Zn133  1  0.94076791  0.94395836  0.68764860  1
  Zn  Zn134  1  0.06406956  0.06624708  0.31237802  1
  Zn  Zn135  1  0.06140636  0.05881819  0.81156379  1
  Zn  Zn136  1  0.05997565  0.56856389  0.31633986  1
  Zn  Zn137  1  0.05903298  0.55986955  0.81678937  1
  Zn  Zn138  1  0.56024020  0.05939555  0.31320034  1
  Zn  Zn139  1  0.55546310  0.06486651  0.81131796  1
  Zn  Zn140  1  0.58179086  0.55140417  0.34361870  1
  Zn  Zn141  1  0.55178587  0.56219730  0.80637812  1
  Zn  Zn142  1  0.43959183  0.18299202  0.43845404  1
  Zn  Zn143  1  0.43348813  0.18434052  0.93141416  1
  Zn  Zn144  1  0.43513176  0.68353857  0.42633883  1
  Zn  Zn145  1  0.43212436  0.69138141  0.92938987  1
  Zn  Zn146  1  0.93904950  0.19099744  0.43860391  1
  Zn  Zn147  1  0.93620354  0.18589102  0.93867936  1
  Zn  Zn148  1  0.93837755  0.69085186  0.43776138  1
  Zn  Zn149  1  0.93421452  0.68708689  0.94465093  1
  Zn  Zn150  1  0.06481610  0.31121253  0.06430744  1
  Zn  Zn151  1  0.06570415  0.31279426  0.56109009  1
  Zn  Zn152  1  0.06257876  0.81650071  0.05613420  1
  Zn  Zn153  1  0.05800713  0.81314513  0.56112157  1
  Zn  Zn154  1  0.56986047  0.30976090  0.06026399  1
  Zn  Zn155  1  0.55791938  0.30734316  0.56297899  1
  Zn  Zn156  1  0.56785987  0.69078652  0.06379156  1
  Zn  Zn157  1  0.55987117  0.81399185  0.56135057  1
  O  O158  1  0.11110836  0.12957443  0.11729163  1
  O  O159  1  0.11225637  0.13269986  0.62734494  1
  O  O160  1  0.12975507  0.60992514  0.11550305  1
  O  O161  1  0.11483164  0.62929061  0.61751540  1
  O  O162  1  0.61894336  0.11514376  0.11808904  1
  O  O163  1  0.62066579  0.10969633  0.61672424  1
  O  O164  1  0.62459486  0.61553418  0.13565178  1
  O  O165  1  0.61008259  0.63068319  0.62553921  1
  O  O166  1  0.38726247  0.36644225  0.37560985  1
  O  O167  1  0.36431040  0.39857782  0.87619100  1
  O  O168  1  0.38874695  0.86784135  0.36250271  1
  O  O169  1  0.38539189  0.88029306  0.87154481  1
  O  O170  1  0.88869244  0.36558032  0.38070555  1
  O  O171  1  0.88556599  0.38219389  0.86819811  1
  O  O172  1  0.88617714  0.88828746  0.38146469  1
  O  O173  1  0.87797909  0.88291589  0.87887477  1
  O  O174  1  0.24761645  0.01271002  0.37511512  1
  O  O175  1  0.26125801  -0.01417052  0.85958354  1
  O  O176  1  0.23693768  0.48051358  0.37216564  1
  O  O177  1  0.25440502  0.51442206  0.88077502  1
  O  O178  1  0.76159003  -0.00292431  0.36431312  1
  O  O179  1  0.76153815  0.01004109  0.87531418  1
  O  O180  1  0.75152972  0.51414925  0.36961765  1
  O  O181  1  0.76055571  0.48814672  0.86479884  1
  O  O182  1  0.24087280  0.48819254  0.11580316  1
  O  O183  1  0.23933254  0.48373177  0.59950472  1
  O  O184  1  0.24240728  1.00843172  0.13472896  1
  O  O185  1  0.24900546  0.98377419  0.63535144  1
  O  O186  1  0.73957032  0.50305481  0.14261801  1
  O  O187  1  0.75343211  0.48693293  0.63701702  1
  O  O188  1  0.74397621  0.99834574  0.13613546  1
  O  O189  1  0.73788088  1.00065533  0.62339614  1
  O  O190  1  -0.00579970  0.36385538  0.25792148  1
  O  O191  1  0.00686779  0.36675200  0.75675495  1
  O  O192  1  0.00932450  0.87412322  0.25779188  1
  O  O193  1  0.01079985  0.87986005  0.75682615  1
  O  O194  1  0.50473285  0.36180529  0.25283030  1
  O  O195  1  0.50322420  0.36525105  0.75497190  1
  O  O196  1  0.51140692  0.87437676  0.26324582  1
  O  O197  1  0.50324160  0.86484699  0.74904080  1
  O  O198  1  0.50275681  0.13090067  0.23811208  1
  O  O199  1  0.49770457  0.13499865  0.74751063  1
  O  O200  1  0.52052561  0.62981404  0.27056537  1
  O  O201  1  0.48786032  0.63802859  0.74245675  1
  O  O202  1  0.99392874  0.13306044  0.24022115  1
  O  O203  1  0.99283848  0.13127000  0.74302651  1
  O  O204  1  1.00292777  0.64633442  0.25664167  1
  O  O205  1  1.00327736  0.62081218  0.73675722  1
  O  O206  1  0.35994357  0.23798778  0.00961375  1
  O  O207  1  0.36706620  0.25582132  0.49504557  1
  O  O208  1  0.35403024  0.74690080  -0.00214567  1
  O  O209  1  0.35942852  0.74766765  0.49132923  1
  O  O210  1  0.86445880  0.24492512  0.00688473  1
  O  O211  1  0.87059976  0.25107631  0.51060488  1
  O  O212  1  0.85819067  0.76241582  -0.01199952  1
  O  O213  1  0.87155640  0.76370983  0.50116255  1
  O  O214  1  0.14159320  0.26022529  0.48766929  1
  O  O215  1  0.13444776  0.24394167  0.99831240  1
  O  O216  1  0.12608413  0.74731624  0.49418334  1
  O  O217  1  0.12525308  0.74185705  0.99001990  1
  O  O218  1  0.62199371  0.23906225  0.48915349  1
  O  O219  1  0.64098805  0.23317234  1.00845335  1
  O  O220  1  0.63937274  0.76442489  0.49217533  1
  O  O221  1  0.63285701  0.74917020  0.98694821  1
  O  O222  1  0.49575222  0.24377134  0.12681471  1
  O  O223  1  0.50928329  0.24846249  0.64225815  1
  O  O224  1  0.50996543  0.74324868  0.15114697  1
  O  O225  1  0.50013144  0.74774010  0.63701841  1
  O  O226  1  0.99374995  0.24626966  0.13165065  1
  O  O227  1  0.99326125  0.24527104  0.63046167  1
  O  O228  1  1.00754559  0.75675620  0.13874169  1
  O  O229  1  0.99505580  0.73699970  0.62064534  1
  O  O230  1  0.00989434  0.25672893  0.37054911  1
  O  O231  1  -0.00441556  0.25486008  0.86545018  1
  O  O232  1  0.00778406  0.76509645  0.37236389  1
  O  O233  1  0.00704940  0.75668040  0.87784255  1
  O  O234  1  0.50685354  0.24884545  0.36097816  1
  O  O235  1  0.49670705  0.24676401  0.86597525  1
  O  O236  1  0.51292651  0.76089274  0.37182316  1
  O  O237  1  0.50731502  0.76230006  0.86536828  1
  O  O238  1  0.25630297  0.13491453  0.48977403  1
  O  O239  1  0.23274978  0.13694639  1.00911252  1
  O  O240  1  0.23926917  0.64179842  0.50939705  1
  O  O241  1  0.23511716  0.63196617  0.99034027  1
  O  O242  1  0.73704890  0.12805524  0.50313097  1
  O  O243  1  0.74554065  0.12775759  0.99113318  1
  O  O244  1  0.76335728  0.63351618  0.48874433  1
  O  O245  1  0.75598763  0.63610248  0.99830183  1
  O  O246  1  0.24426199  0.35959771  0.00904974  1
  O  O247  1  0.26797060  0.35698466  0.49020518  1
  O  O248  1  0.23747538  0.86099685  -0.00538970  1
  O  O249  1  0.24704003  0.86792066  0.51460827  1
  O  O250  1  0.74223207  0.35601124  -0.00900491  1
  O  O251  1  0.75112271  0.37665895  0.51345335  1
  O  O252  1  0.75966290  0.87084656  0.00055352  1
  O  O253  1  0.76351489  0.86887981  0.49401311  1
  O  O254  1  0.12541415  0.49752546  0.24593340  1
  O  O255  1  0.12349876  0.48567492  0.75363343  1
  O  O256  1  0.13027095  0.99124789  0.25381281  1
  O  O257  1  0.13723382  0.98371795  0.76044570  1
  O  O258  1  0.63282563  0.49221146  0.24695569  1
  O  O259  1  0.63611423  0.49809347  0.76236408  1
  O  O260  1  0.63392831  0.99652637  0.24620673  1
  O  O261  1  0.61568921  0.99064231  0.73591208  1
  O  O262  1  0.35751749  -0.00473812  0.24212301  1
  O  O263  1  0.36054633  -0.00358182  0.75490669  1
  O  O264  1  0.36231465  0.51287940  0.24544088  1
  O  O265  1  0.37882713  0.51555392  0.75810559  1
  O  O266  1  0.87102221  0.00621931  0.25592908  1
  O  O267  1  0.87789526  0.01288224  0.75673046  1
  O  O268  1  0.86231039  0.49554949  0.24977590  1
  O  O269  1  0.87299504  0.50239860  0.76308222  1
  O  O270  1  0.12057435  0.36737835  0.36177665  1
  O  O271  1  0.11457157  0.37080316  0.86502577  1
  O  O272  1  0.11519184  0.87324250  0.37167897  1
  O  O273  1  0.11296045  0.86767275  0.87044418  1
  O  O274  1  0.61107024  0.36157949  0.36402056  1
  O  O275  1  0.58321318  0.38401630  0.91437780  1
  O  O276  1  0.62646241  0.86943579  0.36564566  1
  O  O277  1  0.61058881  0.87845040  0.86250298  1
  O  O278  1  0.38482582  0.13061420  0.12489231  1
  O  O279  1  0.37776321  0.11617562  0.63325164  1
  O  O280  1  0.36363221  0.63703479  0.14582835  1
  O  O281  1  0.37692683  0.62492398  0.63708398  1
  O  O282  1  0.88676063  0.13112131  0.13073749  1
  O  O283  1  0.87822690  0.13606802  0.63265564  1
  O  O284  1  0.88769046  0.61457492  0.12623950  1
  O  O285  1  0.88813560  0.62416990  0.62964300  1
  O  O286  1  0.25605166  0.25647905  0.12200265  1
  O  O287  1  0.24704929  0.25574662  0.60992457  1
  O  O288  1  0.23508680  0.74895920  0.10702909  1
  O  O289  1  0.24835364  0.76294403  0.61451505  1
  O  O290  1  0.76019544  0.24307704  0.11124002  1
  O  O291  1  0.75454541  0.26342737  0.62704018  1
  O  O292  1  0.73877410  0.75073044  0.10789317  1
  O  O293  1  0.75381615  0.74190885  0.61254064  1
  O  O294  1  0.24444435  0.23766368  0.37770103  1
  O  O295  1  0.25242837  0.25178079  0.89036378  1
  O  O296  1  0.23590583  0.76540014  0.39144038  1
  O  O297  1  0.23700832  0.74234121  0.88182837  1
  O  O298  1  0.73575688  0.25564912  0.37369577  1
  O  O299  1  0.75936703  0.23575546  0.88716254  1
  O  O300  1  0.75168648  0.74637094  0.38499217  1
  O  O301  1  0.73144966  0.75577457  0.88376963  1
  O  O302  1  0.00771661  0.12939593  0.01188405  1
  O  O303  1  -0.00358788  0.11957520  0.50781024  1
  O  O304  1  0.01091959  0.61229345  -0.00685962  1
  O  O305  1  0.00498503  0.62179638  0.50637669  1
  O  O306  1  0.50986316  0.12971300  0.00887163  1
  O  O307  1  0.50916282  0.10896014  0.49719422  1
  O  O308  1  0.49066659  0.63570477  0.00599648  1
  O  O309  1  0.49144842  0.63772383  0.51334775  1
  O  O310  1  0.49081861  0.36549153  0.48357011  1
  O  O311  1  0.53306903  0.38549273  0.97593588  1
  O  O312  1  0.50093963  0.88215277  0.48593620  1
  O  O313  1  0.50114464  0.87223284  0.98639994  1
  O  O314  1  1.00409951  0.38393347  0.49162713  1
  O  O315  1  1.00744229  0.38224044  0.98958875  1
  O  O316  1  0.99361742  0.88613593  0.49373064  1
  O  O317  1  0.98282024  0.86767571  0.98844276  1
  O  O318  1  0.48731384  0.47807263  0.35357559  1
  O  O319  1  0.48291539  0.51164435  0.88154511  1
  O  O320  1  0.50246011  0.98743082  0.38352648  1
  O  O321  1  0.48566112  0.98818954  0.86985256  1
  O  O322  1  1.00566465  0.48959681  0.38064853  1
  O  O323  1  0.99070848  0.49103582  0.88223441  1
  O  O324  1  0.99340984  0.99785683  0.38040664  1
  O  O325  1  0.98763732  0.98840778  0.87185988  1
  O  O326  1  -0.00244694  0.01483523  0.12837567  1
  O  O327  1  -0.00429118  0.01337047  0.61482110  1
  O  O328  1  0.01358876  0.48726839  0.11494527  1
  O  O329  1  0.00678528  0.51080780  0.61725060  1
  O  O330  1  0.50990829  0.00799959  0.13071838  1
  O  O331  1  0.50842108  -0.00727720  0.60725261  1
  O  O332  1  0.51434177  0.49437180  0.12297862  1
  O  O333  1  0.49698117  0.51794187  0.62492034  1
  O  O334  1  0.24679137  0.37160435  0.24637782  1
  O  O335  1  0.23456129  0.36273935  0.75423049  1
  O  O336  1  0.23436751  0.88845731  0.25572076  1
  O  O337  1  0.24133204  0.87545887  0.73744568  1
  O  O338  1  0.74206687  0.38900947  0.26236954  1
  O  O339  1  0.75026913  0.38252710  0.73913335  1
  O  O340  1  0.74567958  0.88316738  0.24886200  1
  O  O341  1  0.73137314  0.87633985  0.75656552  1
  O  O342  1  0.24730228  0.11255981  0.25850370  1
  O  O343  1  0.24371057  0.10709896  0.74574836  1
  O  O344  1  0.24652759  0.63502300  0.25869974  1
  O  O345  1  0.26041110  0.63432215  0.75444601  1
  O  O346  1  0.76282611  0.11721507  0.24279957  1
  O  O347  1  0.76056767  0.13523631  0.75744966  1
  O  O348  1  0.75704293  0.61527040  0.26079716  1
  O  O349  1  0.75032658  0.60577712  0.74222369  1
  O  O350  1  0.36128476  0.12914656  0.36790613  1
  O  O351  1  0.37478371  0.10503594  0.86901567  1
  O  O352  1  0.37308063  0.61600895  0.35992523  1
  O  O353  1  0.36359172  0.62154062  0.86413820  1
  O  O354  1  0.88396317  0.11872744  0.36232346  1
  O  O355  1  0.87096199  0.11797811  0.86824255  1
  O  O356  1  0.86784327  0.63305322  0.36492665  1
  O  O357  1  0.88016517  0.60782180  0.87626292  1
  O  O358  1  0.13593672  0.38202777  0.12632378  1
  O  O359  1  0.12086513  0.37362653  0.64304513  1
  O  O360  1  0.11816383  0.88026242  0.13682435  1
  O  O361  1  0.12072295  0.87304527  0.63803210  1
  O  O362  1  0.62382115  0.38031234  0.13805763  1
  O  O363  1  0.63371080  0.37713927  0.62042788  1
  O  O364  1  0.62568816  0.88594507  0.14077168  1
  O  O365  1  0.62329675  0.88347367  0.63467453  1
  O  O366  1  0.11440638  0.24300478  0.25739027  1
  O  O367  1  0.11378232  0.25410317  0.75291737  1
  O  O368  1  0.11777552  0.76630763  0.25732541  1
  O  O369  1  0.13028583  0.76447358  0.75927189  1
  O  O370  1  0.62066933  0.25223235  0.25029118  1
  O  O371  1  0.61726624  0.24686748  0.76006564  1
  O  O372  1  0.62410639  0.75794556  0.26062766  1
  O  O373  1  0.61628291  0.76217987  0.75739417  1
  O  O374  1  0.38571817  0.24206100  0.23717162  1
  O  O375  1  0.38778520  0.25088927  0.74869662  1
  O  O376  1  0.39682878  0.72711350  0.26518736  1
  O  O377  1  0.38480870  0.74419487  0.75720730  1
  O  O378  1  0.88165754  0.24298679  0.24270129  1
  O  O379  1  0.88364777  0.24378029  0.74333694  1
  O  O380  1  0.89176142  0.76081475  0.25131834  1
  O  O381  1  0.87071534  0.74698334  0.75295952  1
  O  O382  1  0.36473051  0.48059812  0.48564426  1
  O  O383  1  0.37384127  0.50810678  0.99248412  1
  O  O384  1  0.38646472  1.00098224  0.50060225  1
  O  O385  1  0.36307503  0.99818801  0.98548129  1
  O  O386  1  0.88968494  0.50076581  0.50540739  1
  O  O387  1  0.88204575  0.49760474  0.98799818  1
  O  O388  1  0.87910574  0.99803432  0.49127326  1
  O  O389  1  0.86997407  0.98750940  0.99105033  1
  O  O390  1  0.12901112  0.01349708  -0.00222490  1
  O  O391  1  0.11376266  -0.00330586  0.49461595  1
  O  O392  1  0.11717005  0.50418499  0.00431560  1
  O  O393  1  0.11259657  0.51643701  0.49854340  1
  O  O394  1  0.63448021  0.00659766  0.01208477  1
  O  O395  1  0.62329161  0.00181099  0.50830551  1
  O  O396  1  0.63366678  0.50573301  0.02232195  1
  O  O397  1  0.60135878  0.50969862  0.44911871  1
  O  O398  1  0.36640738  0.36391432  0.13012935  1
  O  O399  1  0.38284238  0.38076465  0.60748218  1
  O  O400  1  0.36855555  0.84766891  0.15443829  1
  O  O401  1  0.36695933  0.87344090  0.62761490  1
  O  O402  1  0.87571209  0.36303276  0.12630017  1
  O  O403  1  0.87530112  0.36516709  0.62549199  1
  O  O404  1  0.87516404  0.87882752  0.11026796  1
  O  O405  1  0.88180937  0.87952012  0.61329399  1
  O  O406  1  0.13567325  0.13359365  0.37446097  1
  O  O407  1  0.11278210  0.12784854  0.89018464  1
  O  O408  1  0.11904655  0.64038006  0.38670840  1
  O  O409  1  0.12779856  0.63051512  0.87828290  1
  O  O410  1  0.62130918  0.13006798  0.38081320  1
  O  O411  1  0.63475303  0.10891900  0.88510654  1
  O  O412  1  0.64915092  0.64406025  0.37211540  1
  O  O413  1  0.61715209  0.64174975  0.86499312  1
