# generated using pymatgen
data_V79Zn79O256
_symmetry_space_group_name_H-M   'P 1'
_cell_length_a   16.91375122
_cell_length_b   16.91077426
_cell_length_c   16.95240737
_cell_angle_alpha   90.00675418
_cell_angle_beta   90.14727469
_cell_angle_gamma   89.82856142
_symmetry_Int_Tables_number   1
_chemical_formula_structural   V79Zn79O256
_chemical_formula_sum   'V79 Zn79 O256'
_cell_volume   4848.76827059
_cell_formula_units_Z   1
loop_
 _symmetry_equiv_pos_site_id
 _symmetry_equiv_pos_as_xyz
  1  'x, y, z'
loop_
 _atom_site_type_symbol
 _atom_site_label
 _atom_site_symmetry_multiplicity
 _atom_site_fract_x
 _atom_site_fract_y
 _atom_site_fract_z
 _atom_site_occupancy
  V  V0  1  0.50401028  0.25236762  0.25275705  1
  V  V1  1  0.36857356  0.50421789  0.88543078  1
  V  V2  1  0.50222911  0.00311097  0.51093493  1
  V  V3  1  0.25163894  0.25136942  0.50470226  1
  V  V4  1  0.36036185  0.36628351  0.00494982  1
  V  V5  1  0.12514076  0.37441267  0.75361708  1
  V  V6  1  0.24916158  0.12266580  0.37519617  1
  V  V7  1  0.38092770  0.62906852  0.24360310  1
  V  V8  1  0.06802571  0.67645253  0.44932571  1
  V  V9  1  0.63052174  0.00087863  0.62461503  1
  V  V10  1  0.62676908  0.25172189  0.37876969  1
  V  V11  1  0.00137041  0.12466713  0.62571452  1
  V  V12  1  0.23739397  0.00892006  0.75353679  1
  V  V13  1  0.50427154  0.12426291  0.11750469  1
  V  V14  1  0.13217621  0.62623563  -0.00063426  1
  V  V15  1  0.25179436  0.37404453  0.62852247  1
  V  V16  1  -0.01830394  0.62664132  0.12385510  1
  V  V17  1  0.74029370  0.24485794  0.00031916  1
  V  V18  1  0.73336343  0.37576454  0.13183951  1
  V  V19  1  0.50249676  0.37644825  0.37412932  1
  V  V20  1  0.13987438  0.38245106  0.24847128  1
  V  V21  1  0.86602558  0.62155386  0.75260544  1
  V  V22  1  0.87387863  0.12523700  0.25533993  1
  V  V23  1  0.74623214  0.50110131  0.26624152  1
  V  V24  1  0.50000516  0.50964843  0.50625313  1
  V  V25  1  0.86898299  0.37815762  0.49496998  1
  V  V26  1  0.12393081  0.25525842  0.37537405  1
  V  V27  1  0.37122600  0.50210633  0.37372308  1
  V  V28  1  0.24836981  0.74869820  0.49861070  1
  V  V29  1  0.12306468  0.50476153  0.62635400  1
  V  V30  1  0.37500077  0.37251590  0.50763413  1
  V  V31  1  0.62433034  0.87060600  0.74624037  1
  V  V32  1  0.11951283  0.86529455  0.74999095  1
  V  V33  1  0.87508026  0.61701140  0.27506436  1
  V  V34  1  0.63601865  0.75089794  0.87896810  1
  V  V35  1  0.86337125  0.86552489  0.00772936  1
  V  V36  1  0.13202065  0.24867252  0.88446652  1
  V  V37  1  0.61938302  0.24782374  0.87157065  1
  V  V38  1  0.24470320  0.88209373  0.62790671  1
  V  V39  1  0.13335025  0.12196864  0.00633669  1
  V  V40  1  0.50263636  0.74973234  0.23596582  1
  V  V41  1  0.12308955  0.12289253  0.50452745  1
  V  V42  1  0.75263978  0.60544307  0.87805689  1
  V  V43  1  -0.00225290  0.63460435  0.63815851  1
  V  V44  1  0.87278702  0.25134024  0.12387231  1
  V  V45  1  0.74568036  0.12387178  0.87565405  1
  V  V46  1  0.75224654  0.12791964  0.38082875  1
  V  V47  1  0.62503747  0.50358138  0.63845486  1
  V  V48  1  -0.00444289  -0.00556657  0.49878555  1
  V  V49  1  0.49441773  0.25626173  0.73818376  1
  V  V50  1  0.50389928  0.74087053  0.75004880  1
  V  V51  1  0.74862835  0.38403009  0.64221105  1
  V  V52  1  -0.00770043  0.37607194  0.87752590  1
  V  V53  1  -0.00138268  0.86688138  0.87888638  1
  V  V54  1  0.87117599  0.12358233  0.75215112  1
  V  V55  1  0.37423707  0.87676577  0.50636759  1
  V  V56  1  0.62457026  0.12882638  0.50497890  1
  V  V57  1  0.37395173  0.12444469  0.25271700  1
  V  V58  1  0.13029732  -0.00991888  0.14190311  1
  V  V59  1  0.36129736  0.25112405  0.12466709  1
  V  V60  1  0.37339401  0.00079538  0.37584454  1
  V  V61  1  0.37070210  0.62337031  0.75223402  1
  V  V62  1  0.61915412  0.61764722  0.00834459  1
  V  V63  1  0.64433320  0.87880710  0.25620822  1
  V  V64  1  0.50242382  0.37900309  0.88348800  1
  V  V65  1  -0.01533018  0.49715363  -0.00025477  1
  V  V66  1  0.38007334  0.74338805  0.62870413  1
  V  V67  1  0.76226870  0.85877010  0.61304678  1
  V  V68  1  -0.00127870  0.25663923  0.25019121  1
  V  V69  1  0.86629567  0.25282452  0.62279413  1
  V  V70  1  0.25291113  0.62839641  0.37828703  1
  V  V71  1  -0.00023687  0.25034496  0.75328168  1
  V  V72  1  0.26562433  0.85957569  0.11578969  1
  V  V73  1  0.38279143  0.12586883  0.73659088  1
  V  V74  1  0.13431442  0.49589100  0.12569163  1
  V  V75  1  0.87544228  -0.01210118  0.37561513  1
  V  V76  1  0.00271386  0.49661571  0.49508032  1
  V  V77  1  0.50046588  0.87059386  0.37854493  1
  V  V78  1  0.64407463  0.62579744  0.49801788  1
  Zn  Zn79  1  0.62519724  0.74449890  0.38439085  1
  Zn  Zn80  1  0.38318867  -0.00450322  0.87977926  1
  Zn  Zn81  1  0.25890870  0.12931991  0.88397568  1
  Zn  Zn82  1  -0.00183516  0.12268841  0.12347461  1
  Zn  Zn83  1  0.60576392  0.50790223  0.13251513  1
  Zn  Zn84  1  -0.00050039  0.00117438  0.00102982  1
  Zn  Zn85  1  0.13521600  0.74241895  0.88257361  1
  Zn  Zn86  1  0.63538073  -0.01726465  0.12116616  1
  Zn  Zn87  1  0.86537257  0.37420962  -0.00420225  1
  Zn  Zn88  1  0.75139851  -0.00807609  0.75117777  1
  Zn  Zn89  1  0.11644309  0.83392756  0.26505595  1
  Zn  Zn90  1  0.50044054  -0.00575093  -0.00816714  1
  Zn  Zn91  1  0.24708193  0.50457287  0.75539233  1
  Zn  Zn92  1  -0.00423338  0.38464044  0.36917450  1
  Zn  Zn93  1  0.87521599  -0.00320975  0.87759858  1
  Zn  Zn94  1  0.18325610  0.18520601  0.19188421  1
  Zn  Zn95  1  0.18627692  0.19143479  0.68948293  1
  Zn  Zn96  1  0.21356252  0.71415077  0.18898867  1
  Zn  Zn97  1  0.19063228  0.68867145  0.68889891  1
  Zn  Zn98  1  0.70828682  0.14877570  0.16738091  1
  Zn  Zn99  1  0.68358248  0.19264932  0.68885352  1
  Zn  Zn100  1  0.69454923  0.69137385  0.19527805  1
  Zn  Zn101  1  0.69370830  0.68370659  0.68515798  1
  Zn  Zn102  1  0.31535095  0.31055482  0.31767089  1
  Zn  Zn103  1  0.31614440  0.31320754  0.81282943  1
  Zn  Zn104  1  0.31097948  0.81692984  0.30642808  1
  Zn  Zn105  1  0.30896001  0.81563155  0.83916299  1
  Zn  Zn106  1  0.80651506  0.31347919  0.31236725  1
  Zn  Zn107  1  0.80966491  0.31029307  0.81232728  1
  Zn  Zn108  1  0.86940363  0.76717011  0.15609514  1
  Zn  Zn109  1  0.81516143  0.80398003  0.80338501  1
  Zn  Zn110  1  0.18571684  0.44009519  0.43677185  1
  Zn  Zn111  1  0.18297946  0.44048873  0.93981742  1
  Zn  Zn112  1  0.18290942  0.93469489  0.43145817  1
  Zn  Zn113  1  0.18795156  0.93717587  0.93861082  1
  Zn  Zn114  1  0.68462132  0.43710094  0.44782315  1
  Zn  Zn115  1  0.68242916  0.43490250  0.94244258  1
  Zn  Zn116  1  0.69275539  0.93722239  0.43514964  1
  Zn  Zn117  1  0.68073475  0.93774064  0.93700503  1
  Zn  Zn118  1  0.31408399  0.04718501  0.06536399  1
  Zn  Zn119  1  0.31267889  0.06327102  0.56615346  1
  Zn  Zn120  1  0.31632274  0.56192741  0.06357623  1
  Zn  Zn121  1  0.31089578  0.56148664  0.56330674  1
  Zn  Zn122  1  0.81246809  0.04698150  0.05903076  1
  Zn  Zn123  1  0.81135407  0.06033173  0.56136900  1
  Zn  Zn124  1  0.79835449  0.56176035  0.06094268  1
  Zn  Zn125  1  0.81894798  0.56113796  0.56641003  1
  Zn  Zn126  1  0.43469966  0.43781428  0.18667465  1
  Zn  Zn127  1  0.44110975  0.44062372  0.69350825  1
  Zn  Zn128  1  0.44483533  0.94037547  0.18976582  1
  Zn  Zn129  1  0.41682238  0.91514482  0.72627989  1
  Zn  Zn130  1  0.93076862  0.43945553  0.18627597  1
  Zn  Zn131  1  0.93716476  0.44249668  0.69009668  1
  Zn  Zn132  1  0.94931689  0.93710944  0.18981902  1
  Zn  Zn133  1  0.93802820  0.93764255  0.68676616  1
  Zn  Zn134  1  0.05850407  0.06316285  0.31622461  1
  Zn  Zn135  1  0.05967985  0.06197721  0.82040089  1
  Zn  Zn136  1  0.09117756  0.61070425  0.27075042  1
  Zn  Zn137  1  0.05879962  0.55953624  0.81536648  1
  Zn  Zn138  1  0.56318311  0.06118228  0.31454169  1
  Zn  Zn139  1  0.56051497  0.06369405  0.80723537  1
  Zn  Zn140  1  0.56473305  0.56229416  0.31484949  1
  Zn  Zn141  1  0.55866938  0.56437891  0.81906580  1
  Zn  Zn142  1  0.43962212  0.18862280  0.44364978  1
  Zn  Zn143  1  0.43262255  0.18340528  0.93238832  1
  Zn  Zn144  1  0.43548998  0.68859102  0.44206521  1
  Zn  Zn145  1  0.44728929  0.68654712  0.93109641  1
  Zn  Zn146  1  0.93880023  0.19373091  0.43910762  1
  Zn  Zn147  1  0.93952684  0.18714406  0.94079938  1
  Zn  Zn148  1  0.94636956  0.79990940  0.32488305  1
  Zn  Zn149  1  0.93667852  0.68797569  0.93080373  1
  Zn  Zn150  1  0.06435172  0.31296114  0.06389805  1
  Zn  Zn151  1  0.06170630  0.31283424  0.56564131  1
  Zn  Zn152  1  0.05812694  0.80849037  0.07040271  1
  Zn  Zn153  1  0.06123262  0.81671920  0.56645303  1
  Zn  Zn154  1  0.55354853  0.30610245  0.06216422  1
  Zn  Zn155  1  0.56660814  0.32052243  0.56074740  1
  Zn  Zn156  1  0.58205086  0.82447604  0.05740926  1
  Zn  Zn157  1  0.56636233  0.81097961  0.56530633  1
  O  O158  1  0.12464754  0.11996698  0.11759809  1
  O  O159  1  0.11318561  0.13431845  0.61666861  1
  O  O160  1  0.10280546  0.60535904  0.11386914  1
  O  O161  1  0.11875074  0.61294864  0.63509439  1
  O  O162  1  0.59991485  0.14737675  0.13495799  1
  O  O163  1  0.63323099  0.11772096  0.61479605  1
  O  O164  1  0.63784146  0.62803188  0.10997754  1
  O  O165  1  0.63285168  0.60901058  0.61623462  1
  O  O166  1  0.37906764  0.38410547  0.38616169  1
  O  O167  1  0.38027388  0.37983429  0.88664867  1
  O  O168  1  0.37775628  0.88371339  0.38241844  1
  O  O169  1  0.38491292  0.88932855  0.83363847  1
  O  O170  1  0.87535310  0.36764561  0.39208172  1
  O  O171  1  0.88820709  0.36344995  0.87660865  1
  O  O172  1  0.87967912  0.89000674  0.37265547  1
  O  O173  1  0.88855044  0.87180849  0.87131077  1
  O  O174  1  0.26190095  0.01162585  0.38821537  1
  O  O175  1  0.24975331  0.00251565  0.85911025  1
  O  O176  1  0.26006454  0.51365204  0.38631053  1
  O  O177  1  0.26488940  0.49300821  0.87349915  1
  O  O178  1  0.76781730  0.01135636  0.38206147  1
  O  O179  1  0.74778640  0.01147968  0.87280431  1
  O  O180  1  0.74523910  0.48571144  0.36402064  1
  O  O181  1  0.74326066  0.50569449  0.87440389  1
  O  O182  1  0.23290367  0.50193509  0.12127909  1
  O  O183  1  0.24033549  0.49088694  0.62507052  1
  O  O184  1  0.23339172  0.99896969  0.13068899  1
  O  O185  1  0.25262842  0.98997975  0.63422331  1
  O  O186  1  0.74127586  0.48053422  0.12263728  1
  O  O187  1  0.74255119  0.49144362  0.62750729  1
  O  O188  1  0.72836721  1.04295953  0.12781938  1
  O  O189  1  0.74055325  0.99528431  0.62663556  1
  O  O190  1  0.00106428  0.36809771  0.25103812  1
  O  O191  1  0.00474765  0.37043700  0.75831974  1
  O  O192  1  0.00259759  0.85674774  0.24679239  1
  O  O193  1  0.01433337  0.88313251  0.75435730  1
  O  O194  1  0.48663411  0.36665297  0.26649280  1
  O  O195  1  0.48655657  0.36163266  0.76737935  1
  O  O196  1  0.49833848  0.86192790  0.26189021  1
  O  O197  1  0.51848732  0.85962230  0.73815170  1
  O  O198  1  0.48885262  0.13394993  0.25308851  1
  O  O199  1  0.48988708  0.13767314  0.74528444  1
  O  O200  1  0.49347538  0.63862516  0.25885055  1
  O  O201  1  0.48800481  0.63037261  0.75163030  1
  O  O202  1  0.99232714  0.14163827  0.25246896  1
  O  O203  1  0.99212477  0.12895079  0.74443659  1
  O  O204  1  0.98166816  0.60245387  0.23094118  1
  O  O205  1  1.00112763  0.62697740  0.74131836  1
  O  O206  1  0.37323638  0.25885236  0.00688899  1
  O  O207  1  0.36972863  0.26417412  0.49646170  1
  O  O208  1  0.40753638  0.78593118  -0.00915657  1
  O  O209  1  0.36809784  0.75694550  0.51110247  1
  O  O210  1  0.86466246  0.24942581  0.00946222  1
  O  O211  1  0.88340729  0.26564649  0.51448894  1
  O  O212  1  0.88122576  0.76669724  -0.00731061  1
  O  O213  1  0.81008429  0.74664984  0.43883861  1
  O  O214  1  0.12900305  0.24380918  0.49579632  1
  O  O215  1  0.12122709  0.23827076  0.99586214  1
  O  O216  1  0.13027060  0.74319356  0.50286196  1
  O  O217  1  0.11539922  0.72866451  1.00807686  1
  O  O218  1  0.61305100  0.23960813  0.49129643  1
  O  O219  1  0.63174761  0.25030475  0.98890300  1
  O  O220  1  0.62349364  0.73034883  0.50563443  1
  O  O221  1  0.62636803  0.74645143  0.98223521  1
  O  O222  1  0.48387436  0.24608902  0.13636052  1
  O  O223  1  0.50326548  0.26647793  0.63996388  1
  O  O224  1  0.50952535  0.75591773  0.13906204  1
  O  O225  1  0.48718291  0.75260293  0.63074929  1
  O  O226  1  0.98969774  0.25182573  0.13404956  1
  O  O227  1  0.99079902  0.24337824  0.63274354  1
  O  O228  1  0.98610089  0.72907498  0.11997218  1
  O  O229  1  1.00632452  0.73218738  0.61801393  1
  O  O230  1  0.00636734  0.25549860  0.36676059  1
  O  O231  1  0.00964873  0.25630184  0.87254844  1
  O  O232  1  0.00197941  0.73198031  0.40157159  1
  O  O233  1  0.01136798  0.76318028  0.87556905  1
  O  O234  1  0.50203946  0.25762597  0.37243054  1
  O  O235  1  0.50533531  0.25616632  0.87102296  1
  O  O236  1  0.49821010  0.76378641  0.38224964  1
  O  O237  1  0.51960800  0.74325670  0.85852892  1
  O  O238  1  0.24218918  0.13004289  0.49706494  1
  O  O239  1  0.23737460  0.12071066  1.00174375  1
  O  O240  1  0.25504269  0.63691157  0.49365428  1
  O  O241  1  0.23113816  0.61597463  1.00757547  1
  O  O242  1  0.73993244  0.12464416  0.49099512  1
  O  O243  1  0.75777282  0.13570167  0.98517605  1
  O  O244  1  0.74328411  0.61503241  0.50034211  1
  O  O245  1  0.74131234  0.62313498  0.98281884  1
  O  O246  1  0.26171888  0.37496494  -0.00364113  1
  O  O247  1  0.25599184  0.37241255  0.50725775  1
  O  O248  1  0.24671264  0.88345669  0.01714355  1
  O  O249  1  0.25267752  0.87035520  0.50903272  1
  O  O250  1  0.74744871  0.36260084  0.00980287  1
  O  O251  1  0.76647103  0.38249943  0.51103625  1
  O  O252  1  0.76531463  0.87782379  -0.00872739  1
  O  O253  1  0.74742428  0.87678448  0.51359616  1
  O  O254  1  0.11911541  0.49792855  0.23439659  1
  O  O255  1  0.12624184  0.49226977  0.74546122  1
  O  O256  1  0.12036531  1.00544049  0.24150458  1
  O  O257  1  0.13446972  1.00312638  0.74925171  1
  O  O258  1  0.64004323  0.50998730  0.24515899  1
  O  O259  1  0.61636612  0.50483318  0.73664415  1
  O  O260  1  0.62010417  0.98263836  0.25620586  1
  O  O261  1  0.62553246  0.99136892  0.73910070  1
  O  O262  1  0.38411804  0.01166752  0.26745653  1
  O  O263  1  0.36489462  0.01858252  0.74332045  1
  O  O264  1  0.38380251  0.51364135  0.26663025  1
  O  O265  1  0.37481088  0.50664010  0.76146421  1
  O  O266  1  0.89023967  0.01477397  0.26745612  1
  O  O267  1  0.87231732  0.01455530  0.75102469  1
  O  O268  1  0.85669631  0.50259894  0.24606230  1
  O  O269  1  0.88873077  0.51922919  0.75536314  1
  O  O270  1  0.12174864  0.37327551  0.36618516  1
  O  O271  1  0.11609246  0.36813908  0.87358502  1
  O  O272  1  0.12099538  0.86920773  0.37219204  1
  O  O273  1  0.11801405  0.87747722  0.86298819  1
  O  O274  1  0.61098912  0.36653948  0.38898706  1
  O  O275  1  0.60920389  0.36742736  0.88013736  1
  O  O276  1  0.61573012  0.87096023  0.37490754  1
  O  O277  1  0.63679543  0.85773298  0.85970075  1
  O  O278  1  0.38138811  0.12916132  0.13815686  1
  O  O279  1  0.36821626  0.13352250  0.63631962  1
  O  O280  1  0.37179663  0.61810970  0.14574554  1
  O  O281  1  0.36879533  0.63459667  0.63353905  1
  O  O282  1  0.87355240  0.13589646  0.13835820  1
  O  O283  1  0.87757769  0.13443231  0.63091901  1
  O  O284  1  0.88000543  0.61555027  0.11920304  1
  O  O285  1  0.88914174  0.62087801  0.63537455  1
  O  O286  1  0.26245490  0.24376617  0.13399623  1
  O  O287  1  0.24270796  0.26583239  0.62027185  1
  O  O288  1  0.27200151  0.75702253  0.10554056  1
  O  O289  1  0.25488926  0.75830831  0.61742369  1
  O  O290  1  0.75258086  0.25144653  0.11880453  1
  O  O291  1  0.75774351  0.26437379  0.63104962  1
  O  O292  1  0.76464050  0.74336313  0.12831328  1
  O  O293  1  0.75240870  0.75849486  0.62331440  1
  O  O294  1  0.24543358  0.24200502  0.38472997  1
  O  O295  1  0.23547485  0.25001076  0.86912467  1
  O  O296  1  0.26057560  0.74440606  0.39069280  1
  O  O297  1  0.24596548  0.73922711  0.87369320  1
  O  O298  1  0.73537814  0.24630003  0.37470029  1
  O  O299  1  0.73942667  0.24745309  0.87988649  1
  O  O300  1  0.76364644  0.74521346  0.38246484  1
  O  O301  1  0.73753769  0.73495248  0.86322820  1
  O  O302  1  0.01077178  0.12377559  0.00374005  1
  O  O303  1  0.00583019  0.12665270  0.50839783  1
  O  O304  1  -0.00533485  0.60888658  0.00424289  1
  O  O305  1  0.01025720  0.61177397  0.51321652  1
  O  O306  1  0.49585006  0.13335662  0.01692421  1
  O  O307  1  0.51066770  0.11397071  0.49384760  1
  O  O308  1  0.51953193  0.63209755  -0.00155662  1
  O  O309  1  0.49831158  0.61173329  0.50311560  1
  O  O310  1  0.49129092  0.38302094  0.49375203  1
  O  O311  1  0.48785795  0.36754462  0.98708366  1
  O  O312  1  0.49486603  0.88186316  0.49702541  1
  O  O313  1  0.46140903  0.83808822  1.00169195  1
  O  O314  1  0.99202980  0.38356036  0.50393785  1
  O  O315  1  0.99679642  0.38127017  0.99481506  1
  O  O316  1  1.00457192  0.89609200  0.50863551  1
  O  O317  1  1.00062838  0.87511318  0.98601167  1
  O  O318  1  0.49353411  0.49337197  0.38489719  1
  O  O319  1  0.48990688  0.48429093  0.87154604  1
  O  O320  1  0.49206364  0.99047581  0.38649234  1
  O  O321  1  0.50189636  1.00497589  0.87785328  1
  O  O322  1  1.00740832  0.50071489  0.39613216  1
  O  O323  1  1.00422537  0.48761385  0.89010240  1
  O  O324  1  0.98853100  1.01059708  0.39020039  1
  O  O325  1  0.99686236  0.98658989  0.87687229  1
  O  O326  1  0.01520739  0.00478166  0.12239562  1
  O  O327  1  -0.01034194  0.01669910  0.61294844  1
  O  O328  1  -0.00197733  0.49703152  0.10927325  1
  O  O329  1  0.00832896  0.50776052  0.62112383  1
  O  O330  1  0.50794660  0.01794775  0.13038533  1
  O  O331  1  0.51428629  -0.00662843  0.61365841  1
  O  O332  1  0.49764444  0.49506698  0.11999865  1
  O  O333  1  0.51572554  0.48624235  0.61741146  1
  O  O334  1  0.23927691  0.37372079  0.25685769  1
  O  O335  1  0.24610072  0.37660034  0.74213422  1
  O  O336  1  0.23331095  0.84527346  0.22954931  1
  O  O337  1  0.23511624  0.88905409  0.74459535  1
  O  O338  1  0.74901818  0.38171461  0.23823457  1
  O  O339  1  0.75133698  0.37830790  0.74149243  1
  O  O340  1  0.73907907  0.87097567  0.27246833  1
  O  O341  1  0.74098731  0.87227091  0.73884634  1
  O  O342  1  0.25966819  0.13154545  0.26642829  1
  O  O343  1  0.25256124  0.11735179  0.74689790  1
  O  O344  1  0.27003753  0.63769455  0.26772540  1
  O  O345  1  0.26453610  0.62338873  0.74945758  1
  O  O346  1  0.76396988  0.13299964  0.26786057  1
  O  O347  1  0.75725994  0.12934598  0.75747522  1
  O  O348  1  0.76113312  0.61081734  0.25745352  1
  O  O349  1  0.75880357  0.61828081  0.75706928  1
  O  O350  1  0.36900984  0.12111948  0.37453209  1
  O  O351  1  0.37016329  0.12440512  0.85814682  1
  O  O352  1  0.37099270  0.61827469  0.37587570  1
  O  O353  1  0.38212310  0.60947087  0.87390623  1
  O  O354  1  0.86788429  0.13176291  0.37298321  1
  O  O355  1  0.86655636  0.12993670  0.86498444  1
  O  O356  1  0.88483844  0.60727259  0.36902205  1
  O  O357  1  0.86037871  0.62270999  0.87088705  1
  O  O358  1  0.11984337  0.38631616  0.13373761  1
  O  O359  1  0.13052685  0.38156126  0.63383346  1
  O  O360  1  0.12629252  0.88501160  0.12563002  1
  O  O361  1  0.13206284  0.87297490  0.63778357  1
  O  O362  1  0.63286943  0.36498040  0.12364356  1
  O  O363  1  0.64212369  0.38590714  0.61824303  1
  O  O364  1  0.63236406  0.86586073  0.15268939  1
  O  O365  1  0.63641914  0.88124374  0.62795656  1
  O  O366  1  0.11727921  0.26051100  0.25349836  1
  O  O367  1  0.11784727  0.25473256  0.75992200  1
  O  O368  1  0.11716823  0.71727695  0.24044557  1
  O  O369  1  0.12798698  0.76403579  0.75194608  1
  O  O370  1  0.60799892  0.24743093  0.26693180  1
  O  O371  1  0.60827446  0.24754316  0.75920017  1
  O  O372  1  0.61450140  0.75305565  0.26399939  1
  O  O373  1  0.62071204  0.74961554  0.74859417  1
  O  O374  1  0.38112292  0.24279302  0.24872980  1
  O  O375  1  0.38473455  0.24146703  0.75271199  1
  O  O376  1  0.39091675  0.74030043  0.25556815  1
  O  O377  1  0.38460567  0.74113774  0.74499102  1
  O  O378  1  0.88023069  0.24748770  0.24590228  1
  O  O379  1  0.87916507  0.24240708  0.74235663  1
  O  O380  1  0.88073512  0.72353180  0.26359575  1
  O  O381  1  0.88056420  0.72448384  0.75590459  1
  O  O382  1  0.38100506  0.49336952  0.49534492  1
  O  O383  1  0.37264944  0.48987850  0.99044486  1
  O  O384  1  0.38307529  0.99783643  0.49722370  1
  O  O385  1  0.38614260  1.00299664  0.99516594  1
  O  O386  1  0.89025724  0.48729571  0.50997498  1
  O  O387  1  0.88179413  0.49329132  1.00108560  1
  O  O388  1  0.88599930  1.00753213  0.48970918  1
  O  O389  1  0.88087101  0.98544208  0.99551624  1
  O  O390  1  0.12342393  0.01347996  0.00518023  1
  O  O391  1  0.11194474  0.01611357  0.49330006  1
  O  O392  1  0.11298692  0.50108568  0.00951355  1
  O  O393  1  0.11375902  0.48857578  0.51435295  1
  O  O394  1  0.59838809  -0.06065441  0.01606625  1
  O  O395  1  0.62059642  0.00806883  0.50459440  1
  O  O396  1  0.62556661  0.51344989  0.00357763  1
  O  O397  1  0.61787775  0.50965885  0.50781171  1
  O  O398  1  0.37497719  0.36742645  0.11236323  1
  O  O399  1  0.36533826  0.38710171  0.61658593  1
  O  O400  1  0.36088617  0.89022143  0.13479105  1
  O  O401  1  0.36361996  0.86550404  0.62756521  1
  O  O402  1  0.86068920  0.36133033  0.12487302  1
  O  O403  1  0.86576987  0.37203869  0.62489556  1
  O  O404  1  0.88310710  0.87528271  0.11168948  1
  O  O405  1  0.86065384  0.87954931  0.63047336  1
  O  O406  1  0.13222512  0.13246682  0.38255869  1
  O  O407  1  0.12638744  0.13188244  0.88805409  1
  O  O408  1  0.13122918  0.62456347  0.38342616  1
  O  O409  1  0.11429323  0.61988796  0.89495412  1
  O  O410  1  0.63213178  0.13001604  0.38259926  1
  O  O411  1  0.63553477  0.13514653  0.86680546  1
  O  O412  1  0.62304919  0.62370961  0.39398276  1
  O  O413  1  0.63409578  0.62908088  0.87947704  1
