# generated using pymatgen
data_V79Zn79O256
_symmetry_space_group_name_H-M   'P 1'
_cell_length_a   16.96418338
_cell_length_b   16.93617782
_cell_length_c   16.91048458
_cell_angle_alpha   90.18940542
_cell_angle_beta   89.81464931
_cell_angle_gamma   90.05072598
_symmetry_Int_Tables_number   1
_chemical_formula_structural   V79Zn79O256
_chemical_formula_sum   'V79 Zn79 O256'
_cell_volume   4858.47088692
_cell_formula_units_Z   1
loop_
 _symmetry_equiv_pos_site_id
 _symmetry_equiv_pos_as_xyz
  1  'x, y, z'
loop_
 _atom_site_type_symbol
 _atom_site_label
 _atom_site_symmetry_multiplicity
 _atom_site_fract_x
 _atom_site_fract_y
 _atom_site_fract_z
 _atom_site_occupancy
  V  V0  1  0.74207172  0.74378248  0.00667585  1
  V  V1  1  0.00430148  0.62612027  0.12213876  1
  V  V2  1  0.62885106  0.63842528  0.49228616  1
  V  V3  1  0.25217212  0.87488615  0.63010414  1
  V  V4  1  -0.00546669  0.12161048  0.11624814  1
  V  V5  1  0.62948097  0.49215674  0.61577543  1
  V  V6  1  0.38161973  0.62402411  0.24219582  1
  V  V7  1  0.24802907  0.24976429  0.50540460  1
  V  V8  1  0.85809131  0.12416220  0.75634406  1
  V  V9  1  -0.00828126  0.24909465  0.24813068  1
  V  V10  1  0.03142271  0.77512111  0.75856567  1
  V  V11  1  0.68116490  0.91507544  0.68187322  1
  V  V12  1  0.50037672  0.62292327  0.62185317  1
  V  V13  1  0.37225476  0.89411682  0.00341680  1
  V  V14  1  0.62070495  0.88864271  0.24424137  1
  V  V15  1  0.87167026  0.38419380  0.50563484  1
  V  V16  1  0.53730711  -0.00051488  0.00777366  1
  V  V17  1  0.85492496  0.24965202  0.62473352  1
  V  V18  1  -0.00073227  0.12369737  0.63108886  1
  V  V19  1  -0.00743542  0.87775355  0.37496235  1
  V  V20  1  -0.01355666  -0.00288884  0.50104875  1
  V  V21  1  0.87392852  0.63484775  0.74574990  1
  V  V22  1  0.61817283  0.12294541  0.52217636  1
  V  V23  1  0.87859635  0.88494998  0.00042371  1
  V  V24  1  0.28769921  0.01063315  0.75142386  1
  V  V25  1  0.37955883  0.75550496  0.61787683  1
  V  V26  1  0.86741118  0.37113677  -0.00157271  1
  V  V27  1  0.12913832  0.75313064  0.37150340  1
  V  V28  1  0.13812858  0.00278902  0.12576361  1
  V  V29  1  0.11896025  0.37581623  0.25989582  1
  V  V30  1  0.74225389  0.61429759  0.88034700  1
  V  V31  1  0.48318317  0.38733726  0.86410597  1
  V  V32  1  -0.00009892  0.49406146  -0.00283930  1
  V  V33  1  0.37074902  0.37513616  0.50339138  1
  V  V34  1  0.24508175  0.49256931  0.73331454  1
  V  V35  1  0.37832987  0.23482676  0.62205086  1
  V  V36  1  0.61772655  0.38443388  0.25738168  1
  V  V37  1  0.25723115  0.75848536  0.49737984  1
  V  V38  1  0.24929799  0.49964261  0.24952909  1
  V  V39  1  0.87650536  0.84569042  0.51954605  1
  V  V40  1  0.87549007  0.10439740  0.26145922  1
  V  V41  1  0.50602441  0.87220057  0.38052711  1
  V  V42  1  0.50008269  0.49169834  0.49128594  1
  V  V43  1  0.74990311  0.37085256  0.13550728  1
  V  V44  1  0.37807294  0.49389230  0.37256274  1
  V  V45  1  0.37340228  0.36309091  0.00496519  1
  V  V46  1  0.62564045  0.22821054  0.35943115  1
  V  V47  1  0.00291188  0.75148522  0.24523687  1
  V  V48  1  0.62548935  0.50897048  0.11419697  1
  V  V49  1  0.37635308  0.62109155  0.75085541  1
  V  V50  1  0.48162903  0.24828496  0.24822130  1
  V  V51  1  0.11743284  0.24824926  0.37625882  1
  V  V52  1  0.87778235  0.74863661  0.12001158  1
  V  V53  1  0.62902161  0.37796418  0.74909300  1
  V  V54  1  0.50580166  0.75004315  0.24588151  1
  V  V55  1  0.12395508  0.62149919  0.50969766  1
  V  V56  1  0.50523710  0.12099218  0.12881937  1
  V  V57  1  0.86882979  0.62128881  0.24651326  1
  V  V58  1  0.25707723  0.74593607  -0.00494239  1
  V  V59  1  0.37525616  0.75026674  0.12149910  1
  V  V60  1  0.25074994  0.62387721  0.37325572  1
  V  V61  1  0.49383150  0.24159423  0.74530414  1
  V  V62  1  0.25571015  0.61587285  0.87347028  1
  V  V63  1  0.12790623  -0.00421490  0.63751437  1
  V  V64  1  0.87364935  0.00685559  0.87627536  1
  V  V65  1  0.74651537  0.88349389  0.13187983  1
  V  V66  1  0.25214116  0.36227302  0.12236603  1
  V  V67  1  0.13919291  0.25460549  0.87047159  1
  V  V68  1  0.12605290  0.11726122  0.49967496  1
  V  V69  1  0.13658003  0.88101230  0.24321412  1
  V  V70  1  0.12658907  0.49707959  0.12604700  1
  V  V71  1  0.49324916  0.00616534  0.50186077  1
  V  V72  1  0.49861450  0.50675412  0.00471383  1
  V  V73  1  0.12854924  0.62566913  -0.00779168  1
  V  V74  1  0.14642482  0.13106059  -0.00386349  1
  V  V75  1  0.25423662  0.12122334  0.36378678  1
  V  V76  1  0.36614343  -0.00912498  0.36340977  1
  V  V77  1  0.62197821  0.75664002  0.87624062  1
  V  V78  1  0.88122835  0.49570020  0.36490101  1
  Zn  Zn79  1  0.08535887  0.44538401  0.66284728  1
  Zn  Zn80  1  0.50234678  0.88862705  0.87515644  1
  Zn  Zn81  1  0.71869198  0.04631410  0.31790760  1
  Zn  Zn82  1  0.87595639  0.50163007  0.87185936  1
  Zn  Zn83  1  0.69212659  0.18081895  0.95535535  1
  Zn  Zn84  1  0.01061690  0.38029014  0.85454885  1
  Zn  Zn85  1  0.74725403  0.50278987  0.74313859  1
  Zn  Zn86  1  0.75879967  0.64070525  0.38773105  1
  Zn  Zn87  1  0.32259670  0.07738301  0.18541817  1
  Zn  Zn88  1  0.83575495  0.20219117  0.07490034  1
  Zn  Zn89  1  0.04299086  -0.04156152  -0.04739854  1
  Zn  Zn90  1  -0.00577450  0.62696997  0.62464887  1
  Zn  Zn91  1  0.74413847  0.24202065  0.49034885  1
  Zn  Zn92  1  0.00817213  0.26276805  0.74216368  1
  Zn  Zn93  1  0.51176887  0.75119250  0.74648225  1
  Zn  Zn94  1  0.17781718  0.18997687  0.18754106  1
  Zn  Zn95  1  0.19410763  0.18225301  0.69181607  1
  Zn  Zn96  1  0.19042494  0.68896495  0.18262728  1
  Zn  Zn97  1  0.19166619  0.69182492  0.69309284  1
  Zn  Zn98  1  0.70555142  0.15980013  0.15653581  1
  Zn  Zn99  1  0.67712026  0.19997848  0.79142765  1
  Zn  Zn100  1  0.72236597  0.73273227  0.23899100  1
  Zn  Zn101  1  0.72638870  0.72669302  0.70645382  1
  Zn  Zn102  1  0.30054093  0.31489379  0.31912327  1
  Zn  Zn103  1  0.31327591  0.31083379  0.80857636  1
  Zn  Zn104  1  0.31672748  0.81054215  0.30795713  1
  Zn  Zn105  1  0.35373364  0.83246197  0.79698286  1
  Zn  Zn106  1  0.80539062  0.31284056  0.31383297  1
  Zn  Zn107  1  0.81850566  0.31103394  0.81579172  1
  Zn  Zn108  1  0.76859455  0.85453171  0.36727127  1
  Zn  Zn109  1  0.81553890  0.81457027  0.82285765  1
  Zn  Zn110  1  0.15646794  0.41629413  0.48015162  1
  Zn  Zn111  1  0.19324679  0.43684491  0.93476883  1
  Zn  Zn112  1  0.18466930  0.93502748  0.43712302  1
  Zn  Zn113  1  0.20986787  0.92230848  0.91398745  1
  Zn  Zn114  1  0.70478983  0.44257427  0.43153257  1
  Zn  Zn115  1  0.67568210  0.34271596  0.93443682  1
  Zn  Zn116  1  0.70607058  0.95446695  0.49212247  1
  Zn  Zn117  1  0.69071608  0.94761927  0.84935349  1
  Zn  Zn118  1  0.36065624  0.13130757  0.00067284  1
  Zn  Zn119  1  0.31525173  0.05532810  0.55555012  1
  Zn  Zn120  1  0.31597868  0.55397942  0.06096793  1
  Zn  Zn121  1  0.31056015  0.56538058  0.55928216  1
  Zn  Zn122  1  0.74892282  0.02563484  0.01559395  1
  Zn  Zn123  1  0.80062165  0.06421683  0.57537363  1
  Zn  Zn124  1  0.80890055  0.55605947  0.06360903  1
  Zn  Zn125  1  0.81042568  0.56690764  0.55977103  1
  Zn  Zn126  1  0.43895912  0.43462585  0.18478097  1
  Zn  Zn127  1  0.42936258  0.44059541  0.67739155  1
  Zn  Zn128  1  0.43663900  0.93514771  0.18150928  1
  Zn  Zn129  1  0.47208983  0.93233698  0.68558926  1
  Zn  Zn130  1  0.93858769  0.43469760  0.18261326  1
  Zn  Zn131  1  0.92646547  0.44717746  0.68502690  1
  Zn  Zn132  1  0.94429936  0.93798491  0.18062754  1
  Zn  Zn133  1  0.93602032  0.93766317  0.69401607  1
  Zn  Zn134  1  0.05903744  0.06025027  0.31210003  1
  Zn  Zn135  1  0.06258687  0.06995470  0.81488322  1
  Zn  Zn136  1  0.05981918  0.56089423  0.31955974  1
  Zn  Zn137  1  0.06244797  0.56567483  0.80890480  1
  Zn  Zn138  1  0.54200358  0.06286546  0.30378456  1
  Zn  Zn139  1  0.56243911  0.05927858  0.81057172  1
  Zn  Zn140  1  0.56620990  0.56527008  0.30895182  1
  Zn  Zn141  1  0.56446638  0.56311105  0.81423523  1
  Zn  Zn142  1  0.43636809  0.18703794  0.42944491  1
  Zn  Zn143  1  0.52664317  0.19080077  0.92928225  1
  Zn  Zn144  1  0.44205980  0.68471439  0.43314362  1
  Zn  Zn145  1  0.43832715  0.68110381  0.93703159  1
  Zn  Zn146  1  0.93453158  0.18467546  0.44073458  1
  Zn  Zn147  1  0.95022567  0.19458790  0.92645448  1
  Zn  Zn148  1  0.94420183  0.68450203  0.43118996  1
  Zn  Zn149  1  0.93742945  0.68974402  0.92852839  1
  Zn  Zn150  1  0.06397566  0.30864280  0.06344409  1
  Zn  Zn151  1  0.04287485  0.30754611  0.55443955  1
  Zn  Zn152  1  0.08750990  0.82814981  0.03475106  1
  Zn  Zn153  1  0.06261800  0.80650842  0.57093779  1
  Zn  Zn154  1  0.55778832  0.31533164  0.07008049  1
  Zn  Zn155  1  0.56120215  0.30773710  0.55611463  1
  Zn  Zn156  1  0.55993167  0.81082886  0.06448028  1
  Zn  Zn157  1  0.59106334  0.80527408  0.58133980  1
  O  O158  1  0.11718055  0.12208648  0.11699140  1
  O  O159  1  0.11937358  0.11788972  0.61704163  1
  O  O160  1  0.11980350  0.61650941  0.11945144  1
  O  O161  1  0.13823302  0.62888999  0.60989046  1
  O  O162  1  0.60275193  0.12063620  0.15811351  1
  O  O163  1  0.60769670  0.13216717  0.61646366  1
  O  O164  1  0.63028947  0.60458757  0.12020496  1
  O  O165  1  0.61165084  0.61000972  0.60897340  1
  O  O166  1  0.36804873  0.38843746  0.38175581  1
  O  O167  1  0.37938821  0.37757510  0.88330076  1
  O  O168  1  0.37833977  0.88650142  0.36853761  1
  O  O169  1  0.38788146  0.86315691  0.90302029  1
  O  O170  1  0.86749703  0.39295371  0.37325335  1
  O  O171  1  0.87870897  0.38071322  0.88895573  1
  O  O172  1  0.89328076  0.86506352  0.38682455  1
  O  O173  1  0.87146678  0.88610762  0.89307828  1
  O  O174  1  0.25912460  0.00398438  0.37756150  1
  O  O175  1  0.26388360  -0.00736127  0.84979022  1
  O  O176  1  0.26116379  0.51201179  0.36731930  1
  O  O177  1  0.25012379  0.51176149  0.86611057  1
  O  O178  1  0.74402071  -0.03501318  0.38566364  1
  O  O179  1  0.76785466  0.01490942  0.89748319  1
  O  O180  1  0.77641424  0.52159514  0.38851320  1
  O  O181  1  0.74548187  0.51406078  0.87752895  1
  O  O182  1  0.24450758  0.49287779  0.13335363  1
  O  O183  1  0.25073005  0.50233284  0.63208386  1
  O  O184  1  0.23559967  1.01525758  0.13248903  1
  O  O185  1  0.24951319  0.99300751  0.62929650  1
  O  O186  1  0.73538258  0.48500498  0.11623039  1
  O  O187  1  0.73094821  0.50034150  0.61954232  1
  O  O188  1  0.75621450  0.98082127  0.12752735  1
  O  O189  1  0.73059232  0.97623699  0.61274941  1
  O  O190  1  0.01388057  0.36795420  0.24137974  1
  O  O191  1  0.00574822  0.38012277  0.73758842  1
  O  O192  1  0.00795486  0.86695375  0.25328476  1
  O  O193  1  0.01190777  0.87469424  0.74952728  1
  O  O194  1  0.51152953  0.36304140  0.24317756  1
  O  O195  1  0.49300189  0.38558798  0.75569201  1
  O  O196  1  0.50405634  0.86935736  0.25020908  1
  O  O197  1  0.46965780  0.85565641  0.76863693  1
  O  O198  1  0.47952090  0.13748558  0.24462524  1
  O  O199  1  0.50405064  0.14440895  0.75131100  1
  O  O200  1  0.48953212  0.63659459  0.26012503  1
  O  O201  1  0.49523269  0.62454766  0.73966521  1
  O  O202  1  0.99368300  0.13096108  0.24617421  1
  O  O203  1  0.99398062  0.12385022  0.73712927  1
  O  O204  1  1.00259168  0.63236319  0.23823168  1
  O  O205  1  0.97826976  0.62710897  0.75779218  1
  O  O206  1  0.37280335  0.26601691  0.00120566  1
  O  O207  1  0.37036062  0.25440880  0.50293491  1
  O  O208  1  0.37306495  0.73973005  0.01072741  1
  O  O209  1  0.36660334  0.73828776  0.50562736  1
  O  O210  1  0.88810297  0.26804147  -0.00110562  1
  O  O211  1  0.86214903  0.23113672  0.51755105  1
  O  O212  1  0.87252888  0.75427954  0.00798970  1
  O  O213  1  0.88955231  0.74613348  0.51185299  1
  O  O214  1  0.12891235  0.23508258  0.49366170  1
  O  O215  1  0.12149601  0.23723828  0.99187248  1
  O  O216  1  0.13914843  0.74564772  0.49164086  1
  O  O217  1  0.14238458  0.73048983  1.01502366  1
  O  O218  1  0.61607203  0.23509987  0.48292850  1
  O  O219  1  0.60825930  0.26087436  0.98487069  1
  O  O220  1  0.60955926  0.73632375  0.49411274  1
  O  O221  1  0.63655980  0.75004594  0.99988937  1
  O  O222  1  0.50123445  0.24073358  0.14007175  1
  O  O223  1  0.48495476  0.25726596  0.62905976  1
  O  O224  1  0.48797769  0.75054883  0.13368943  1
  O  O225  1  0.49701315  0.73777043  0.62324081  1
  O  O226  1  1.01080403  0.23580968  0.13824170  1
  O  O227  1  0.99009597  0.23350884  0.62366056  1
  O  O228  1  0.99807393  0.74072669  0.12630369  1
  O  O229  1  1.01443832  0.74147801  0.65385108  1
  O  O230  1  0.01354314  0.23699046  0.36879912  1
  O  O231  1  0.01378791  0.25983873  0.86254695  1
  O  O232  1  0.00977071  0.75623681  0.36160097  1
  O  O233  1  -0.00847260  0.75146755  0.85129906  1
  O  O234  1  0.51142320  0.24271604  0.35930911  1
  O  O235  1  0.49274984  0.27348931  0.84869428  1
  O  O236  1  0.48370004  0.76656706  0.36278212  1
  O  O237  1  0.51898299  0.74166260  0.88446818  1
  O  O238  1  0.24137233  0.12876991  0.49196809  1
  O  O239  1  0.24387645  0.13142849  1.00296557  1
  O  O240  1  0.24628940  0.63550338  0.48851721  1
  O  O241  1  0.24725851  0.62091642  0.99390938  1
  O  O242  1  0.72546893  0.12095239  0.50783843  1
  O  O243  1  0.74577985  0.13597716  1.04296902  1
  O  O244  1  0.73211952  0.63301002  0.50794680  1
  O  O245  1  0.75951037  0.63299100  0.99075065  1
  O  O246  1  0.26374617  0.38533489  0.00944773  1
  O  O247  1  0.25838877  0.35649847  0.48788847  1
  O  O248  1  0.26767652  0.86004676  -0.00219903  1
  O  O249  1  0.25078551  0.86471243  0.50520775  1
  O  O250  1  0.76334868  0.37226309  0.00681630  1
  O  O251  1  0.76726543  0.36107101  0.48844746  1
  O  O252  1  0.76424526  0.86028387  0.01915159  1
  O  O253  1  0.77778658  0.85961307  0.49522441  1
  O  O254  1  0.12771037  0.49287579  0.24950136  1
  O  O255  1  0.13951964  0.50516084  0.74806668  1
  O  O256  1  0.11926356  0.99435718  0.23782527  1
  O  O257  1  0.12648997  1.00838695  0.73742114  1
  O  O258  1  0.61113319  0.48883975  0.23470348  1
  O  O259  1  0.62064628  0.49394018  0.73273483  1
  O  O260  1  0.62273323  0.98996857  0.25465807  1
  O  O261  1  0.63027850  0.98329902  0.75573932  1
  O  O262  1  0.37369297  0.00023720  0.25768686  1
  O  O263  1  0.38649727  0.00113838  0.74102569  1
  O  O264  1  0.37305977  0.50465707  0.25437368  1
  O  O265  1  0.36482907  0.51516007  0.73833862  1
  O  O266  1  0.88710795  0.00531300  0.25578675  1
  O  O267  1  0.87360374  0.01419427  0.75937460  1
  O  O268  1  0.88470827  0.50682731  0.25655523  1
  O  O269  1  0.86143091  0.51100931  0.75541463  1
  O  O270  1  0.12947397  0.36230954  0.37044705  1
  O  O271  1  0.12670705  0.35984992  0.88412450  1
  O  O272  1  0.11803662  0.87095140  0.36523735  1
  O  O273  1  0.11375469  0.87413855  0.93049039  1
  O  O274  1  0.63045458  0.38679524  0.35832684  1
  O  O275  1  0.60633099  0.38427604  0.85216122  1
  O  O276  1  0.60538073  0.87122773  0.36013885  1
  O  O277  1  0.62130290  0.86048741  0.88548509  1
  O  O278  1  0.39281758  0.12478511  0.11211067  1
  O  O279  1  0.37899146  0.13722655  0.61071496  1
  O  O280  1  0.37288796  0.62630012  0.13788954  1
  O  O281  1  0.38635817  0.62917159  0.62438427  1
  O  O282  1  0.89145184  0.12818278  0.14266365  1
  O  O283  1  0.87653351  0.12787621  0.63826437  1
  O  O284  1  0.88779610  0.62712436  0.12512433  1
  O  O285  1  0.86776675  0.62187484  0.64177997  1
  O  O286  1  0.24345677  0.26332014  0.12900785  1
  O  O287  1  0.26152878  0.24150571  0.61298875  1
  O  O288  1  0.26528061  0.74097797  0.11416966  1
  O  O289  1  0.25874372  0.75679158  0.61629990  1
  O  O290  1  0.75387023  0.26656543  0.13290915  1
  O  O291  1  0.75816731  0.24870196  0.63095906  1
  O  O292  1  0.76494183  0.74835868  0.12441120  1
  O  O293  1  0.69755590  0.81175038  0.63901174  1
  O  O294  1  0.23914078  0.23808625  0.38236506  1
  O  O295  1  0.23969771  0.25084461  0.87133234  1
  O  O296  1  0.25102783  0.74345014  0.37839097  1
  O  O297  1  0.25806338  0.73248950  0.89169231  1
  O  O298  1  0.72812898  0.24976914  0.37088332  1
  O  O299  1  0.73736468  0.25851420  0.87422962  1
  O  O300  1  0.75019436  0.74546081  0.34849735  1
  O  O301  1  0.73993342  0.74535173  0.88875802  1
  O  O302  1  -0.00755004  0.13186943  0.01527195  1
  O  O303  1  0.00820565  0.11571705  0.50723339  1
  O  O304  1  0.00800950  0.61963054  0.00421398  1
  O  O305  1  0.02153982  0.64082673  0.50387139  1
  O  O306  1  0.52644451  0.11062220  0.02098629  1
  O  O307  1  0.50762881  0.11411499  0.48349124  1
  O  O308  1  0.49943635  0.60569507  -0.00299361  1
  O  O309  1  0.50641359  0.61305240  0.50127747  1
  O  O310  1  0.48957665  0.38496388  0.49812021  1
  O  O311  1  0.48668097  0.37744150  0.98706771  1
  O  O312  1  0.50583493  0.88860091  0.48251238  1
  O  O313  1  0.49474583  0.89323798  1.01156502  1
  O  O314  1  0.96334110  0.34660767  0.48221041  1
  O  O315  1  0.99168062  0.38695509  1.01274768  1
  O  O316  1  0.99506693  0.87745484  0.49748195  1
  O  O317  1  0.97963152  0.87603397  1.01749581  1
  O  O318  1  0.48772309  0.50776088  0.38040934  1
  O  O319  1  0.50148086  0.49130574  0.88400221  1
  O  O320  1  0.48575382  0.98858858  0.37154236  1
  O  O321  1  0.51533128  1.00239608  0.90318343  1
  O  O322  1  0.98160719  0.51007314  0.38364650  1
  O  O323  1  1.00243550  0.49738081  0.88683196  1
  O  O324  1  1.00936634  0.98853236  0.38946897  1
  O  O325  1  0.98165473  1.01527015  0.88018635  1
  O  O326  1  0.01075203  0.01684461  0.12637254  1
  O  O327  1  0.00906184  0.00536290  0.61914101  1
  O  O328  1  0.00573259  0.50979468  0.11804306  1
  O  O329  1  0.00008515  0.51337927  0.62941868  1
  O  O330  1  0.50072416  0.00794926  0.11893827  1
  O  O331  1  0.47534370  0.00598218  0.59862167  1
  O  O332  1  0.50962766  0.49126070  0.11412849  1
  O  O333  1  0.50246275  0.50592872  0.61032511  1
  O  O334  1  0.23772739  0.37974429  0.24494509  1
  O  O335  1  0.26053502  0.39519859  0.75098624  1
  O  O336  1  0.23514816  0.86854638  0.25099253  1
  O  O337  1  0.26810330  0.88498200  0.73412301  1
  O  O338  1  0.73879492  0.37839814  0.24134132  1
  O  O339  1  0.73079018  0.37794113  0.75291167  1
  O  O340  1  0.73647103  0.86512575  0.23849301  1
  O  O341  1  0.74739528  0.88664017  0.76201091  1
  O  O342  1  0.24618246  0.13031640  0.25843573  1
  O  O343  1  0.26577633  0.10860772  0.73835410  1
  O  O344  1  0.25828225  0.62184397  0.25579660  1
  O  O345  1  0.25685908  0.61783628  0.75569962  1
  O  O346  1  0.77009889  0.11758522  0.24371848  1
  O  O347  1  0.75992164  0.12849113  0.74891329  1
  O  O348  1  0.76998521  0.62231465  0.23604295  1
  O  O349  1  0.75202881  0.62543858  0.76259744  1
  O  O350  1  0.36095457  0.11616556  0.37439333  1
  O  O351  1  0.42304303  0.14396800  0.90974604  1
  O  O352  1  0.36737674  0.61884414  0.36579876  1
  O  O353  1  0.36998338  0.62776402  0.86103632  1
  O  O354  1  0.87923500  0.12556406  0.36062670  1
  O  O355  1  0.87721525  0.12841604  0.86119095  1
  O  O356  1  0.88007158  0.62408345  0.35921372  1
  O  O357  1  0.86065814  0.62488615  0.86727419  1
  O  O358  1  0.13221684  0.38005943  0.13231128  1
  O  O359  1  0.12269095  0.37773584  0.58221050  1
  O  O360  1  0.12301400  0.89485605  0.12631480  1
  O  O361  1  0.14110958  0.88411835  0.61859632  1
  O  O362  1  0.63594376  0.37568131  0.13453759  1
  O  O363  1  0.61210437  0.38706120  0.62903363  1
  O  O364  1  0.63843072  0.86943517  0.13016419  1
  O  O365  1  0.58086574  0.89893320  0.64448998  1
  O  O366  1  0.11690523  0.25732374  0.25998276  1
  O  O367  1  0.12716673  0.23832102  0.76402841  1
  O  O368  1  0.11837581  0.75730539  0.24667108  1
  O  O369  1  0.13177784  0.75784364  0.76363709  1
  O  O370  1  0.61809485  0.26170041  0.26010525  1
  O  O371  1  0.60399275  0.27193310  0.73354120  1
  O  O372  1  0.60811046  0.75737945  0.24298708  1
  O  O373  1  0.62746840  0.74664141  0.77237227  1
  O  O374  1  0.38460182  0.26591002  0.25786016  1
  O  O375  1  0.38012066  0.25294713  0.73110431  1
  O  O376  1  0.38044581  0.74270805  0.24019061  1
  O  O377  1  0.37116662  0.73293680  0.73229763  1
  O  O378  1  0.89027086  0.25645082  0.25834652  1
  O  O379  1  0.87669680  0.24048664  0.73981846  1
  O  O380  1  0.89178326  0.73891145  0.23486720  1
  O  O381  1  0.85160918  0.73771931  0.74689523  1
  O  O382  1  0.37946564  0.49512392  0.49202169  1
  O  O383  1  0.39121190  0.48887537  1.00681457  1
  O  O384  1  0.38416551  1.00459645  0.47703277  1
  O  O385  1  0.36359783  0.99099429  1.00423505  1
  O  O386  1  0.87586804  0.48688629  0.50483828  1
  O  O387  1  0.88443424  0.49166662  0.99865713  1
  O  O388  1  0.88693340  1.00326802  0.51210583  1
  O  O389  1  0.87010313  0.98687574  1.00442578  1
  O  O390  1  0.12594645  0.02013431  0.01328924  1
  O  O391  1  0.12232952  0.00652886  0.50893634  1
  O  O392  1  0.11912305  0.50604661  0.00574194  1
  O  O393  1  0.13290514  0.52511482  0.48373459  1
  O  O394  1  0.63461397  -0.01258868  0.00862509  1
  O  O395  1  0.60636735  0.01288017  0.49973478  1
  O  O396  1  0.60898018  0.48547746  0.00946864  1
  O  O397  1  0.61823094  0.49374269  0.50467927  1
  O  O398  1  0.36651665  0.37598851  0.11606501  1
  O  O399  1  0.37148485  0.36881732  0.60692327  1
  O  O400  1  0.37681838  0.86285033  0.11313342  1
  O  O401  1  0.37370123  0.85877301  0.62075169  1
  O  O402  1  0.86005724  0.38416987  0.11595150  1
  O  O403  1  0.87359925  0.35949010  0.61484136  1
  O  O404  1  0.86782628  0.86598661  0.12579730  1
  O  O405  1  0.88309149  0.87178932  0.61662275  1
  O  O406  1  0.13196924  0.12552672  0.38196703  1
  O  O407  1  0.12392240  0.13101706  0.89092847  1
  O  O408  1  0.13703225  0.63478429  0.37227217  1
  O  O409  1  0.13443083  0.62077303  0.88680976  1
  O  O410  1  0.62950445  0.12528795  0.35391039  1
  O  O411  1  0.61999937  0.13872886  0.87145514  1
  O  O412  1  0.62852077  0.61401035  0.39065936  1
  O  O413  1  0.63755240  0.63122815  0.87641161  1
