# generated using pymatgen
data_V79Zn79O256
_symmetry_space_group_name_H-M   'P 1'
_cell_length_a   16.87842601
_cell_length_b   16.90927769
_cell_length_c   16.90039573
_cell_angle_alpha   89.89442313
_cell_angle_beta   90.11961700
_cell_angle_gamma   90.00423012
_symmetry_Int_Tables_number   1
_chemical_formula_structural   V79Zn79O256
_chemical_formula_sum   'V79 Zn79 O256'
_cell_volume   4823.38790242
_cell_formula_units_Z   1
loop_
 _symmetry_equiv_pos_site_id
 _symmetry_equiv_pos_as_xyz
  1  'x, y, z'
loop_
 _atom_site_type_symbol
 _atom_site_label
 _atom_site_symmetry_multiplicity
 _atom_site_fract_x
 _atom_site_fract_y
 _atom_site_fract_z
 _atom_site_occupancy
  V  V0  1  0.12366247  0.37170429  0.25015277  1
  V  V1  1  -0.00354718  0.00346900  0.50358981  1
  V  V2  1  0.50171809  0.12642330  0.62345796  1
  V  V3  1  0.11397182  0.62702058  0.00925244  1
  V  V4  1  0.38380936  0.00030470  0.87745803  1
  V  V5  1  0.62975793  0.24666482  0.87487970  1
  V  V6  1  0.86860205  0.12928778  0.74686683  1
  V  V7  1  0.50077573  0.25819918  0.74367368  1
  V  V8  1  0.75693100  0.62771343  0.36858152  1
  V  V9  1  0.37559991  0.38194915  -0.00745098  1
  V  V10  1  0.10609869  0.50665653  0.12830604  1
  V  V11  1  0.37874831  0.13101615  0.74799590  1
  V  V12  1  0.50636875  0.50051165  0.00673258  1
  V  V13  1  0.24906861  0.76105816  0.52467788  1
  V  V14  1  0.25300791  0.64286657  0.36841275  1
  V  V15  1  0.62154637  0.62381362  0.49499162  1
  V  V16  1  0.50287036  0.86986407  0.87259685  1
  V  V17  1  0.49312784  0.73618180  0.27298812  1
  V  V18  1  0.75451646  0.25704390  0.01590705  1
  V  V19  1  0.37601577  0.49573508  0.37732643  1
  V  V20  1  0.12685430  0.87489936  0.74288833  1
  V  V21  1  0.36830247  0.89042834  0.50892075  1
  V  V22  1  0.74635728  0.87384021  0.12722831  1
  V  V23  1  0.00173678  0.73520596  0.25705328  1
  V  V24  1  0.75310529  0.61426415  0.86551039  1
  V  V25  1  0.24956584  0.38209629  0.12076051  1
  V  V26  1  0.25665491  0.50400978  0.25181882  1
  V  V27  1  0.86657775  0.25290230  0.59759894  1
  V  V28  1  0.12238530  0.13505294  0.48688645  1
  V  V29  1  0.61717774  -0.00443276  0.12195889  1
  V  V30  1  0.00098785  0.25024934  0.24919023  1
  V  V31  1  0.62741463  0.13038182  0.50139490  1
  V  V32  1  0.65640337  0.49016800  0.62526977  1
  V  V33  1  0.75289494  -0.00113195  0.25469758  1
  V  V34  1  0.94283962  0.42612523  -0.01845105  1
  V  V35  1  0.86722697  0.75928154  0.62942335  1
  V  V36  1  0.87284846  0.13290188  0.25096170  1
  V  V37  1  0.62621503  0.12310573  -0.00237050  1
  V  V38  1  0.63135664  -0.00267579  0.62185091  1
  V  V39  1  0.49028680  0.90871002  0.38003013  1
  V  V40  1  0.00457512  0.87928485  0.37262168  1
  V  V41  1  0.75291687  0.12141950  0.37807380  1
  V  V42  1  0.87795229  0.73884188  0.13429085  1
  V  V43  1  0.62651815  0.25121594  0.37627982  1
  V  V44  1  0.64075682  0.37828304  0.24146598  1
  V  V45  1  -0.00845154  0.11985340  0.11700463  1
  V  V46  1  0.00581413  0.62492958  0.62631956  1
  V  V47  1  0.24642344  0.35565278  0.62364497  1
  V  V48  1  0.37297352  0.25257128  0.11938238  1
  V  V49  1  0.02820240  0.35752636  0.85500037  1
  V  V50  1  0.74698696  0.75407624  0.49968618  1
  V  V51  1  0.25756352  0.75484995  0.00405099  1
  V  V52  1  0.36819991  0.12451469  0.25655924  1
  V  V53  1  0.48076417  0.63075097  0.12517611  1
  V  V54  1  0.50215901  0.38363847  0.86913694  1
  V  V55  1  0.26076514  0.24744305  0.47671351  1
  V  V56  1  0.49623948  0.11991131  0.11867031  1
  V  V57  1  0.11438075  -0.00759518  0.12184675  1
  V  V58  1  0.00147543  0.37378898  0.37583943  1
  V  V59  1  0.12592617  0.00549197  0.62405214  1
  V  V60  1  0.88127961  0.87696051  0.00270590  1
  V  V61  1  0.00507339  0.50012130  0.50331183  1
  V  V62  1  0.25707744  -0.00717116  0.74281577  1
  V  V63  1  0.63571567  0.61678898  0.01622039  1
  V  V64  1  0.62310299  0.74576426  0.87248564  1
  V  V65  1  0.24634603  0.50066535  0.73182031  1
  V  V66  1  0.49453556  0.49136319  0.51488836  1
  V  V67  1  0.74171477  -0.01546437  0.75867765  1
  V  V68  1  0.49905266  0.25485226  0.24836738  1
  V  V69  1  0.87943810  0.50624201  0.36493308  1
  V  V70  1  0.12566977  0.75317615  0.87735885  1
  V  V71  1  0.87033843  0.88081466  0.49767624  1
  V  V72  1  0.25417982  0.87544341  0.12496467  1
  V  V73  1  0.37975439  0.87950954  0.00199893  1
  V  V74  1  0.12827130  0.63113881  0.49867472  1
  V  V75  1  0.87775802  0.00081769  0.87926502  1
  V  V76  1  0.24831756  0.00969831  0.25883461  1
  V  V77  1  0.87322480  0.61306735  0.75157659  1
  V  V78  1  0.25725368  0.61159032  0.88026572  1
  Zn  Zn79  1  0.74190385  0.51813496  0.22157939  1
  Zn  Zn80  1  0.49449992  0.37380867  0.37765007  1
  Zn  Zn81  1  0.24179863  0.12742617  0.87438896  1
  Zn  Zn82  1  0.59761683  0.83763006  0.71172728  1
  Zn  Zn83  1  0.82285474  0.40896961  0.53207028  1
  Zn  Zn84  1  0.13578010  0.86769248  0.26058568  1
  Zn  Zn85  1  0.02693482  0.17898516  0.68157482  1
  Zn  Zn86  1  0.67130162  0.37070411  0.74501722  1
  Zn  Zn87  1  0.62302733  0.87114517  0.27142806  1
  Zn  Zn88  1  0.23123355  0.25544001  -0.01975780  1
  Zn  Zn89  1  -0.00335013  0.75291187  0.75275959  1
  Zn  Zn90  1  0.12530435  0.12575745  -0.00415165  1
  Zn  Zn91  1  0.75361349  0.74661089  0.00217798  1
  Zn  Zn92  1  0.45302945  0.69513431  0.66942706  1
  Zn  Zn93  1  0.00330600  0.87680061  0.87987026  1
  Zn  Zn94  1  0.17534355  0.19524972  0.15836976  1
  Zn  Zn95  1  0.19084511  0.18783332  0.69899090  1
  Zn  Zn96  1  0.18656892  0.69140100  0.18996983  1
  Zn  Zn97  1  0.19043294  0.68125993  0.69581587  1
  Zn  Zn98  1  0.68600591  0.18720238  0.18805480  1
  Zn  Zn99  1  0.69568103  0.18639263  0.69241255  1
  Zn  Zn100  1  0.67864149  0.70092540  0.19693210  1
  Zn  Zn101  1  0.65677522  0.69344872  0.66866034  1
  Zn  Zn102  1  0.31301454  0.31479646  0.30793187  1
  Zn  Zn103  1  0.30501096  0.32045488  0.80863046  1
  Zn  Zn104  1  0.32698796  0.82144034  0.30932794  1
  Zn  Zn105  1  0.31501534  0.80836448  0.80767898  1
  Zn  Zn106  1  0.79684020  0.32957882  0.35938943  1
  Zn  Zn107  1  0.82382986  0.30677456  0.84978092  1
  Zn  Zn108  1  0.81573666  0.81351509  0.31560927  1
  Zn  Zn109  1  0.80477038  0.80974039  0.81486767  1
  Zn  Zn110  1  0.18723493  0.43630147  0.44269367  1
  Zn  Zn111  1  0.15590170  0.43665480  0.93641446  1
  Zn  Zn112  1  0.18611712  0.93956157  0.44014964  1
  Zn  Zn113  1  0.17870005  0.95902568  0.92436167  1
  Zn  Zn114  1  0.67813046  0.44550911  0.42568740  1
  Zn  Zn115  1  0.68940490  0.43304281  0.93580115  1
  Zn  Zn116  1  0.68030840  0.93946148  0.44131467  1
  Zn  Zn117  1  0.68776014  0.93415254  0.94326746  1
  Zn  Zn118  1  0.30717810  0.06119699  0.06322569  1
  Zn  Zn119  1  0.30864702  0.07378891  0.56225151  1
  Zn  Zn120  1  0.31057999  0.56309459  0.05253919  1
  Zn  Zn121  1  0.32352663  0.57540431  0.56737171  1
  Zn  Zn122  1  0.80691170  0.06269360  0.06216849  1
  Zn  Zn123  1  0.81113607  0.06572103  0.56904591  1
  Zn  Zn124  1  0.81988987  0.55667625  0.05393450  1
  Zn  Zn125  1  0.82126634  0.57625950  0.55682134  1
  Zn  Zn126  1  0.43911825  0.44233589  0.18602213  1
  Zn  Zn127  1  0.41568919  0.44137341  0.69038341  1
  Zn  Zn128  1  0.43415940  0.93437975  0.19591208  1
  Zn  Zn129  1  0.44301810  0.93915616  0.68637057  1
  Zn  Zn130  1  0.89855039  0.44526896  0.16097267  1
  Zn  Zn131  1  0.88361527  0.39881887  0.72415259  1
  Zn  Zn132  1  0.93021582  0.93597906  0.19190306  1
  Zn  Zn133  1  0.93999328  0.94264516  0.69216971  1
  Zn  Zn134  1  0.06224601  0.05863523  0.31095049  1
  Zn  Zn135  1  0.06624470  0.08264110  0.81030032  1
  Zn  Zn136  1  0.07235233  0.56070414  0.31817330  1
  Zn  Zn137  1  0.05971871  0.55409439  0.81486885  1
  Zn  Zn138  1  0.56485649  0.06736549  0.30502122  1
  Zn  Zn139  1  0.56017065  0.06137741  0.81164150  1
  Zn  Zn140  1  0.56339853  0.55963969  0.31075270  1
  Zn  Zn141  1  0.57181914  0.55650943  0.80200167  1
  Zn  Zn142  1  0.44160579  0.18172001  0.43676045  1
  Zn  Zn143  1  0.43639195  0.19361130  0.93220655  1
  Zn  Zn144  1  0.42332946  0.68217747  0.46465186  1
  Zn  Zn145  1  0.43193302  0.66960558  0.82845459  1
  Zn  Zn146  1  0.94040004  0.18624413  0.43296259  1
  Zn  Zn147  1  0.93424090  0.18634066  0.92861479  1
  Zn  Zn148  1  0.93695129  0.69301058  0.43916497  1
  Zn  Zn149  1  0.93403427  0.68973287  0.93930129  1
  Zn  Zn150  1  0.04090355  0.28979494  0.03572745  1
  Zn  Zn151  1  0.06087920  0.32069560  0.57385267  1
  Zn  Zn152  1  0.06244923  0.80899913  0.06999392  1
  Zn  Zn153  1  0.05957786  0.81230654  0.56297824  1
  Zn  Zn154  1  0.56515248  0.31216418  0.06198952  1
  Zn  Zn155  1  0.56986916  0.31640476  0.56373190  1
  Zn  Zn156  1  0.56193327  0.80540500  0.05693939  1
  Zn  Zn157  1  0.55413577  0.81230462  0.54380182  1
  O  O158  1  0.10806335  0.10425915  0.13061096  1
  O  O159  1  0.12009345  0.11177431  0.61593489  1
  O  O160  1  0.12866824  0.62214854  0.11810682  1
  O  O161  1  0.11421147  0.63624819  0.61717861  1
  O  O162  1  0.61430478  0.11670658  0.12070028  1
  O  O163  1  0.62371763  0.12476402  0.61773062  1
  O  O164  1  0.64374480  0.62160042  0.11606703  1
  O  O165  1  0.63928738  0.60173671  0.60474593  1
  O  O166  1  0.37482986  0.38905370  0.37248517  1
  O  O167  1  0.38671301  0.37035066  0.88562840  1
  O  O168  1  0.38370205  0.88494953  0.38477763  1
  O  O169  1  0.38433513  0.87977992  0.88128929  1
  O  O170  1  0.89515754  0.38741527  0.37265767  1
  O  O171  1  0.90135502  0.37018334  0.90505642  1
  O  O172  1  0.88311101  0.87381278  0.39013300  1
  O  O173  1  0.87121880  0.87695639  0.88733836  1
  O  O174  1  0.24246107  -0.00101138  0.35761358  1
  O  O175  1  0.27136036  -0.00288047  0.86073116  1
  O  O176  1  0.25605056  0.50133434  0.36857661  1
  O  O177  1  0.24086066  0.51272653  0.89458149  1
  O  O178  1  0.73585931  0.01020282  0.36544705  1
  O  O179  1  0.75009675  -0.00779799  0.86468096  1
  O  O180  1  0.76339640  0.51604203  0.37519069  1
  O  O181  1  0.74701953  0.51548252  0.87622484  1
  O  O182  1  0.25348651  0.49518270  0.13312691  1
  O  O183  1  0.24675950  0.52574369  0.63205705  1
  O  O184  1  0.23525234  0.99188214  0.13081162  1
  O  O185  1  0.24239609  1.00601086  0.63485996  1
  O  O186  1  0.79167846  0.48149585  0.13078565  1
  O  O187  1  0.75782347  0.49047286  0.60702813  1
  O  O188  1  0.74050498  0.99117720  0.13383520  1
  O  O189  1  0.73769200  1.00246549  0.63585887  1
  O  O190  1  0.00697912  0.36565298  0.25284220  1
  O  O191  1  -0.01375158  0.35040449  0.76277330  1
  O  O192  1  -0.00472299  0.87745445  0.26734544  1
  O  O193  1  0.01342574  0.87406247  0.75421847  1
  O  O194  1  0.50094427  0.36319548  0.24809528  1
  O  O195  1  0.48908077  0.37017952  0.75580597  1
  O  O196  1  0.49477734  0.87315554  0.27375783  1
  O  O197  1  0.50633749  0.87964032  0.76652947  1
  O  O198  1  0.49214807  0.13470103  0.23819883  1
  O  O199  1  0.49854502  0.13704690  0.74321383  1
  O  O200  1  0.50496359  0.62945722  0.23685240  1
  O  O201  1  0.49678186  0.61932165  0.75080117  1
  O  O202  1  0.99141287  0.12911475  0.25036481  1
  O  O203  1  0.97159163  0.09424014  0.74406823  1
  O  O204  1  1.00205312  0.63656071  0.26304741  1
  O  O205  1  0.99102665  0.62818197  0.74639646  1
  O  O206  1  0.38117448  0.26331476  0.01023979  1
  O  O207  1  0.36009484  0.23962244  0.49181372  1
  O  O208  1  0.35949024  0.76597120  -0.00217821  1
  O  O209  1  0.35010081  0.77048610  0.49011438  1
  O  O210  1  0.84953849  0.23225257  -0.00952271  1
  O  O211  1  0.86409265  0.24342407  0.49695616  1
  O  O212  1  0.87366742  0.75720516  0.01665789  1
  O  O213  1  0.86636911  0.75797281  0.50902447  1
  O  O214  1  0.11673246  0.23535681  0.50155412  1
  O  O215  1  0.13868525  0.23259168  1.04365622  1
  O  O216  1  0.13781623  0.74719829  0.50364225  1
  O  O217  1  0.13273342  0.74757716  0.99834250  1
  O  O218  1  0.62009766  0.24313100  0.48724692  1
  O  O219  1  0.62907701  0.24272475  0.99545223  1
  O  O220  1  0.63160726  0.73187880  0.49927270  1
  O  O221  1  0.63012943  0.72967584  0.99495237  1
  O  O222  1  0.49173628  0.24365482  0.13091243  1
  O  O223  1  0.51081444  0.24428125  0.63548484  1
  O  O224  1  0.50374180  0.73016258  0.12067368  1
  O  O225  1  0.55204087  0.75243864  0.64013898  1
  O  O226  1  0.99975515  0.22691476  0.13449896  1
  O  O227  1  0.98023305  0.24806008  0.61061259  1
  O  O228  1  0.98648797  0.75536875  0.14148408  1
  O  O229  1  0.98765528  0.74177122  0.62545470  1
  O  O230  1  -0.00280818  0.25984859  0.36186377  1
  O  O231  1  0.01511949  0.26147715  0.91119762  1
  O  O232  1  -0.00817132  0.76213411  0.36447197  1
  O  O233  1  0.01318227  0.75270412  0.87610957  1
  O  O234  1  0.50743901  0.24787706  0.36431390  1
  O  O235  1  0.50858439  0.26202498  0.86632023  1
  O  O236  1  0.48894209  0.72736068  0.37271845  1
  O  O237  1  0.51727818  0.75065913  0.87539494  1
  O  O238  1  0.23420001  0.13970985  0.50343653  1
  O  O239  1  0.25011181  0.13053434  0.99652961  1
  O  O240  1  0.24518804  0.64547129  0.49195984  1
  O  O241  1  0.23997482  0.63860737  0.99909370  1
  O  O242  1  0.74066077  0.11954610  0.48988577  1
  O  O243  1  0.73079173  0.13107481  1.00801283  1
  O  O244  1  0.74658855  0.63447789  0.48918226  1
  O  O245  1  0.74533918  0.62084179  0.98984823  1
  O  O246  1  0.25690719  0.37797814  0.00902309  1
  O  O247  1  0.23830131  0.35048731  0.50247578  1
  O  O248  1  0.25459401  0.87358084  0.00783225  1
  O  O249  1  0.25004141  0.86939638  0.50508543  1
  O  O250  1  0.74628473  0.35697266  -0.00365334  1
  O  O251  1  0.75190746  0.36809128  0.45876295  1
  O  O252  1  0.75729431  0.87041424  0.01405965  1
  O  O253  1  0.75528768  0.86528390  0.49036432  1
  O  O254  1  0.13603895  0.49664276  0.24361848  1
  O  O255  1  0.14686793  0.51059647  0.75782442  1
  O  O256  1  0.13471280  0.99450628  0.24411147  1
  O  O257  1  0.13547131  0.99336194  0.74171914  1
  O  O258  1  0.63330214  0.48422840  0.25575772  1
  O  O259  1  0.64092917  0.49793289  0.72844528  1
  O  O260  1  0.63236733  0.99774698  0.23830477  1
  O  O261  1  0.63497517  1.00631524  0.74175618  1
  O  O262  1  0.35817944  0.01108634  0.24071333  1
  O  O263  1  0.37493636  0.00508244  0.75392251  1
  O  O264  1  0.36447378  0.49946600  0.25743885  1
  O  O265  1  0.34807451  0.50224877  0.76002096  1
  O  O266  1  0.85825928  0.00711591  0.25018060  1
  O  O267  1  0.85803067  -0.00858955  0.76096940  1
  O  O268  1  0.87990047  0.49907597  0.26453009  1
  O  O269  1  0.87943331  0.51600729  0.74423526  1
  O  O270  1  0.11602061  0.38660557  0.35861416  1
  O  O271  1  0.13100931  0.36003320  0.85301400  1
  O  O272  1  0.10933802  0.87428838  0.37817179  1
  O  O273  1  0.12602445  0.86955868  0.86836665  1
  O  O274  1  0.61583448  0.36446203  0.36011567  1
  O  O275  1  0.61787513  0.36652036  0.86745214  1
  O  O276  1  0.59805441  0.88260704  0.38666558  1
  O  O277  1  0.61852876  0.85607518  0.89171859  1
  O  O278  1  0.37936641  0.13396643  0.12892363  1
  O  O279  1  0.38922258  0.11783734  0.63574728  1
  O  O280  1  0.38196751  0.62730304  0.11881241  1
  O  O281  1  0.40270822  0.65240728  0.57762397  1
  O  O282  1  0.88554135  0.10958544  0.13523656  1
  O  O283  1  0.87176091  0.13859915  0.63604606  1
  O  O284  1  0.86880338  0.64194875  0.12466677  1
  O  O285  1  0.87996785  0.63693477  0.63667533  1
  O  O286  1  0.26535518  0.26744629  0.13417201  1
  O  O287  1  0.25113937  0.25268985  0.62959445  1
  O  O288  1  0.24211695  0.76598840  0.11974126  1
  O  O289  1  0.25211263  0.74982236  0.62310665  1
  O  O290  1  0.74878464  0.24726451  0.11663868  1
  O  O291  1  0.76799227  0.24922528  0.62905302  1
  O  O292  1  0.75893002  0.76024592  0.13310079  1
  O  O293  1  0.75503258  0.74387816  0.61212755  1
  O  O294  1  0.24809503  0.25141941  0.37744651  1
  O  O295  1  0.26226229  0.24126150  0.87370513  1
  O  O296  1  0.25455781  0.74219064  0.35878539  1
  O  O297  1  0.23986823  0.74703496  0.88523792  1
  O  O298  1  0.73469795  0.23158915  0.36249268  1
  O  O299  1  0.73164495  0.24323180  0.88257067  1
  O  O300  1  0.75611555  0.73821065  0.38366709  1
  O  O301  1  0.74322524  0.73847833  0.88402851  1
  O  O302  1  -0.00475663  0.12111333  0.01590113  1
  O  O303  1  0.00664949  0.11247349  0.49348869  1
  O  O304  1  0.01558954  0.63916759  0.00354698  1
  O  O305  1  0.00881477  0.62594864  0.50352919  1
  O  O306  1  0.50401527  0.13251821  0.01367468  1
  O  O307  1  0.51147126  0.13077452  0.51238532  1
  O  O308  1  0.51905787  0.61511009  0.01526307  1
  O  O309  1  0.51957713  0.60833164  0.48961061  1
  O  O310  1  0.50669695  0.38847856  0.49615786  1
  O  O311  1  0.49803631  0.38243982  0.99407731  1
  O  O312  1  0.48232784  0.87791921  0.48770890  1
  O  O313  1  0.48841077  0.86714953  0.99147809  1
  O  O314  1  1.01529316  0.38967024  0.48807341  1
  O  O315  1  1.04762789  0.39405723  0.99105086  1
  O  O316  1  0.99244676  0.87991794  0.49204238  1
  O  O317  1  0.98546593  0.87149066  1.00534427  1
  O  O318  1  0.48829353  0.50027772  0.37581968  1
  O  O319  1  0.51345421  0.48925436  0.88461553  1
  O  O320  1  0.49366427  1.00824841  0.37391983  1
  O  O321  1  0.49319435  0.98820069  0.87373188  1
  O  O322  1  0.99760872  0.49884290  0.38256089  1
  O  O323  1  1.01312320  0.46725136  0.87118778  1
  O  O324  1  1.00026045  0.98799472  0.38666160  1
  O  O325  1  0.97888432  0.99248674  0.87378021  1
  O  O326  1  0.00629115  0.00338388  0.13732843  1
  O  O327  1  0.01013941  -0.00766115  0.61239281  1
  O  O328  1  0.00882677  0.50216549  0.13991599  1
  O  O329  1  -0.00654826  0.51919132  0.61028391  1
  O  O330  1  0.50623506  0.00705725  0.13461336  1
  O  O331  1  0.51889222  0.01739077  0.63852244  1
  O  O332  1  0.50001680  0.51285000  0.11821135  1
  O  O333  1  0.49555946  0.49286000  0.61506060  1
  O  O334  1  0.24434711  0.38473869  0.24252577  1
  O  O335  1  0.24855667  0.38648477  0.73351709  1
  O  O336  1  0.25470513  0.88631912  0.24210035  1
  O  O337  1  0.24272580  0.88389554  0.75373685  1
  O  O338  1  0.73995528  0.36573375  0.25796113  1
  O  O339  1  0.78067125  0.37451253  0.77025893  1
  O  O340  1  0.74508175  0.88060886  0.24737785  1
  O  O341  1  0.73795801  0.88284131  0.74920797  1
  O  O342  1  0.25203679  0.11560385  0.23730373  1
  O  O343  1  0.26677768  0.11283543  0.75169785  1
  O  O344  1  0.24287159  0.61763108  0.26141603  1
  O  O345  1  0.24940105  0.62121522  0.77426377  1
  O  O346  1  0.75344426  0.11732518  0.25433123  1
  O  O347  1  0.76213908  0.10747739  0.75022680  1
  O  O348  1  0.74089552  0.62941354  0.26486208  1
  O  O349  1  0.76196949  0.62605034  0.75795121  1
  O  O350  1  0.37801525  0.12989501  0.35526998  1
  O  O351  1  0.38884674  0.11417064  0.86281731  1
  O  O352  1  0.35539852  0.61497379  0.38459004  1
  O  O353  1  0.35619164  0.62395385  0.89865245  1
  O  O354  1  0.86192772  0.12617931  0.36641166  1
  O  O355  1  0.87271623  0.10501602  0.87018416  1
  O  O356  1  0.86551796  0.62194444  0.37943389  1
  O  O357  1  0.86637081  0.63332781  0.86232672  1
  O  O358  1  0.13712745  0.39120621  0.13483235  1
  O  O359  1  0.14499774  0.38269691  0.61752908  1
  O  O360  1  0.12928216  0.88134180  0.13511444  1
  O  O361  1  0.12201129  0.88325424  0.63475046  1
  O  O362  1  0.62237673  0.36856188  0.14239255  1
  O  O363  1  0.63644462  0.38607702  0.62532851  1
  O  O364  1  0.63146488  0.87993712  0.11991276  1
  O  O365  1  0.61874208  0.89602415  0.61298021  1
  O  O366  1  0.11623943  0.26228562  0.23782395  1
  O  O367  1  0.10259012  0.18725081  0.76494881  1
  O  O368  1  0.10568343  0.75493963  0.24517194  1
  O  O369  1  0.12740904  0.75843853  0.76002693  1
  O  O370  1  0.61563056  0.25324490  0.25527763  1
  O  O371  1  0.61996632  0.25315947  0.75650733  1
  O  O372  1  0.59959064  0.76017618  0.24972123  1
  O  O373  1  0.64356735  0.74824612  0.77071031  1
  O  O374  1  0.38143040  0.24635658  0.24012125  1
  O  O375  1  0.38825135  0.24032415  0.75441408  1
  O  O376  1  0.39742741  0.75672221  0.24487486  1
  O  O377  1  0.38627802  0.74422997  0.75336813  1
  O  O378  1  0.88366037  0.23593981  0.24785215  1
  O  O379  1  0.87480776  0.22547011  0.77236893  1
  O  O380  1  0.88341440  0.75378874  0.24232863  1
  O  O381  1  0.87371432  0.74910350  0.74171799  1
  O  O382  1  0.38955879  0.50526831  0.49227643  1
  O  O383  1  0.38940649  0.48979059  1.00396445  1
  O  O384  1  0.35484193  0.99023746  0.49952307  1
  O  O385  1  0.37020520  0.99055822  0.98964862  1
  O  O386  1  0.88833127  0.50369603  0.49010518  1
  O  O387  1  0.90602797  0.52056386  0.98925248  1
  O  O388  1  0.88152117  0.99135283  0.51253866  1
  O  O389  1  0.86084610  0.99139164  0.98765347  1
  O  O390  1  0.11908682  -0.01331074  0.02201811  1
  O  O391  1  0.11933994  0.00742510  0.50644546  1
  O  O392  1  0.12864353  0.52151716  0.01407377  1
  O  O393  1  0.11832134  0.51794708  0.49543000  1
  O  O394  1  0.62805070  0.00680677  0.01321405  1
  O  O395  1  0.62900617  0.01517453  0.51458968  1
  O  O396  1  0.62209139  0.50885333  -0.00111838  1
  O  O397  1  0.61752443  0.50075351  0.50883419  1
  O  O398  1  0.37091636  0.37246378  0.11691081  1
  O  O399  1  0.34364262  0.39136419  0.61384589  1
  O  O400  1  0.36496627  0.88686092  0.11513437  1
  O  O401  1  0.38657611  0.87882750  0.60864629  1
  O  O402  1  0.91614527  0.37850715  0.06928043  1
  O  O403  1  0.88014245  0.35914278  0.61504625  1
  O  O404  1  0.86327164  0.87347725  0.12130247  1
  O  O405  1  0.88077084  0.86582990  0.61607124  1
  O  O406  1  0.12153858  0.12195176  0.38749580  1
  O  O407  1  0.13698324  0.07239441  0.89533968  1
  O  O408  1  0.14193095  0.62617827  0.38587178  1
  O  O409  1  0.13011314  0.63464376  0.89140906  1
  O  O410  1  0.62775114  0.13106094  0.38191022  1
  O  O411  1  0.60765540  0.13337040  0.88855549  1
  O  O412  1  0.64178108  0.60940086  0.38803878  1
  O  O413  1  0.63705130  0.63025082  0.87822757  1
