# generated using pymatgen
data_V79Zn79O256
_symmetry_space_group_name_H-M   'P 1'
_cell_length_a   16.91509458
_cell_length_b   17.00301747
_cell_length_c   16.94571053
_cell_angle_alpha   90.08573872
_cell_angle_beta   89.95968293
_cell_angle_gamma   90.03657974
_symmetry_Int_Tables_number   1
_chemical_formula_structural   V79Zn79O256
_chemical_formula_sum   'V79 Zn79 O256'
_cell_volume   4873.70830689
_cell_formula_units_Z   1
loop_
 _symmetry_equiv_pos_site_id
 _symmetry_equiv_pos_as_xyz
  1  'x, y, z'
loop_
 _atom_site_type_symbol
 _atom_site_label
 _atom_site_symmetry_multiplicity
 _atom_site_fract_x
 _atom_site_fract_y
 _atom_site_fract_z
 _atom_site_occupancy
  V  V0  1  0.13512851  0.49392138  0.12181117  1
  V  V1  1  0.62360780  0.50619739  0.11386111  1
  V  V2  1  0.25129569  0.63427236  0.87887743  1
  V  V3  1  -0.01022098  0.00137015  0.49492769  1
  V  V4  1  0.75262251  0.24851021  0.00522423  1
  V  V5  1  0.37325679  0.36548631  0.01728954  1
  V  V6  1  0.87235889  0.51425689  0.87922521  1
  V  V7  1  0.75026982  0.51785193  0.75772654  1
  V  V8  1  0.12625290  0.75059205  0.36300900  1
  V  V9  1  0.26146363  0.61948364  0.37432078  1
  V  V10  1  0.50448446  0.75410363  0.75065682  1
  V  V11  1  0.00049509  0.87240155  0.87636691  1
  V  V12  1  0.12500680  0.87315452  0.76246534  1
  V  V13  1  0.74161585  0.87476878  0.62289145  1
  V  V14  1  -0.00092525  0.37293811  0.37246389  1
  V  V15  1  0.49514012  0.00614639  0.00422691  1
  V  V16  1  0.49584727  0.86626847  0.37577195  1
  V  V17  1  0.01766756  0.00255347  -0.00279298  1
  V  V18  1  0.26227515  0.49522208  0.25207626  1
  V  V19  1  0.76117535  0.63443302  0.37079567  1
  V  V20  1  0.13027432  0.63714804  0.00154104  1
  V  V21  1  0.75102201  0.87280375  0.13099781  1
  V  V22  1  0.25227768  0.24983570  0.49757177  1
  V  V23  1  0.62596888  0.25085340  0.87406368  1
  V  V24  1  0.61711518  0.89370535  0.74597917  1
  V  V25  1  0.24581879  0.24162783  0.00553973  1
  V  V26  1  -0.00138720  0.36570756  0.86969825  1
  V  V27  1  0.12401512  0.12661171  0.49843732  1
  V  V28  1  0.38738292  0.24513565  0.62258688  1
  V  V29  1  0.62144268  0.37398507  0.75289391  1
  V  V30  1  0.37524639  0.49432196  0.88291237  1
  V  V31  1  0.50476608  0.01978659  0.50327169  1
  V  V32  1  0.24846335  0.87776807  0.62395911  1
  V  V33  1  0.87621788  0.37764683  0.50466604  1
  V  V34  1  0.25643935  0.50029932  0.75512004  1
  V  V35  1  0.49239861  0.62461565  0.63479628  1
  V  V36  1  0.61791987  0.87078836  0.25051907  1
  V  V37  1  0.23810466  -0.01614668  0.24735452  1
  V  V38  1  0.37034113  0.74914408  0.63427099  1
  V  V39  1  0.75913794  0.10023400  0.87699752  1
  V  V40  1  0.62604859  0.11986935  0.00008584  1
  V  V41  1  0.37854071  0.37879733  0.48943821  1
  V  V42  1  0.12978179  0.62432000  0.50381341  1
  V  V43  1  0.38818000  0.63079092  0.24312929  1
  V  V44  1  0.00072649  0.87736985  0.36403690  1
  V  V45  1  0.49337180  0.87893628  0.88114662  1
  V  V46  1  0.12852695  0.49845671  0.62611699  1
  V  V47  1  0.86132535  0.11375624  0.24906673  1
  V  V48  1  0.62319839  0.38262830  0.26646703  1
  V  V49  1  0.00625931  0.11846417  0.12261612  1
  V  V50  1  0.37191578  0.77143246  0.09754020  1
  V  V51  1  0.76074162  0.50897024  0.25194858  1
  V  V52  1  0.13309455  0.37173892  0.24476943  1
  V  V53  1  0.75389377  0.23987831  0.49762647  1
  V  V54  1  0.11684895  0.36902611  0.75163372  1
  V  V55  1  0.38047529  0.00470251  0.37084238  1
  V  V56  1  0.62846258  0.00384715  0.13145502  1
  V  V57  1  0.25492683  0.37149335  0.62852479  1
  V  V58  1  0.62963225  0.23465613  0.37933462  1
  V  V59  1  0.38202110  0.13079482  0.75365028  1
  V  V60  1  0.87140044  0.88130622  0.49961762  1
  V  V61  1  0.00358997  0.62817579  0.13667069  1
  V  V62  1  0.24894245  0.01299913  0.75670307  1
  V  V63  1  0.86419738  0.88722036  -0.00756879  1
  V  V64  1  0.24990515  0.12281287  0.36619472  1
  V  V65  1  0.50007122  0.37400095  0.88309453  1
  V  V66  1  0.25204000  0.75243060  0.49987863  1
  V  V67  1  0.74842930  0.75221302  0.50151874  1
  V  V68  1  0.49662906  0.49793129  0.49128151  1
  V  V69  1  -0.01069847  0.25019234  0.24042272  1
  V  V70  1  0.12492377  0.24825755  0.37317944  1
  V  V71  1  -0.02197142  0.13302655  0.62289549  1
  V  V72  1  0.00672364  0.50033826  0.49812165  1
  V  V73  1  0.75713974  0.38189204  0.62554905  1
  V  V74  1  0.87797794  0.36931440  0.00281219  1
  V  V75  1  0.76984102  -0.00654774  0.74585251  1
  V  V76  1  0.12126469  0.00552134  0.62060145  1
  V  V77  1  0.75406413  0.37461261  0.12845602  1
  V  V78  1  0.62172459  0.50381976  0.63099207  1
  Zn  Zn79  1  0.00577719  0.49693166  0.00244841  1
  Zn  Zn80  1  0.50366967  0.62879953  0.10009197  1
  Zn  Zn81  1  0.62002578  0.74524633  0.37048571  1
  Zn  Zn82  1  0.65907368  0.65928309  -0.00207330  1
  Zn  Zn83  1  0.62319095  0.62774087  0.49831649  1
  Zn  Zn84  1  0.88543255  0.16062377  0.76294144  1
  Zn  Zn85  1  0.36712280  0.00597855  0.88711560  1
  Zn  Zn86  1  -0.04767692  0.67563969  0.67729187  1
  Zn  Zn87  1  0.86876314  0.74262916  0.13194874  1
  Zn  Zn88  1  0.53130591  0.13202854  0.63672577  1
  Zn  Zn89  1  0.48448234  0.26027799  0.23507250  1
  Zn  Zn90  1  0.88534899  0.51288142  0.37088545  1
  Zn  Zn91  1  0.12956240  0.23843081  0.87204582  1
  Zn  Zn92  1  -0.05890948  0.69658142  0.30047501  1
  Zn  Zn93  1  0.37837673  0.87879278  0.50296893  1
  Zn  Zn94  1  0.18658317  0.18613505  0.18335892  1
  Zn  Zn95  1  0.18698863  0.18960528  0.68561983  1
  Zn  Zn96  1  0.20028022  0.68515602  0.18260718  1
  Zn  Zn97  1  0.13964214  0.66669021  0.71758443  1
  Zn  Zn98  1  0.66363002  0.20034206  0.18406271  1
  Zn  Zn99  1  0.72068345  0.19923719  0.69665361  1
  Zn  Zn100  1  0.68758310  0.68996732  0.18531687  1
  Zn  Zn101  1  0.68017717  0.69271775  0.68588136  1
  Zn  Zn102  1  0.31708656  0.30895580  0.30601740  1
  Zn  Zn103  1  0.31183820  0.30661148  0.81755155  1
  Zn  Zn104  1  0.31566081  0.80907328  0.30722873  1
  Zn  Zn105  1  0.31176384  0.82024390  0.81502136  1
  Zn  Zn106  1  0.81098347  0.31469021  0.31432842  1
  Zn  Zn107  1  0.80991863  0.32277424  0.81411459  1
  Zn  Zn108  1  0.80937753  0.82664510  0.31399160  1
  Zn  Zn109  1  0.81609655  0.75376936  0.79547208  1
  Zn  Zn110  1  0.19248559  0.43375959  0.43456227  1
  Zn  Zn111  1  0.19324845  0.42313407  0.93909858  1
  Zn  Zn112  1  0.18322700  0.93753844  0.43198881  1
  Zn  Zn113  1  0.18286871  1.07483523  0.93228765  1
  Zn  Zn114  1  0.69274454  0.45345466  0.44158396  1
  Zn  Zn115  1  0.69352437  0.43653422  0.93708976  1
  Zn  Zn116  1  0.67835165  0.94017795  0.43684737  1
  Zn  Zn117  1  0.68380706  0.82388767  0.92446877  1
  Zn  Zn118  1  0.30775210  0.06487449  0.07033310  1
  Zn  Zn119  1  0.31529400  0.06442841  0.55923287  1
  Zn  Zn120  1  0.31383190  0.55896635  0.06292267  1
  Zn  Zn121  1  0.31377198  0.56259325  0.56527217  1
  Zn  Zn122  1  0.81711162  0.06351022  0.07150586  1
  Zn  Zn123  1  0.68810065  0.06639578  0.56953015  1
  Zn  Zn124  1  0.81936017  0.55552450  0.06856908  1
  Zn  Zn125  1  0.81630783  0.57214659  0.56068583  1
  Zn  Zn126  1  0.44592388  0.44605520  0.18874341  1
  Zn  Zn127  1  0.43801878  0.43270688  0.69163122  1
  Zn  Zn128  1  0.43508697  0.93916578  0.18842981  1
  Zn  Zn129  1  0.43520916  0.94626737  0.68186012  1
  Zn  Zn130  1  0.94336876  0.44068424  0.18617527  1
  Zn  Zn131  1  0.92723059  0.48444759  0.67744458  1
  Zn  Zn132  1  0.93667569  0.94206325  0.18557144  1
  Zn  Zn133  1  0.91925710  0.86995889  0.70281384  1
  Zn  Zn134  1  0.05902946  0.06276638  0.30659580  1
  Zn  Zn135  1  0.04767980  0.06058285  0.80545097  1
  Zn  Zn136  1  0.07770206  0.55899202  0.31463513  1
  Zn  Zn137  1  0.05356026  0.56336599  0.82655537  1
  Zn  Zn138  1  0.70669344  0.05932091  0.31150611  1
  Zn  Zn139  1  0.56244890  0.06653669  0.81897757  1
  Zn  Zn140  1  0.57245650  0.56316676  0.31233952  1
  Zn  Zn141  1  0.55573316  0.56384341  0.82015965  1
  Zn  Zn142  1  0.43224302  0.20132066  0.40993134  1
  Zn  Zn143  1  0.43686924  0.19031084  0.93703440  1
  Zn  Zn144  1  0.43547953  0.68287649  0.44456126  1
  Zn  Zn145  1  0.43047584  0.69318912  0.93079173  1
  Zn  Zn146  1  0.93127799  0.18557575  0.43318180  1
  Zn  Zn147  1  0.93840119  0.18604886  0.94265463  1
  Zn  Zn148  1  0.95776442  0.71030560  0.48375152  1
  Zn  Zn149  1  0.83076514  0.70180928  0.95446442  1
  Zn  Zn150  1  0.06418833  0.30789736  0.06141741  1
  Zn  Zn151  1  0.06238685  0.31118631  0.56475970  1
  Zn  Zn152  1  0.01390807  0.77345605  0.01743062  1
  Zn  Zn153  1  0.06482885  0.81818749  0.56616405  1
  Zn  Zn154  1  0.56262013  0.31123270  0.06857224  1
  Zn  Zn155  1  0.56851835  0.31394837  0.55758430  1
  Zn  Zn156  1  0.55421218  0.81287583  0.06864081  1
  Zn  Zn157  1  0.56094451  0.81551562  0.56010226  1
  O  O158  1  0.10636624  0.12263084  0.13107724  1
  O  O159  1  0.12895548  0.11715485  0.61624750  1
  O  O160  1  0.13030501  0.61379557  0.11898625  1
  O  O161  1  0.14378162  0.61011733  0.61096706  1
  O  O162  1  0.63446273  0.10904846  0.11507468  1
  O  O163  1  0.64203834  0.14233108  0.63715305  1
  O  O164  1  0.62538780  0.61632673  0.12026755  1
  O  O165  1  0.61257759  0.61782720  0.62445196  1
  O  O166  1  0.36717436  0.37867625  0.39186061  1
  O  O167  1  0.38513894  0.37517587  0.88057969  1
  O  O168  1  0.38361458  0.88023472  0.37746193  1
  O  O169  1  0.38835781  0.89038747  0.86498525  1
  O  O170  1  0.88928503  0.37904570  0.38169115  1
  O  O171  1  0.88026493  0.37848479  0.88531811  1
  O  O172  1  0.89272069  0.86971705  0.38676192  1
  O  O173  1  0.88936523  0.87713876  0.88941659  1
  O  O174  1  0.25680978  0.00338454  0.36988056  1
  O  O175  1  0.25039578  0.00407730  0.85941462  1
  O  O176  1  0.24430705  0.51005769  0.36602777  1
  O  O177  1  0.25852791  0.49165134  0.86931406  1
  O  O178  1  0.75222828  -0.02411830  0.36427564  1
  O  O179  1  0.75065256  -0.00100001  0.86179168  1
  O  O180  1  0.75725457  0.51647740  0.36881392  1
  O  O181  1  0.76103184  0.50124604  0.87215743  1
  O  O182  1  0.24479018  0.50092877  0.13873623  1
  O  O183  1  0.24913277  0.49002679  0.63187275  1
  O  O184  1  0.26105612  1.00803185  0.15117423  1
  O  O185  1  0.24296938  0.99335262  0.62635211  1
  O  O186  1  0.74553986  0.49521190  0.13569557  1
  O  O187  1  0.73712319  0.50013236  0.63295469  1
  O  O188  1  0.73352072  0.98783466  0.11326666  1
  O  O189  1  0.74456848  0.98857308  0.63823762  1
  O  O190  1  0.00926617  0.36996164  0.25536769  1
  O  O191  1  0.00975342  0.38540705  0.75862007  1
  O  O192  1  -0.00378280  0.88207685  0.26557932  1
  O  O193  1  0.01346371  0.88903821  0.76457159  1
  O  O194  1  0.52141161  0.38075708  0.24861753  1
  O  O195  1  0.51453125  0.37605205  0.75980503  1
  O  O196  1  0.50405639  0.88334537  0.26601944  1
  O  O197  1  0.50411836  0.87720581  0.74804975  1
  O  O198  1  0.43415478  0.11686252  0.18022817  1
  O  O199  1  0.48584661  0.11686684  0.74514338  1
  O  O200  1  0.48722888  0.61445998  0.25735898  1
  O  O201  1  0.50458460  0.63776101  0.74402148  1
  O  O202  1  0.99095747  0.13128371  0.24067700  1
  O  O203  1  0.98334021  0.11537836  0.73012537  1
  O  O204  1  1.00973654  0.61928651  0.24411117  1
  O  O205  1  1.03674748  0.62308579  0.73697777  1
  O  O206  1  0.37159155  0.25910174  -0.00014755  1
  O  O207  1  0.37138446  0.25878044  0.50351864  1
  O  O208  1  0.36938232  0.76178254  -0.00388603  1
  O  O209  1  0.36509895  0.75212543  0.51117787  1
  O  O210  1  0.86500371  0.25966339  -0.00051182  1
  O  O211  1  0.86565549  0.26780699  0.49349714  1
  O  O212  1  0.89312042  0.77678519  0.01939819  1
  O  O213  1  0.85593257  0.76473548  0.49675378  1
  O  O214  1  0.13239278  0.24727872  0.49274958  1
  O  O215  1  0.14050949  0.25448846  0.99706336  1
  O  O216  1  0.13928678  0.74044873  0.49481640  1
  O  O217  1  0.12652102  0.73507756  1.00425010  1
  O  O218  1  0.64293935  0.25836226  0.48975402  1
  O  O219  1  0.63158429  0.23782933  0.99536314  1
  O  O220  1  0.63432995  0.74947930  0.49766178  1
  O  O221  1  0.62041218  0.76375270  0.99501748  1
  O  O222  1  0.55183993  0.23880295  0.15161443  1
  O  O223  1  0.49163129  0.24641185  0.61488807  1
  O  O224  1  0.47803291  0.74146064  0.11405901  1
  O  O225  1  0.49058449  0.74456871  0.62931520  1
  O  O226  1  1.00445444  0.23842869  0.13191612  1
  O  O227  1  1.00419638  0.23154280  0.61704622  1
  O  O228  1  1.01325073  0.72828889  0.12676626  1
  O  O229  1  1.00025566  0.73273063  0.58819836  1
  O  O230  1  0.00534730  0.25805895  0.36601021  1
  O  O231  1  -0.00167088  0.26243356  0.87784296  1
  O  O232  1  0.00819210  0.75623615  0.38030826  1
  O  O233  1  0.00855272  0.77594577  0.89021528  1
  O  O234  1  0.53062146  0.25422676  0.38473095  1
  O  O235  1  0.51741281  0.25650041  0.87818384  1
  O  O236  1  0.49631026  0.76356522  0.38537254  1
  O  O237  1  0.48692129  0.77034475  0.86186622  1
  O  O238  1  0.24366389  0.13031479  0.49051987  1
  O  O239  1  0.25878505  0.13273103  0.99500624  1
  O  O240  1  0.24995227  0.63036113  0.49342705  1
  O  O241  1  0.24262399  0.61818866  0.99146546  1
  O  O242  1  0.75642900  0.14239296  0.50419187  1
  O  O243  1  0.74659952  0.12819793  0.99487814  1
  O  O244  1  0.75006787  0.63477879  0.49295711  1
  O  O245  1  0.76497783  0.63473543  1.01547260  1
  O  O246  1  0.26671456  0.36260165  0.00727155  1
  O  O247  1  0.25784340  0.37245633  0.51041127  1
  O  O248  1  0.18768510  0.87954569  0.07313234  1
  O  O249  1  0.24698978  0.86786683  0.50726525  1
  O  O250  1  0.75742228  0.36830545  0.00884272  1
  O  O251  1  0.76350604  0.39266193  0.50801595  1
  O  O252  1  0.76170438  0.87831304  0.00148059  1
  O  O253  1  0.74844474  0.87238610  0.50602260  1
  O  O254  1  0.13809002  0.48912531  0.24380461  1
  O  O255  1  0.13811330  0.48578428  0.74001670  1
  O  O256  1  0.13820346  0.99777876  0.25699783  1
  O  O257  1  0.13562610  0.99787033  0.73898403  1
  O  O258  1  0.63839179  0.49497533  0.24274766  1
  O  O259  1  0.62850666  0.49819864  0.75010066  1
  O  O260  1  0.62284793  0.99641218  0.23397774  1
  O  O261  1  0.62018762  0.99410052  0.74751998  1
  O  O262  1  0.36930809  -0.00465203  0.26798091  1
  O  O263  1  0.36023941  0.01337831  0.74270522  1
  O  O264  1  0.36744314  0.50246534  0.24958254  1
  O  O265  1  0.36371737  0.49232901  0.75984147  1
  O  O266  1  0.87194641  0.01446107  0.24805495  1
  O  O267  1  0.86552936  -0.02670849  0.74493680  1
  O  O268  1  0.86596392  0.49671464  0.25256212  1
  O  O269  1  0.86449637  0.49730358  0.77211053  1
  O  O270  1  0.11813144  0.36903551  0.36758257  1
  O  O271  1  0.11454235  0.37597924  0.86696090  1
  O  O272  1  0.11046321  0.86172622  0.38513952  1
  O  O273  1  0.12080691  0.88377240  0.86312390  1
  O  O274  1  0.63008544  0.39398028  0.36616481  1
  O  O275  1  0.61967052  0.37194405  0.87353889  1
  O  O276  1  0.60830826  0.87364003  0.36809554  1
  O  O277  1  0.60661819  0.87888740  0.85513101  1
  O  O278  1  0.38862565  0.14466550  0.12860021  1
  O  O279  1  0.37073280  0.13636406  0.63184423  1
  O  O280  1  0.38598956  0.61456262  0.13546007  1
  O  O281  1  0.38150250  0.63522653  0.62608141  1
  O  O282  1  0.88675588  0.12715334  0.13746300  1
  O  O283  1  0.88218443  0.12945539  0.61148824  1
  O  O284  1  0.90098655  0.62062798  0.12251795  1
  O  O285  1  0.89240296  0.58707537  0.63690187  1
  O  O286  1  0.25185272  0.23999562  0.10912720  1
  O  O287  1  0.25788087  0.25806896  0.61754147  1
  O  O288  1  0.27761918  0.74116094  0.12591258  1
  O  O289  1  0.25522013  0.76199401  0.61781445  1
  O  O290  1  0.73946194  0.26316395  0.11430642  1
  O  O291  1  0.74419284  0.27776742  0.60296500  1
  O  O292  1  0.74572838  0.76977548  0.12256395  1
  O  O293  1  0.74057207  0.76321614  0.61735243  1
  O  O294  1  0.24438921  0.24159850  0.37909871  1
  O  O295  1  0.24755577  0.25451240  0.89233749  1
  O  O296  1  0.24838680  0.74382732  0.38423055  1
  O  O297  1  0.25704284  0.73217516  0.86657781  1
  O  O298  1  0.74695136  0.26027356  0.39128794  1
  O  O299  1  0.73844733  0.25817967  0.89369387  1
  O  O300  1  0.74535466  0.74858311  0.38194824  1
  O  O301  1  0.75414397  0.74601994  0.88032797  1
  O  O302  1  -0.00688513  0.11472182  0.01223465  1
  O  O303  1  0.00338564  0.11986995  0.50012144  1
  O  O304  1  0.02472784  0.61457460  0.01474964  1
  O  O305  1  0.01878354  0.60796406  0.48623960  1
  O  O306  1  0.51152349  0.11581138  -0.01052926  1
  O  O307  1  0.49260621  0.11741143  0.48945642  1
  O  O308  1  0.50424141  0.61532463  -0.02627381  1
  O  O309  1  0.49838357  0.61341038  0.51424697  1
  O  O310  1  0.49410707  0.39049154  0.50849439  1
  O  O311  1  0.49329880  0.36592801  0.99152831  1
  O  O312  1  0.50070953  0.88578876  0.48872165  1
  O  O313  1  0.50324143  0.89036424  0.98534021  1
  O  O314  1  0.99836044  0.37947025  0.49180450  1
  O  O315  1  0.99204509  0.37398840  0.99504980  1
  O  O316  1  0.99076254  0.88521773  0.50032872  1
  O  O317  1  1.00122615  0.89144669  0.99487726  1
  O  O318  1  0.50552122  0.50696420  0.39426179  1
  O  O319  1  0.48573799  0.48494349  0.86851675  1
  O  O320  1  0.48511990  0.99346155  0.38548394  1
  O  O321  1  0.49769599  0.99549138  0.88533882  1
  O  O322  1  1.00858845  0.48810632  0.38025963  1
  O  O323  1  0.98694870  0.48875319  0.88144960  1
  O  O324  1  1.01166808  0.98578231  0.38374328  1
  O  O325  1  1.00221514  0.99607860  0.89140419  1
  O  O326  1  -0.00027023  0.00945367  0.11579699  1
  O  O327  1  0.01155757  0.01459582  0.61092831  1
  O  O328  1  0.01782592  0.50624689  0.12686697  1
  O  O329  1  0.02163784  0.48603426  0.60982025  1
  O  O330  1  0.51146261  -0.00815856  0.11080039  1
  O  O331  1  0.49187873  0.01418047  0.60786284  1
  O  O332  1  0.52054413  0.50445929  0.12403273  1
  O  O333  1  0.50558624  0.50851328  0.63190862  1
  O  O334  1  0.24234690  0.37960856  0.25984176  1
  O  O335  1  0.24732170  0.37884350  0.74163063  1
  O  O336  1  0.25041187  0.88426054  0.25540412  1
  O  O337  1  0.24337374  0.88971720  0.74363561  1
  O  O338  1  0.74671233  0.38683572  0.24580751  1
  O  O339  1  0.73998839  0.39463364  0.74353685  1
  O  O340  1  0.73724607  0.87987494  0.23584097  1
  O  O341  1  0.73156008  0.88306177  0.74385054  1
  O  O342  1  0.24372900  0.12148641  0.26445946  1
  O  O343  1  0.25584464  0.11616260  0.74394525  1
  O  O344  1  0.26415453  0.61401871  0.25714618  1
  O  O345  1  0.23361477  0.60908425  0.76930558  1
  O  O346  1  0.75626812  0.13246368  0.23625915  1
  O  O347  1  0.76100670  0.09975165  0.75820661  1
  O  O348  1  0.74647581  0.62002106  0.25745368  1
  O  O349  1  0.74082944  0.61800466  0.74975150  1
  O  O350  1  0.36315716  0.10885068  0.38315904  1
  O  O351  1  0.37876893  0.12492321  0.85757806  1
  O  O352  1  0.36681090  0.62760274  0.36893428  1
  O  O353  1  0.35758961  0.60959161  0.88294919  1
  O  O354  1  0.87515939  0.13707087  0.34871814  1
  O  O355  1  0.86168488  0.13179354  0.87605139  1
  O  O356  1  0.86812055  0.63253427  0.37582675  1
  O  O357  1  0.88314147  0.61122079  0.88758760  1
  O  O358  1  0.12100253  0.37874705  0.13859778  1
  O  O359  1  0.13727134  0.37877930  0.62827129  1
  O  O360  1  0.13550274  0.86661945  0.12132080  1
  O  O361  1  0.13084008  0.88823825  0.62940072  1
  O  O362  1  0.63897435  0.38879574  0.13329683  1
  O  O363  1  0.62926057  0.38708953  0.63431749  1
  O  O364  1  0.62760639  0.88433092  0.13095269  1
  O  O365  1  0.62643065  0.87642055  0.63547502  1
  O  O366  1  0.11896288  0.25674435  0.25388369  1
  O  O367  1  0.13274972  0.26612565  0.74962094  1
  O  O368  1  0.13752251  0.74023251  0.26484408  1
  O  O369  1  0.13336289  0.77607075  0.74388631  1
  O  O370  1  0.64465351  0.27381255  0.27448992  1
  O  O371  1  0.64187892  0.26638520  0.76416898  1
  O  O372  1  0.62381876  0.76644243  0.24926986  1
  O  O373  1  0.60895807  0.76349738  0.74525435  1
  O  O374  1  0.39880867  0.23738747  0.29746379  1
  O  O375  1  0.37024379  0.23731553  0.74048643  1
  O  O376  1  0.37774658  0.73131227  0.24991848  1
  O  O377  1  0.38221086  0.76011532  0.73887533  1
  O  O378  1  0.88758627  0.25893469  0.24798590  1
  O  O379  1  0.82124849  0.24566727  0.73626293  1
  O  O380  1  0.86998696  0.75961611  0.24346755  1
  O  O381  1  0.89447958  0.76229242  0.72640635  1
  O  O382  1  0.38844897  0.49379105  0.51011842  1
  O  O383  1  0.36856898  0.48028680  0.99183627  1
  O  O384  1  0.38075777  0.99642421  0.49196328  1
  O  O385  1  0.39058062  1.01422727  1.00465762  1
  O  O386  1  0.89241126  0.49388988  0.49241320  1
  O  O387  1  0.87501646  0.48631943  0.99118422  1
  O  O388  1  0.88683278  0.99396972  0.49515109  1
  O  O389  1  0.88149900  0.98872071  1.00657978  1
  O  O390  1  0.11646347  0.00736709  0.00237333  1
  O  O391  1  0.12012333  0.00635115  0.50468935  1
  O  O392  1  0.13215094  0.48815144  0.01471750  1
  O  O393  1  0.12762983  0.50302328  0.50487338  1
  O  O394  1  0.61364969  0.01147188  0.00560461  1
  O  O395  1  0.61186552  0.00773752  0.50128988  1
  O  O396  1  0.63676344  0.49555366  0.01549746  1
  O  O397  1  0.61226212  0.50086637  0.51514723  1
  O  O398  1  0.39126107  0.37364810  0.11538024  1
  O  O399  1  0.36971825  0.36523425  0.62300593  1
  O  O400  1  0.37842554  0.86973325  0.12004316  1
  O  O401  1  0.36390354  0.87024151  0.62424477  1
  O  O402  1  0.86539740  0.38512092  0.11588495  1
  O  O403  1  0.86766971  0.39441087  0.61635669  1
  O  O404  1  0.85671294  0.88551614  0.12193928  1
  O  O405  1  0.85694657  0.88030320  0.60785354  1
  O  O406  1  0.12860631  0.12989368  0.37974623  1
  O  O407  1  0.11464657  0.12779853  0.86362941  1
  O  O408  1  0.13968178  0.63114563  0.38487264  1
  O  O409  1  0.13691688  0.61345167  0.89373946  1
  O  O410  1  0.63651248  0.13716484  0.36486687  1
  O  O411  1  0.64032434  0.13111446  0.87915922  1
  O  O412  1  0.63879169  0.62870703  0.37889606  1
  O  O413  1  0.57544028  0.61851514  0.92345726  1
