# generated using pymatgen
data_V79Zn79O256
_symmetry_space_group_name_H-M   'P 1'
_cell_length_a   16.93138758
_cell_length_b   16.92261918
_cell_length_c   16.94272893
_cell_angle_alpha   89.98338001
_cell_angle_beta   90.19623860
_cell_angle_gamma   89.95342010
_symmetry_Int_Tables_number   1
_chemical_formula_structural   V79Zn79O256
_chemical_formula_sum   'V79 Zn79 O256'
_cell_volume   4854.45842303
_cell_formula_units_Z   1
loop_
 _symmetry_equiv_pos_site_id
 _symmetry_equiv_pos_as_xyz
  1  'x, y, z'
loop_
 _atom_site_type_symbol
 _atom_site_label
 _atom_site_symmetry_multiplicity
 _atom_site_fract_x
 _atom_site_fract_y
 _atom_site_fract_z
 _atom_site_occupancy
  V  V0  1  0.62995086  0.61454501  0.50353702  1
  V  V1  1  0.11382863  0.75935029  0.86050178  1
  V  V2  1  0.24864271  0.75680750  0.00021506  1
  V  V3  1  0.87311664  0.75096550  0.12690951  1
  V  V4  1  0.62881426  0.74923609  0.37569365  1
  V  V5  1  0.49787380  0.88664779  0.87464040  1
  V  V6  1  0.87350579  0.61992491  0.25306047  1
  V  V7  1  0.38357261  0.87792880  0.49966655  1
  V  V8  1  0.62349166  0.62436847  0.00370111  1
  V  V9  1  0.87790977  0.76179942  0.63140165  1
  V  V10  1  0.87498032  0.11822955  0.24263592  1
  V  V11  1  -0.00005115  0.62526260  0.63409813  1
  V  V12  1  -0.00311682  0.24819856  0.24368800  1
  V  V13  1  0.26251241  0.37063490  0.62016538  1
  V  V14  1  0.26369203  0.25147904  0.50204873  1
  V  V15  1  0.76452532  0.26236968  0.01347866  1
  V  V16  1  0.37538710  0.75065204  0.62664469  1
  V  V17  1  0.12925433  0.23763744  0.88266344  1
  V  V18  1  0.25009990  0.74368275  0.49979269  1
  V  V19  1  0.12462362  0.62855759  -0.00224010  1
  V  V20  1  0.14333727  0.11356001  -0.00096928  1
  V  V21  1  0.37107233  0.75687746  0.12481053  1
  V  V22  1  0.63160550  0.87125054  0.74507979  1
  V  V23  1  0.24933724  0.11552389  0.37281251  1
  V  V24  1  0.63162184  0.49795867  0.13222436  1
  V  V25  1  0.00183925  0.62437179  0.12574830  1
  V  V26  1  0.00152513  0.37812450  0.38206510  1
  V  V27  1  0.88240544  0.88256182  -0.00421903  1
  V  V28  1  0.87741547  -0.00241481  0.38933073  1
  V  V29  1  0.62499280  0.75093650  0.87396399  1
  V  V30  1  0.00556212  0.11256608  0.11469844  1
  V  V31  1  0.87826539  0.36892447  0.51291697  1
  V  V32  1  0.11760108  0.49471718  0.62173908  1
  V  V33  1  0.62898331  0.88794936  0.24887344  1
  V  V34  1  0.37220538  0.61975681  0.75661609  1
  V  V35  1  0.36160574  0.61927688  0.26175670  1
  V  V36  1  0.74733668  0.12231761  0.37141963  1
  V  V37  1  0.13438933  0.50507221  0.13283712  1
  V  V38  1  0.39006643  0.00264030  0.37912451  1
  V  V39  1  0.37544261  0.88447082  -0.00783883  1
  V  V40  1  0.12445724  0.24855286  0.37806838  1
  V  V41  1  0.76054296  0.75884255  0.50956109  1
  V  V42  1  0.12108181  0.11357038  0.50753122  1
  V  V43  1  0.49428502  0.13905548  0.61870402  1
  V  V44  1  0.37328500  0.12967769  0.25268569  1
  V  V45  1  0.88097640  0.49903699  0.38172225  1
  V  V46  1  0.73046939  0.37906795  0.62865252  1
  V  V47  1  0.47849118  0.50118025  0.49316024  1
  V  V48  1  0.75407010  0.61994130  0.37534432  1
  V  V49  1  0.12419266  0.36019369  0.74725836  1
  V  V50  1  0.25206478  0.49486424  0.75813869  1
  V  V51  1  -0.01751611  0.12160612  0.61841466  1
  V  V52  1  0.50821484  0.61846361  0.62641309  1
  V  V53  1  0.00011664  0.75512110  0.25325960  1
  V  V54  1  0.37510475  0.25518853  0.10964941  1
  V  V55  1  0.74540030  0.89081649  0.12891783  1
  V  V56  1  0.25195666  0.00243186  0.76261064  1
  V  V57  1  0.49955633  0.74841438  0.75258024  1
  V  V58  1  0.13028413  0.37844670  0.24928283  1
  V  V59  1  0.50171086  0.75482066  0.25261663  1
  V  V60  1  0.62657895  0.23917067  0.86992130  1
  V  V61  1  0.86920448  0.12542868  0.75550453  1
  V  V62  1  0.12942907  0.74615140  0.37638104  1
  V  V63  1  0.48965788  0.48978614  -0.00059153  1
  V  V64  1  0.11946187  0.61981810  0.49985400  1
  V  V65  1  0.23687944  0.88237880  0.62915464  1
  V  V66  1  0.62833477  0.25263514  0.37979319  1
  V  V67  1  0.49818601  0.62501171  0.12853870  1
  V  V68  1  -0.00275090  0.87854866  0.38876687  1
  V  V69  1  0.64301080  0.38054442  0.25019227  1
  V  V70  1  0.74872809  0.75232853  0.00204737  1
  V  V71  1  0.49686929  0.25550958  0.25069940  1
  V  V72  1  0.74942462  0.00180004  0.74843148  1
  V  V73  1  0.75096111  0.61091945  0.87545699  1
  V  V74  1  0.24839918  0.37275033  0.11176055  1
  V  V75  1  0.38099545  0.12769862  0.75888085  1
  V  V76  1  0.61684477  -0.00412305  0.61622255  1
  V  V77  1  0.13689110  0.88563584  0.24858656  1
  V  V78  1  0.86976444  0.61757190  0.75584152  1
  Zn  Zn79  1  0.61896872  0.11032030  0.48806040  1
  Zn  Zn80  1  0.50035966  0.38454403  0.37804219  1
  Zn  Zn81  1  0.51515849  -0.00141830  0.02843118  1
  Zn  Zn82  1  0.62254645  0.39114727  0.75872676  1
  Zn  Zn83  1  0.19470246  0.94987936  0.09444687  1
  Zn  Zn84  1  0.32266726  0.43068121  -0.05949047  1
  Zn  Zn85  1  0.62815253  0.12353242  0.01625901  1
  Zn  Zn86  1  -0.02281503  0.25811572  0.74854249  1
  Zn  Zn87  1  0.48875313  0.35959979  0.85934347  1
  Zn  Zn88  1  0.51023720  0.88393727  0.38175643  1
  Zn  Zn89  1  0.25006938  0.62094320  0.87771422  1
  Zn  Zn90  1  0.75574211  0.24080232  0.50808753  1
  Zn  Zn91  1  -0.01037285  0.49862592  -0.00635006  1
  Zn  Zn92  1  0.87434422  -0.00424011  0.87772472  1
  Zn  Zn93  1  -0.02337363  0.37185134  0.88798216  1
  Zn  Zn94  1  0.18999954  0.18819507  0.18247903  1
  Zn  Zn95  1  0.19812976  0.18081103  0.68581546  1
  Zn  Zn96  1  0.18928165  0.69528013  0.18892491  1
  Zn  Zn97  1  0.18877037  0.68564047  0.68673220  1
  Zn  Zn98  1  0.69656058  0.19648431  0.18213990  1
  Zn  Zn99  1  0.68254132  0.18991903  0.68356922  1
  Zn  Zn100  1  0.68792952  0.68788503  0.18922567  1
  Zn  Zn101  1  0.69330699  0.55902497  0.68662722  1
  Zn  Zn102  1  0.30507735  0.31061278  0.31029578  1
  Zn  Zn103  1  0.31342360  0.29654997  0.81170320  1
  Zn  Zn104  1  0.31659515  0.81249986  0.31555280  1
  Zn  Zn105  1  0.30639277  0.81216294  0.81397357  1
  Zn  Zn106  1  0.81658447  0.30798357  0.31490966  1
  Zn  Zn107  1  0.79611202  0.31080037  0.81738538  1
  Zn  Zn108  1  0.81172522  0.81417976  0.31452872  1
  Zn  Zn109  1  0.81366607  0.80795220  0.81084000  1
  Zn  Zn110  1  0.19229662  0.43624545  0.43815761  1
  Zn  Zn111  1  0.13489485  0.42528846  0.94749494  1
  Zn  Zn112  1  0.18998377  0.93181442  0.43902589  1
  Zn  Zn113  1  0.18613313  0.93720361  0.92433091  1
  Zn  Zn114  1  0.69405683  0.43510738  0.43862837  1
  Zn  Zn115  1  0.67650692  0.42786631  0.94310615  1
  Zn  Zn116  1  0.69552275  0.93776085  0.43340435  1
  Zn  Zn117  1  0.68413224  0.94708307  0.93386738  1
  Zn  Zn118  1  0.32677568  0.07495001  0.05579276  1
  Zn  Zn119  1  0.31426256  0.06199532  0.56287457  1
  Zn  Zn120  1  0.31024430  0.56947678  0.07129158  1
  Zn  Zn121  1  0.30715786  0.56217576  0.57114159  1
  Zn  Zn122  1  0.80942314  0.07090554  0.05698508  1
  Zn  Zn123  1  0.80021629  0.05375845  0.56327474  1
  Zn  Zn124  1  0.80999065  0.56274310  0.06492775  1
  Zn  Zn125  1  0.82163753  0.56089797  0.56091927  1
  Zn  Zn126  1  0.43386186  0.43628919  0.18908273  1
  Zn  Zn127  1  0.44032232  0.43759635  0.68767130  1
  Zn  Zn128  1  0.38149980  0.96198570  0.16874250  1
  Zn  Zn129  1  0.43762313  0.94065707  0.69064109  1
  Zn  Zn130  1  0.94124832  0.43923636  0.18895381  1
  Zn  Zn131  1  0.91593736  0.41961580  0.71788669  1
  Zn  Zn132  1  0.93743329  0.93870218  0.18876653  1
  Zn  Zn133  1  0.94615558  0.94733957  0.68239009  1
  Zn  Zn134  1  0.05921500  0.06138714  0.31525756  1
  Zn  Zn135  1  0.06372098  0.06312721  0.80039626  1
  Zn  Zn136  1  0.06295257  0.56278587  0.31363971  1
  Zn  Zn137  1  0.06142106  0.55798547  0.81218643  1
  Zn  Zn138  1  0.55126327  0.06473000  0.18995688  1
  Zn  Zn139  1  0.56385205  0.06878067  0.80539325  1
  Zn  Zn140  1  0.55990184  0.56398355  0.31397881  1
  Zn  Zn141  1  0.55722655  0.56058046  0.81905524  1
  Zn  Zn142  1  0.44620909  0.18624960  0.43491668  1
  Zn  Zn143  1  0.45287329  0.17483799  0.93892641  1
  Zn  Zn144  1  0.43964778  0.68654206  0.43910072  1
  Zn  Zn145  1  0.43699626  0.68868030  0.94008792  1
  Zn  Zn146  1  0.93755425  0.18802897  0.43534399  1
  Zn  Zn147  1  0.93954539  0.19091870  0.93156978  1
  Zn  Zn148  1  0.94212759  0.68924677  0.44239117  1
  Zn  Zn149  1  0.93693674  0.69400654  0.93615401  1
  Zn  Zn150  1  0.05672501  0.30548737  0.06321088  1
  Zn  Zn151  1  0.06201734  0.30157556  0.56920406  1
  Zn  Zn152  1  0.06283429  0.81413065  0.06389552  1
  Zn  Zn153  1  0.06040453  0.80796382  0.56731079  1
  Zn  Zn154  1  0.56814499  0.30628401  0.06288799  1
  Zn  Zn155  1  0.55475626  0.32015456  0.56138915  1
  Zn  Zn156  1  0.55970490  0.81856173  0.06478818  1
  Zn  Zn157  1  0.56729771  0.80470639  0.56398212  1
  O  O158  1  0.11895660  0.12928924  0.10957039  1
  O  O159  1  0.12978170  0.12719636  0.60770923  1
  O  O160  1  0.11978296  0.62514279  0.12358315  1
  O  O161  1  0.11958927  0.61764123  0.62055753  1
  O  O162  1  0.62144749  0.13168797  0.13629167  1
  O  O163  1  0.61601866  0.10952312  0.62476587  1
  O  O164  1  0.61512267  0.62163541  0.12544141  1
  O  O165  1  0.61744293  0.62508501  0.61716965  1
  O  O166  1  0.34067297  0.40305860  0.37472868  1
  O  O167  1  0.37594216  0.36823488  0.86822365  1
  O  O168  1  0.37775488  0.88357438  0.38246164  1
  O  O169  1  0.38676781  0.86182679  0.88235524  1
  O  O170  1  0.88368020  0.38234392  0.37816647  1
  O  O171  1  0.89689309  0.35675897  0.81199298  1
  O  O172  1  0.88116922  0.88922780  0.36779238  1
  O  O173  1  0.86669619  0.87097239  0.89284537  1
  O  O174  1  0.25640423  0.01262942  0.38233960  1
  O  O175  1  0.26151144  -0.00664291  0.86188715  1
  O  O176  1  0.28830271  0.46253746  0.37391730  1
  O  O177  1  0.24630842  0.49571511  0.86309465  1
  O  O178  1  0.76353085  0.00974977  0.37367100  1
  O  O179  1  0.75162328  -0.00686047  0.85361305  1
  O  O180  1  0.76316885  0.51299868  0.37975271  1
  O  O181  1  0.74730203  0.51424802  0.89440043  1
  O  O182  1  0.23952390  0.49460674  0.12768364  1
  O  O183  1  0.24114772  0.48664650  0.62998672  1
  O  O184  1  0.28022929  1.00509442  0.13259405  1
  O  O185  1  0.25013866  0.98274299  0.61762858  1
  O  O186  1  0.73026225  0.51182318  0.12788309  1
  O  O187  1  0.75547813  0.48811310  0.61839577  1
  O  O188  1  0.75517974  0.98799032  0.12668706  1
  O  O189  1  0.73218014  0.99597470  0.63537001  1
  O  O190  1  0.00675185  0.36715826  0.25601708  1
  O  O191  1  0.02441410  0.37221448  0.72975350  1
  O  O192  1  0.00563586  0.86560415  0.25664123  1
  O  O193  1  -0.00413593  0.91368337  0.78468676  1
  O  O194  1  0.49545073  0.36922295  0.26174279  1
  O  O195  1  0.50974883  0.38101111  0.74826984  1
  O  O196  1  0.51217783  0.85891842  0.25701611  1
  O  O197  1  0.50586096  0.86612049  0.75671579  1
  O  O198  1  0.48638146  0.14471679  0.25397230  1
  O  O199  1  0.48967403  0.11691526  0.73153187  1
  O  O200  1  0.49826314  0.63690426  0.24355567  1
  O  O201  1  0.49188143  0.62806920  0.74418099  1
  O  O202  1  0.99582802  0.13016514  0.24442815  1
  O  O203  1  0.98154338  0.12118835  0.73747136  1
  O  O204  1  0.99454123  0.63571886  0.24674975  1
  O  O205  1  0.99154601  0.62316180  0.74157541  1
  O  O206  1  0.38181882  0.24534942  0.01267840  1
  O  O207  1  0.36128948  0.24917069  0.48992417  1
  O  O208  1  0.36646378  0.75344757  0.00565775  1
  O  O209  1  0.36784323  0.75265363  0.50698713  1
  O  O210  1  0.86455300  0.25292408  -0.01378931  1
  O  O211  1  0.87437253  0.26535773  0.49331885  1
  O  O212  1  0.86526751  0.75754379  0.00617043  1
  O  O213  1  0.86774704  0.74434237  0.50955506  1
  O  O214  1  0.12936808  0.24326840  0.48853736  1
  O  O215  1  0.12203021  0.23708249  0.98755513  1
  O  O216  1  0.13072936  0.74227765  0.49459528  1
  O  O217  1  0.13146907  0.74387756  1.00181797  1
  O  O218  1  0.62421099  0.26027865  0.48322632  1
  O  O219  1  0.63706293  0.24542927  0.99986935  1
  O  O220  1  0.63737976  0.73997176  0.49417700  1
  O  O221  1  0.63070652  0.74737845  0.99547940  1
  O  O222  1  0.48197520  0.26665436  0.13753815  1
  O  O223  1  0.50897713  0.23812199  0.62373640  1
  O  O224  1  0.49528423  0.74384186  0.13261047  1
  O  O225  1  0.49365208  0.73841417  0.63051119  1
  O  O226  1  1.00621898  0.23745803  0.13785971  1
  O  O227  1  1.00275776  0.22955693  0.63416660  1
  O  O228  1  0.99579683  0.74294784  0.13556909  1
  O  O229  1  0.98787475  0.73767133  0.62032189  1
  O  O230  1  0.00916290  0.25740410  0.36788061  1
  O  O231  1  0.01538287  0.24903573  0.86176789  1
  O  O232  1  0.00642755  0.75690427  0.36995456  1
  O  O233  1  0.01461076  0.74569561  0.87573389  1
  O  O234  1  0.50993851  0.25811898  0.36968997  1
  O  O235  1  0.51866964  0.25156714  0.88981321  1
  O  O236  1  0.51604353  0.74643158  0.37113950  1
  O  O237  1  0.51112156  0.75231430  0.87318439  1
  O  O238  1  0.24160299  0.13609312  0.49440283  1
  O  O239  1  0.24067816  0.12773930  0.99813251  1
  O  O240  1  0.23917532  0.63770274  0.51140528  1
  O  O241  1  0.24163723  0.63453731  1.00037082  1
  O  O242  1  0.74267141  0.12467137  0.48835723  1
  O  O243  1  0.74501272  0.14354908  1.00639817  1
  O  O244  1  0.74796604  0.63152274  0.49366888  1
  O  O245  1  0.74704194  0.63527884  0.99626804  1
  O  O246  1  0.23607400  0.38731600  0.00806824  1
  O  O247  1  0.24620192  0.36170284  0.50948854  1
  O  O248  1  0.25637242  0.86759695  -0.00181644  1
  O  O249  1  0.25783436  0.86309223  0.51055554  1
  O  O250  1  0.74638602  0.36428686  0.00229668  1
  O  O251  1  0.76670247  0.37560320  0.50750426  1
  O  O252  1  0.75347486  0.86714387  0.01390292  1
  O  O253  1  0.75126832  0.85671898  0.49358474  1
  O  O254  1  0.12024383  0.49115837  0.24471832  1
  O  O255  1  0.13529307  0.48861874  0.74045458  1
  O  O256  1  0.12395263  0.98445195  0.26018704  1
  O  O257  1  0.15069881  1.01180420  0.74941794  1
  O  O258  1  0.61902967  0.48804395  0.24899324  1
  O  O259  1  0.63060660  0.50598593  0.75987092  1
  O  O260  1  0.61995905  0.98517416  0.25709997  1
  O  O261  1  0.63173938  0.99050806  0.74206271  1
  O  O262  1  0.37560959  0.02151688  0.26733591  1
  O  O263  1  0.36472216  0.01044680  0.73876865  1
  O  O264  1  0.38092564  0.52190931  0.24366229  1
  O  O265  1  0.36359307  0.51051769  0.73913177  1
  O  O266  1  0.88050566  0.01501880  0.25821922  1
  O  O267  1  0.85768253  0.00211389  0.73997764  1
  O  O268  1  0.88378693  0.51310002  0.26171536  1
  O  O269  1  0.87524876  0.51944425  0.74915350  1
  O  O270  1  0.12044861  0.37003167  0.36993345  1
  O  O271  1  0.12998907  0.35837031  0.85406054  1
  O  O272  1  0.11766016  0.86597685  0.36865491  1
  O  O273  1  0.12499879  0.85847552  0.87646098  1
  O  O274  1  0.62758290  0.37328197  0.36490904  1
  O  O275  1  0.61314073  0.36548560  0.87459918  1
  O  O276  1  0.63035588  0.86412135  0.36843631  1
  O  O277  1  0.61832050  0.86684679  0.86897119  1
  O  O278  1  0.36709533  0.14923068  0.13924407  1
  O  O279  1  0.39111359  0.12446195  0.61766284  1
  O  O280  1  0.38254777  0.63845188  0.13410769  1
  O  O281  1  0.37973996  0.63577401  0.63256404  1
  O  O282  1  0.88753781  0.11970238  0.13781981  1
  O  O283  1  0.87847282  0.11845594  0.62394915  1
  O  O284  1  0.88261106  0.62952187  0.13434486  1
  O  O285  1  0.88198258  0.62924896  0.63495460  1
  O  O286  1  0.25912844  0.26134427  0.12311066  1
  O  O287  1  0.24953675  0.25798300  0.61119529  1
  O  O288  1  0.25944247  0.74767987  0.11341407  1
  O  O289  1  0.25844680  0.75767529  0.62065989  1
  O  O290  1  0.76375108  0.25764578  0.11726074  1
  O  O291  1  0.73805685  0.26920541  0.61779725  1
  O  O292  1  0.75439908  0.74867625  0.11575015  1
  O  O293  1  0.76540525  0.75168325  0.61281268  1
  O  O294  1  0.24092428  0.24564263  0.38621787  1
  O  O295  1  0.22801652  0.24014472  0.86661547  1
  O  O296  1  0.23926531  0.75700240  0.38742586  1
  O  O297  1  0.24009878  0.74620489  0.88613235  1
  O  O298  1  0.74563275  0.24177398  0.37823541  1
  O  O299  1  0.73384233  0.25421556  0.88879998  1
  O  O300  1  0.74785564  0.74021144  0.38310194  1
  O  O301  1  0.74074763  0.74650318  0.88550088  1
  O  O302  1  -0.00225341  0.12411562  0.01371583  1
  O  O303  1  0.01075062  0.13169229  0.50716086  1
  O  O304  1  0.00382049  0.62850935  0.01290455  1
  O  O305  1  0.01274580  0.62682375  0.51116739  1
  O  O306  1  0.50670996  0.11198684  0.01202675  1
  O  O307  1  0.50740848  0.12630337  0.51047110  1
  O  O308  1  0.50272398  0.62461974  0.01390006  1
  O  O309  1  0.50898208  0.61978065  0.50672366  1
  O  O310  1  0.49538142  0.39620784  0.49767559  1
  O  O311  1  0.50087260  0.39086126  1.00999075  1
  O  O312  1  0.48798064  0.86003083  0.49754520  1
  O  O313  1  0.49356097  0.87665087  0.99078735  1
  O  O314  1  0.99384749  0.36608838  0.48962568  1
  O  O315  1  1.02927160  0.38336865  0.99001819  1
  O  O316  1  1.00470455  0.86884229  0.48739322  1
  O  O317  1  0.98088657  0.87126359  1.01036595  1
  O  O318  1  0.49696176  0.50702530  0.38952908  1
  O  O319  1  0.49808333  0.50569044  0.89943267  1
  O  O320  1  0.48963129  1.00132214  0.38169257  1
  O  O321  1  0.50553432  0.98503109  0.86520736  1
  O  O322  1  0.99598193  0.48780225  0.37187930  1
  O  O323  1  1.01031323  0.48867974  0.88161372  1
  O  O324  1  0.98715405  0.99370003  0.37544767  1
  O  O325  1  0.99211452  0.97424042  0.83811475  1
  O  O326  1  0.00429094  0.01350433  0.13037476  1
  O  O327  1  0.00690874  0.02207859  0.62456656  1
  O  O328  1  0.01305051  0.51617416  0.13122701  1
  O  O329  1  0.01492161  0.50796749  0.62678359  1
  O  O330  1  0.48703409  -0.01185946  0.13860085  1
  O  O331  1  0.51347583  -0.00023530  0.62516491  1
  O  O332  1  0.50433678  0.51094742  0.12233692  1
  O  O333  1  0.49154883  0.51432352  0.61095556  1
  O  O334  1  0.23350663  0.36809557  0.23880576  1
  O  O335  1  0.24358567  0.37544496  0.73469328  1
  O  O336  1  0.23603623  0.86993912  0.25615028  1
  O  O337  1  0.25949545  0.88515943  0.73549304  1
  O  O338  1  0.74208347  0.37409321  0.25340428  1
  O  O339  1  0.74185440  0.37518960  0.73150439  1
  O  O340  1  0.74488432  0.86803439  0.23629892  1
  O  O341  1  0.73796816  0.87789809  0.75135682  1
  O  O342  1  0.25775281  0.14082371  0.26538882  1
  O  O343  1  0.26662072  0.11126143  0.74144254  1
  O  O344  1  0.26163898  0.63165184  0.24826145  1
  O  O345  1  0.25574898  0.61296365  0.74961026  1
  O  O346  1  0.76984701  0.13501680  0.25738347  1
  O  O347  1  0.75571268  0.11041586  0.74164139  1
  O  O348  1  0.76412912  0.63439475  0.26173531  1
  O  O349  1  0.76150786  0.62519507  0.75929491  1
  O  O350  1  0.36790446  0.12119824  0.37501927  1
  O  O351  1  0.38852656  0.12420245  0.85857820  1
  O  O352  1  0.37669356  0.63627712  0.36053669  1
  O  O353  1  0.37293670  0.63184891  0.86053802  1
  O  O354  1  0.87278316  0.11470224  0.37065502  1
  O  O355  1  0.88449069  0.11235551  0.85817747  1
  O  O356  1  0.87512273  0.61951537  0.37289652  1
  O  O357  1  0.86667872  0.63537158  0.86400704  1
  O  O358  1  0.12838445  0.38395591  0.13164945  1
  O  O359  1  0.13486479  0.37752408  0.62611267  1
  O  O360  1  0.12334579  0.87443526  0.14121622  1
  O  O361  1  0.13818357  0.86778411  0.62388345  1
  O  O362  1  0.61835326  0.38316985  0.14403578  1
  O  O363  1  0.63055521  0.38750396  0.61712459  1
  O  O364  1  0.63835963  0.86969280  0.13303723  1
  O  O365  1  0.61624757  0.88055843  0.63546825  1
  O  O366  1  0.11856509  0.25570592  0.25979901  1
  O  O367  1  0.13134964  0.25523609  0.74551811  1
  O  O368  1  0.11711766  0.75568162  0.25914180  1
  O  O369  1  0.12949712  0.74464715  0.76163101  1
  O  O370  1  0.61862795  0.26717414  0.25732308  1
  O  O371  1  0.63153834  0.24990079  0.76639294  1
  O  O372  1  0.62181740  0.75130588  0.26036817  1
  O  O373  1  0.61853568  0.75582828  0.76255021  1
  O  O374  1  0.38130164  0.24722044  0.25791120  1
  O  O375  1  0.36604072  0.22698249  0.73983855  1
  O  O376  1  0.38317308  0.74822389  0.24338502  1
  O  O377  1  0.37776289  0.74345126  0.74244403  1
  O  O378  1  0.89030039  0.23635873  0.26149764  1
  O  O379  1  0.85811987  0.22446700  0.74556931  1
  O  O380  1  0.88419073  0.74328849  0.24963155  1
  O  O381  1  0.87026043  0.74115634  0.73593474  1
  O  O382  1  0.37999430  0.51341704  0.49833565  1
  O  O383  1  0.38299200  0.50419254  1.00968750  1
  O  O384  1  0.36939253  0.98554849  0.49375181  1
  O  O385  1  0.37509476  0.98498455  0.99625050  1
  O  O386  1  0.88125725  0.48833490  0.48851926  1
  O  O387  1  0.88176372  0.47544370  1.03780616  1
  O  O388  1  0.87206463  1.00013825  0.48819856  1
  O  O389  1  0.86784774  0.98680954  0.99864954  1
  O  O390  1  0.13818790  0.00772074  0.00335015  1
  O  O391  1  0.12873603  0.01539249  0.49115001  1
  O  O392  1  0.12396456  0.51940515  0.01617138  1
  O  O393  1  0.13746067  0.51033049  0.50573140  1
  O  O394  1  0.62818237  0.00433208  0.00747894  1
  O  O395  1  0.63001359  -0.00864103  0.51225706  1
  O  O396  1  0.61162028  0.50678521  0.01351612  1
  O  O397  1  0.62469500  0.51345647  0.49191222  1
  O  O398  1  0.36023189  0.36753648  0.12809815  1
  O  O399  1  0.36037209  0.37966642  0.62405090  1
  O  O400  1  0.38055343  0.85988633  0.11061864  1
  O  O401  1  0.37542106  0.86238393  0.61874053  1
  O  O402  1  0.87935860  0.41397084  0.09422605  1
  O  O403  1  0.88355249  0.37794172  0.61265047  1
  O  O404  1  0.86333356  0.87105646  0.12153681  1
  O  O405  1  0.89113165  0.86035216  0.63203310  1
  O  O406  1  0.12952210  0.13221479  0.38056084  1
  O  O407  1  0.11341895  0.12564727  0.88922495  1
  O  O408  1  0.11759057  0.63646713  0.38368098  1
  O  O409  1  0.12572814  0.63151795  0.88717877  1
  O  O410  1  0.63839405  0.13776528  0.36995203  1
  O  O411  1  0.62191303  0.13455746  0.87662307  1
  O  O412  1  0.63621837  0.63145548  0.37962372  1
  O  O413  1  0.63190853  0.63455072  0.88386353  1
