# generated using pymatgen
data_V79Zn79O256
_symmetry_space_group_name_H-M   'P 1'
_cell_length_a   16.97848677
_cell_length_b   16.97872159
_cell_length_c   16.94031654
_cell_angle_alpha   89.85902209
_cell_angle_beta   90.22182307
_cell_angle_gamma   89.97077404
_symmetry_Int_Tables_number   1
_chemical_formula_structural   V79Zn79O256
_chemical_formula_sum   'V79 Zn79 O256'
_cell_volume   4883.38382697
_cell_formula_units_Z   1
loop_
 _symmetry_equiv_pos_site_id
 _symmetry_equiv_pos_as_xyz
  1  'x, y, z'
loop_
 _atom_site_type_symbol
 _atom_site_label
 _atom_site_symmetry_multiplicity
 _atom_site_fract_x
 _atom_site_fract_y
 _atom_site_fract_z
 _atom_site_occupancy
  V  V0  1  0.76108352  0.75218197  0.50130963  1
  V  V1  1  0.37558467  0.73137305  0.13254944  1
  V  V2  1  0.72681842  0.49557040  0.24872446  1
  V  V3  1  0.50332606  0.62140289  0.62384953  1
  V  V4  1  0.37871524  0.24852174  0.61773189  1
  V  V5  1  -0.00268028  0.62840354  0.63977342  1
  V  V6  1  0.50128157  0.24730572  0.74403219  1
  V  V7  1  0.36914052  0.14471248  0.24324173  1
  V  V8  1  0.12092514  0.86922314  0.25354223  1
  V  V9  1  0.87332694  0.13449444  0.73974864  1
  V  V10  1  0.25307321  0.74714111  0.00365940  1
  V  V11  1  0.37063373  0.00130716  0.87811573  1
  V  V12  1  0.24972717  0.00069412  0.25183442  1
  V  V13  1  0.11764322  0.00726309  0.11441047  1
  V  V14  1  0.62063144  0.11719535  0.00918208  1
  V  V15  1  0.37622839  0.37501008  0.49035001  1
  V  V16  1  0.12101831  0.75059642  0.86595008  1
  V  V17  1  0.87754532  0.74513705  0.64981573  1
  V  V18  1  0.49773880  0.50052677  0.48842821  1
  V  V19  1  0.13072015  0.63182225  0.49999831  1
  V  V20  1  0.76241055  0.87551351  0.62322232  1
  V  V21  1  0.75033969  0.62342350  0.87869922  1
  V  V22  1  0.36334027  0.75498666  0.62143181  1
  V  V23  1  0.74773702  0.23866166  0.48349665  1
  V  V24  1  0.62899876  0.74905834  0.88035913  1
  V  V25  1  0.23648833  0.24883379  0.49926264  1
  V  V26  1  0.49610298  0.74012469  0.25036501  1
  V  V27  1  0.62653674  0.62044403  0.50565837  1
  V  V28  1  0.62246599  0.62135190  0.01105631  1
  V  V29  1  0.00778262  0.37634829  0.87599590  1
  V  V30  1  0.62886142  0.87476252  0.74985860  1
  V  V31  1  -0.00306906  0.50051237  0.49705558  1
  V  V32  1  0.00656911  0.12486090  0.61726848  1
  V  V33  1  0.51625287  0.25061599  0.23909818  1
  V  V34  1  0.36811727  0.87683867  0.50546880  1
  V  V35  1  0.25042727  0.49974708  0.74869857  1
  V  V36  1  0.62559297  -0.00027043  0.61235154  1
  V  V37  1  0.87483559  0.37587770  0.00330390  1
  V  V38  1  0.12602906  0.37039497  0.75266094  1
  V  V39  1  0.00351140  0.25080455  0.26487142  1
  V  V40  1  0.50680043  0.11850126  0.60897930  1
  V  V41  1  0.87426371  0.50231252  0.86996732  1
  V  V42  1  0.62608698  0.25123326  0.86982960  1
  V  V43  1  0.75100775  0.00132075  0.24967949  1
  V  V44  1  0.75843663  0.00035369  0.74817249  1
  V  V45  1  0.50488497  0.37810187  0.86783362  1
  V  V46  1  0.37716297  0.62529554  0.74712750  1
  V  V47  1  0.26599277  0.62051950  0.36540362  1
  V  V48  1  0.87674738  0.12058680  0.26021559  1
  V  V49  1  0.01073118  0.89358065  0.87934674  1
  V  V50  1  0.51353843  0.36140210  0.37353268  1
  V  V51  1  0.50460692  0.88049778  0.87940918  1
  V  V52  1  0.74551560  0.50688114  0.73973676  1
  V  V53  1  0.37943876  0.50135000  0.87119337  1
  V  V54  1  0.75322994  0.36091097  0.61999276  1
  V  V55  1  -0.00729969  0.25897636  0.74026700  1
  V  V56  1  0.50165356  0.49885446  0.01326925  1
  V  V57  1  0.25194948  0.87220359  0.12892786  1
  V  V58  1  0.87836773  0.24323347  0.12728420  1
  V  V59  1  0.87571165  0.00443494  0.89097794  1
  V  V60  1  0.62317463  0.75257475  0.37884712  1
  V  V61  1  0.61931611  0.88252322  0.24103783  1
  V  V62  1  0.36882640  0.35154694  -0.00792969  1
  V  V63  1  0.13243958  0.75337887  0.38111866  1
  V  V64  1  0.74647642  0.25358842  0.00110870  1
  V  V65  1  -0.00312721  -0.00131952  0.48474768  1
  V  V66  1  0.87680830  0.49279447  0.37174617  1
  V  V67  1  0.25429977  0.62503582  0.87656240  1
  V  V68  1  -0.01556118  0.86612097  0.37267521  1
  V  V69  1  0.12543816  0.50150768  0.62261224  1
  V  V70  1  0.38024469  0.00055389  0.38247365  1
  V  V71  1  0.74844175  0.12872777  0.87208587  1
  V  V72  1  -0.00696070  0.65084152  0.12710613  1
  V  V73  1  0.73743667  0.37904404  0.12798780  1
  V  V74  1  0.12619573  0.62061737  0.00889815  1
  V  V75  1  0.00091186  0.49796888  0.01468305  1
  V  V76  1  0.23760732  0.37311530  0.13069356  1
  V  V77  1  0.23552741  0.12647151  0.38180498  1
  V  V78  1  0.75050459  0.62436027  0.37500618  1
  Zn  Zn79  1  0.50200650  0.00074427  0.02908922  1
  Zn  Zn80  1  0.72693229  0.11642157  0.37939632  1
  Zn  Zn81  1  0.87073243  0.62834809  0.23867691  1
  Zn  Zn82  1  0.13542005  -0.02003652  0.62594013  1
  Zn  Zn83  1  0.24191551  -0.02532407  0.75020738  1
  Zn  Zn84  1  0.25152918  0.37379301  0.62313899  1
  Zn  Zn85  1  0.75427253  0.87121533  0.12236709  1
  Zn  Zn86  1  0.50176433  0.75033780  0.74724328  1
  Zn  Zn87  1  0.38278693  0.87330648  0.00571177  1
  Zn  Zn88  1  0.37880693  0.11434292  0.74766958  1
  Zn  Zn89  1  0.11045989  0.38446047  0.25878732  1
  Zn  Zn90  1  0.62253929  0.38371292  0.73251898  1
  Zn  Zn91  1  0.88247253  0.36667330  0.50452482  1
  Zn  Zn92  1  0.87317149  0.84508950  0.01716729  1
  Zn  Zn93  1  0.50518331  0.88201042  0.38589535  1
  Zn  Zn94  1  0.18776031  0.19255711  0.17754195  1
  Zn  Zn95  1  0.18641446  0.12730459  0.69700780  1
  Zn  Zn96  1  0.18437215  0.68434551  0.19287586  1
  Zn  Zn97  1  0.18695467  0.68723174  0.68623580  1
  Zn  Zn98  1  0.69358583  0.18652085  0.18672887  1
  Zn  Zn99  1  0.68503254  0.18738998  0.68110603  1
  Zn  Zn100  1  0.68097578  0.68549307  0.19536144  1
  Zn  Zn101  1  0.68955923  0.68911182  0.69072015  1
  Zn  Zn102  1  0.28624087  0.33042676  0.32140357  1
  Zn  Zn103  1  0.31086881  0.31197332  0.81582897  1
  Zn  Zn104  1  0.31233077  0.81065251  0.31832418  1
  Zn  Zn105  1  0.31686305  0.81377473  0.81147893  1
  Zn  Zn106  1  0.80996191  0.31176962  0.31126080  1
  Zn  Zn107  1  0.81078625  0.32294448  0.80934120  1
  Zn  Zn108  1  0.80339332  0.81243892  0.30710318  1
  Zn  Zn109  1  0.83774602  0.79508849  0.84850949  1
  Zn  Zn110  1  0.16965478  0.45899383  0.39932491  1
  Zn  Zn111  1  0.19727241  0.44033044  0.95081614  1
  Zn  Zn112  1  0.18223982  0.94204265  0.44455737  1
  Zn  Zn113  1  0.19136337  0.93657444  0.94048504  1
  Zn  Zn114  1  0.68732295  0.43548452  0.44222583  1
  Zn  Zn115  1  0.68703642  0.44057395  0.93832436  1
  Zn  Zn116  1  0.69538638  0.93533927  0.43397527  1
  Zn  Zn117  1  0.69507812  0.93525177  0.94360655  1
  Zn  Zn118  1  0.31143234  0.06488172  0.05851242  1
  Zn  Zn119  1  0.31222375  0.06279122  0.56355982  1
  Zn  Zn120  1  0.31408685  0.54791687  0.06536331  1
  Zn  Zn121  1  0.31316151  0.56167388  0.55720373  1
  Zn  Zn122  1  0.80058496  0.06402059  0.07027495  1
  Zn  Zn123  1  0.81964432  0.06107300  0.55840250  1
  Zn  Zn124  1  0.81133736  0.56196496  0.06257141  1
  Zn  Zn125  1  0.81795578  0.56687495  0.56200074  1
  Zn  Zn126  1  0.40597148  0.40985256  0.19459893  1
  Zn  Zn127  1  0.43818666  0.43814583  0.68010272  1
  Zn  Zn128  1  0.43403101  0.93211081  0.19339535  1
  Zn  Zn129  1  0.43801407  0.93751082  0.69092299  1
  Zn  Zn130  1  0.92945011  0.43122577  0.19420145  1
  Zn  Zn131  1  0.93395491  0.44401808  0.68530480  1
  Zn  Zn132  1  0.93761371  0.93848525  0.18469841  1
  Zn  Zn133  1  0.97405827  0.91477931  0.68122612  1
  Zn  Zn134  1  0.06072496  0.06133248  0.30312943  1
  Zn  Zn135  1  0.05960364  0.07694701  0.81924293  1
  Zn  Zn136  1  0.05710506  0.57647180  0.30654361  1
  Zn  Zn137  1  0.06856461  0.55893650  0.81988750  1
  Zn  Zn138  1  0.55532619  0.06678188  0.29832602  1
  Zn  Zn139  1  0.56466790  0.06123698  0.80824816  1
  Zn  Zn140  1  0.51544501  0.52833837  0.26976888  1
  Zn  Zn141  1  0.56597653  0.56422671  0.81189788  1
  Zn  Zn142  1  0.43789048  0.18310807  0.42908858  1
  Zn  Zn143  1  0.44575171  0.17832020  0.93150874  1
  Zn  Zn144  1  0.43953400  0.69512679  0.44316524  1
  Zn  Zn145  1  0.44264739  0.68820648  0.93968387  1
  Zn  Zn146  1  0.92885747  0.18749938  0.44088616  1
  Zn  Zn147  1  0.92028272  0.20642951  0.91829773  1
  Zn  Zn148  1  0.94121351  0.68518313  0.43764844  1
  Zn  Zn149  1  0.94218353  0.68010163  0.94012733  1
  Zn  Zn150  1  0.06202096  0.31237141  0.07356620  1
  Zn  Zn151  1  0.06127704  0.31661250  0.56571930  1
  Zn  Zn152  1  0.06577796  0.82257161  0.05408868  1
  Zn  Zn153  1  0.05783824  0.81466145  0.56040524  1
  Zn  Zn154  1  0.55708509  0.30944626  0.05700326  1
  Zn  Zn155  1  0.57117590  0.31266384  0.55684382  1
  Zn  Zn156  1  0.56126356  0.80721975  0.06435207  1
  Zn  Zn157  1  0.55764974  0.81428606  0.56216446  1
  O  O158  1  0.13753440  0.10483636  0.12766289  1
  O  O159  1  0.10400501  0.14565753  0.62114361  1
  O  O160  1  0.11104055  0.63320372  0.11659494  1
  O  O161  1  0.11678117  0.62326251  0.61851382  1
  O  O162  1  0.63353359  0.12917007  0.10717133  1
  O  O163  1  0.61485808  0.11520535  0.62720111  1
  O  O164  1  0.62981003  0.62935158  0.10986815  1
  O  O165  1  0.61833309  0.63551445  0.61443508  1
  O  O166  1  0.38160529  0.36712895  0.38736361  1
  O  O167  1  0.39186535  0.37856797  0.87249245  1
  O  O168  1  0.37086622  0.88831342  0.38278264  1
  O  O169  1  0.38997851  0.87910782  0.87838882  1
  O  O170  1  0.86986573  0.39175929  0.37671541  1
  O  O171  1  0.88197891  0.38367853  0.88282383  1
  O  O172  1  0.88608605  0.86656119  0.36182965  1
  O  O173  1  0.87194438  0.90315780  0.88062722  1
  O  O174  1  0.25384806  0.01044762  0.37224568  1
  O  O175  1  0.26874428  -0.00973990  0.87860684  1
  O  O176  1  0.26253030  0.52373706  0.39295683  1
  O  O177  1  0.25955323  0.50725906  0.87063016  1
  O  O178  1  0.74747608  0.00001307  0.35926315  1
  O  O179  1  0.75898389  0.00897627  0.86763839  1
  O  O180  1  0.75470856  0.50472838  0.36801828  1
  O  O181  1  0.75616308  0.50379721  0.86878058  1
  O  O182  1  0.24245474  0.46094974  0.06691925  1
  O  O183  1  0.24399953  0.49966659  0.63012543  1
  O  O184  1  0.24748182  0.98664093  0.13334889  1
  O  O185  1  0.23883303  1.03149987  0.64140993  1
  O  O186  1  0.75188401  0.49589982  0.14211705  1
  O  O187  1  0.75251948  0.51012967  0.63874290  1
  O  O188  1  0.74461810  0.99819677  0.14426595  1
  O  O189  1  0.74804794  0.99355709  0.62936951  1
  O  O190  1  -0.00527659  0.35627668  0.25180297  1
  O  O191  1  0.00380410  0.37764685  0.75504698  1
  O  O192  1  0.01205775  0.88811961  0.26582641  1
  O  O193  1  -0.01733481  0.86635280  0.78714572  1
  O  O194  1  0.49214404  0.35885586  0.26449032  1
  O  O195  1  0.50612228  0.36979307  0.75121463  1
  O  O196  1  0.51191427  0.86649332  0.25935733  1
  O  O197  1  0.51633754  0.87564756  0.75672080  1
  O  O198  1  0.48016066  0.14590795  0.25608754  1
  O  O199  1  0.50076562  0.13648231  0.74369094  1
  O  O200  1  0.51340974  0.64363936  0.25497229  1
  O  O201  1  0.49656346  0.62372468  0.74035746  1
  O  O202  1  0.98199741  0.12917867  0.25155177  1
  O  O203  1  0.99141006  0.14213721  0.74454625  1
  O  O204  1  0.99498565  0.63410196  0.23169906  1
  O  O205  1  1.00745710  0.61709522  0.73858140  1
  O  O206  1  0.39122474  0.25521536  -0.01000328  1
  O  O207  1  0.38267300  0.25491724  0.50656236  1
  O  O208  1  0.36870530  0.74803677  0.01134694  1
  O  O209  1  0.37394793  0.75796653  0.51484841  1
  O  O210  1  0.86752584  0.25441091  0.00596853  1
  O  O211  1  0.85813762  0.25601637  0.49554823  1
  O  O212  1  0.86535104  0.75559026  -0.04824927  1
  O  O213  1  0.86200494  0.74470564  0.50130878  1
  O  O214  1  0.13876792  0.25686846  0.50551219  1
  O  O215  1  0.11772220  0.23474718  1.00076693  1
  O  O216  1  0.11541305  0.74410968  0.49320708  1
  O  O217  1  0.13774183  0.74150797  0.99624595  1
  O  O218  1  0.64951644  0.24847027  0.50806595  1
  O  O219  1  0.62652998  0.24259411  0.98697829  1
  O  O220  1  0.63326769  0.74527550  0.49519977  1
  O  O221  1  0.61574904  0.73215720  0.99187791  1
  O  O222  1  0.49876325  0.26103494  0.14070832  1
  O  O223  1  0.50206865  0.23967493  0.62579640  1
  O  O224  1  0.48999793  0.75351635  0.14048133  1
  O  O225  1  0.49367016  0.73617643  0.62486582  1
  O  O226  1  0.98213191  0.25222264  0.13213764  1
  O  O227  1  0.99203946  0.25078710  0.63389216  1
  O  O228  1  0.99680790  0.74873681  0.11435200  1
  O  O229  1  0.98163826  0.74361323  0.62418534  1
  O  O230  1  -0.00452591  0.24226418  0.36439343  1
  O  O231  1  -0.00505516  0.26938826  0.86305838  1
  O  O232  1  0.00658210  0.76228849  0.37630149  1
  O  O233  1  0.02233129  0.74086097  0.87901687  1
  O  O234  1  0.50281926  0.25859504  0.37300504  1
  O  O235  1  0.50814304  0.25756870  0.86279486  1
  O  O236  1  0.50899974  0.75287501  0.36876286  1
  O  O237  1  0.51105681  0.75947754  0.87225154  1
  O  O238  1  0.25110768  0.13271549  0.48997878  1
  O  O239  1  0.24785477  0.12803589  0.99367044  1
  O  O240  1  0.23391483  0.62764815  0.49971506  1
  O  O241  1  0.24444001  0.62889565  0.99973570  1
  O  O242  1  0.75927926  0.13335034  0.49452727  1
  O  O243  1  0.74057056  0.13447710  0.99106427  1
  O  O244  1  0.74409965  0.63191330  0.49586502  1
  O  O245  1  0.73296251  0.61050726  0.98965927  1
  O  O246  1  0.27210109  0.35111624  -0.04447168  1
  O  O247  1  0.26259161  0.35585910  0.50145493  1
  O  O248  1  0.25154859  0.86068842  0.01193201  1
  O  O249  1  0.26633753  0.88852881  0.50376753  1
  O  O250  1  0.75528485  0.37354012  0.00599187  1
  O  O251  1  0.75346743  0.36867492  0.50870834  1
  O  O252  1  0.75438008  0.86978391  0.00819611  1
  O  O253  1  0.74718783  0.86546542  0.51468512  1
  O  O254  1  0.12112329  0.48956988  0.29690395  1
  O  O255  1  0.13156582  0.49439948  0.74432967  1
  O  O256  1  0.13701703  0.99057645  0.24681465  1
  O  O257  1  0.14028468  1.03548114  0.75610115  1
  O  O258  1  0.62872096  0.49983980  0.25474711  1
  O  O259  1  0.64139572  0.49759778  0.75640812  1
  O  O260  1  0.62764806  0.98672003  0.25182821  1
  O  O261  1  0.63906815  0.99373656  0.74444944  1
  O  O262  1  0.35873959  -0.00290198  0.26204895  1
  O  O263  1  0.37019931  -0.00369655  0.76223886  1
  O  O264  1  0.41163182  0.50818117  0.24131824  1
  O  O265  1  0.37106917  0.50435306  0.75152776  1
  O  O266  1  0.86419800  0.01213342  0.24633161  1
  O  O267  1  0.86389902  0.01299079  0.75521838  1
  O  O268  1  0.87119760  0.50621328  0.26355708  1
  O  O269  1  0.86156080  0.49572889  0.76200114  1
  O  O270  1  0.17718347  0.35761317  0.34989408  1
  O  O271  1  0.11468079  0.38987255  0.86739132  1
  O  O272  1  0.12490491  0.86894325  0.37041518  1
  O  O273  1  0.11576386  0.86621986  0.88205779  1
  O  O274  1  0.61188504  0.37475733  0.37829966  1
  O  O275  1  0.61855778  0.36539225  0.87563354  1
  O  O276  1  0.62628330  0.86454929  0.37020437  1
  O  O277  1  0.62504795  0.86929049  0.86925834  1
  O  O278  1  0.36143642  0.12191602  0.14630062  1
  O  O279  1  0.39171760  0.13049974  0.62700738  1
  O  O280  1  0.36446836  0.63239758  0.12434271  1
  O  O281  1  0.38209039  0.63401031  0.62587358  1
  O  O282  1  0.86026635  0.13749668  0.13793569  1
  O  O283  1  0.88105046  0.12725129  0.63654263  1
  O  O284  1  0.89110023  0.62406164  0.11671687  1
  O  O285  1  0.88049957  0.63797996  0.62792433  1
  O  O286  1  0.24256827  0.27179045  0.11681202  1
  O  O287  1  0.26682143  0.24184545  0.60831473  1
  O  O288  1  0.25490759  0.75245020  0.12332165  1
  O  O289  1  0.26510530  0.74539060  0.62799369  1
  O  O290  1  0.75674180  0.26022079  0.12083362  1
  O  O291  1  0.75670803  0.25980427  0.62720992  1
  O  O292  1  0.77296661  0.74718888  0.16139631  1
  O  O293  1  0.76257710  0.75408858  0.62297919  1
  O  O294  1  0.25703008  0.23350165  0.38930033  1
  O  O295  1  0.25768771  0.21072161  0.83151990  1
  O  O296  1  0.23758162  0.74357142  0.37679041  1
  O  O297  1  0.24817616  0.74434993  0.88837701  1
  O  O298  1  0.74556483  0.24773010  0.38044795  1
  O  O299  1  0.74344601  0.25078317  0.87786910  1
  O  O300  1  0.74325109  0.74563186  0.38289692  1
  O  O301  1  0.73460346  0.73711143  0.86658667  1
  O  O302  1  0.07466282  0.17499536  -0.03174946  1
  O  O303  1  -0.00832981  0.11767967  0.51010061  1
  O  O304  1  0.00690916  0.61756926  0.01178927  1
  O  O305  1  0.00561721  0.61873309  0.50946261  1
  O  O306  1  0.51718043  0.12067612  -0.00273047  1
  O  O307  1  0.49898337  0.12508981  0.51117178  1
  O  O308  1  0.50941450  0.61037097  -0.00228931  1
  O  O309  1  0.50709195  0.61928396  0.50255891  1
  O  O310  1  0.49755835  0.37890044  0.49160119  1
  O  O311  1  0.49569180  0.38305702  0.98616613  1
  O  O312  1  0.48272376  0.87257299  0.49836582  1
  O  O313  1  0.50550252  0.87823292  0.99186644  1
  O  O314  1  0.99851491  0.39491662  0.50626748  1
  O  O315  1  0.99796566  0.38052401  0.99440149  1
  O  O316  1  0.99912266  0.88385892  0.47876339  1
  O  O317  1  0.98919402  0.86642850  0.98002500  1
  O  O318  1  0.50057752  0.48678296  0.38541433  1
  O  O319  1  0.49824520  0.49006165  0.87059660  1
  O  O320  1  0.48058495  0.99972204  0.36268296  1
  O  O321  1  0.49791512  0.98774197  0.87025528  1
  O  O322  1  0.98030604  0.51662433  0.38300206  1
  O  O323  1  0.99098446  0.49497634  0.88208956  1
  O  O324  1  0.99962241  0.99665525  0.38101568  1
  O  O325  1  0.98995026  1.00101535  0.87663259  1
  O  O326  1  0.01977683  -0.00249271  0.13380212  1
  O  O327  1  0.00164250  0.02415493  0.63531920  1
  O  O328  1  -0.00553828  0.49271276  0.11501146  1
  O  O329  1  0.00336549  0.51054088  0.61777641  1
  O  O330  1  0.50321816  -0.00393590  0.13942381  1
  O  O331  1  0.50878110  0.01212317  0.63119179  1
  O  O332  1  0.50118595  0.48693316  0.10881819  1
  O  O333  1  0.49835551  0.51418636  0.61372349  1
  O  O334  1  0.28104575  0.39304051  0.22136569  1
  O  O335  1  0.24285187  0.38097964  0.74942699  1
  O  O336  1  0.24272996  0.87943756  0.24675858  1
  O  O337  1  0.24073305  0.86486917  0.75276350  1
  O  O338  1  0.75005989  0.38869431  0.24528747  1
  O  O339  1  0.74820994  0.38710384  0.73723098  1
  O  O340  1  0.73547401  0.88658881  0.25138718  1
  O  O341  1  0.74427801  0.88426936  0.74063397  1
  O  O342  1  0.25418061  0.12046384  0.26255496  1
  O  O343  1  0.27041975  0.16301007  0.76676895  1
  O  O344  1  0.24662022  0.62497599  0.26544563  1
  O  O345  1  0.25728600  0.61863290  0.75578168  1
  O  O346  1  0.75277336  0.11448799  0.25409274  1
  O  O347  1  0.75441470  0.12103289  0.75107581  1
  O  O348  1  0.74431913  0.60818432  0.25914242  1
  O  O349  1  0.74478115  0.61416779  0.76257819  1
  O  O350  1  0.36678542  0.11259713  0.36648659  1
  O  O351  1  0.38726088  0.10358427  0.87111184  1
  O  O352  1  0.36297477  0.64326808  0.37901975  1
  O  O353  1  0.37421750  0.62239531  0.86834010  1
  O  O354  1  0.86543807  0.12711683  0.36011190  1
  O  O355  1  0.87057978  0.12071371  0.86328141  1
  O  O356  1  0.85975831  0.62514067  0.37118583  1
  O  O357  1  0.86393289  0.60979728  0.88314839  1
  O  O358  1  0.13147954  0.37595119  0.14182049  1
  O  O359  1  0.12852090  0.38435145  0.63432181  1
  O  O360  1  0.13451393  0.87634368  0.13435414  1
  O  O361  1  0.07745786  0.88503889  0.64261522  1
  O  O362  1  0.63932976  0.37014199  0.11419199  1
  O  O363  1  0.64526024  0.37795886  0.61943983  1
  O  O364  1  0.62979961  0.86102299  0.14072144  1
  O  O365  1  0.63313141  0.87914732  0.63346375  1
  O  O366  1  0.10190669  0.23708843  0.24304224  1
  O  O367  1  0.11027229  0.26897727  0.74776981  1
  O  O368  1  0.12684295  0.76275373  0.26045167  1
  O  O369  1  0.13272437  0.74372213  0.76793337  1
  O  O370  1  0.61449183  0.24234174  0.24721902  1
  O  O371  1  0.61904463  0.25366566  0.75493516  1
  O  O372  1  0.61718486  0.75878133  0.26027449  1
  O  O373  1  0.62530689  0.76053933  0.75697970  1
  O  O374  1  0.35907903  0.24318864  0.25454678  1
  O  O375  1  0.39233743  0.25814482  0.73479381  1
  O  O376  1  0.38878503  0.75434840  0.24893244  1
  O  O377  1  0.38103128  0.74297710  0.73952622  1
  O  O378  1  0.87762451  0.24040171  0.24659123  1
  O  O379  1  0.88007037  0.24501287  0.75908486  1
  O  O380  1  0.83357811  0.74130658  0.22206850  1
  O  O381  1  0.86926508  0.74628823  0.74787001  1
  O  O382  1  0.38635325  0.48712830  0.50707607  1
  O  O383  1  0.39168830  0.49778684  0.98837539  1
  O  O384  1  0.37473923  1.00007912  0.48768177  1
  O  O385  1  0.38348414  0.99446210  0.99077887  1
  O  O386  1  0.87806708  0.50470303  0.48705428  1
  O  O387  1  0.88268272  0.49370750  0.99393708  1
  O  O388  1  0.89863047  0.99494923  0.51192141  1
  O  O389  1  0.87070076  1.02146906  0.98858728  1
  O  O390  1  0.12662279  -0.01008328  0.01477499  1
  O  O391  1  0.10361915  -0.00450339  0.50944326  1
  O  O392  1  0.11215723  0.51409928  -0.01027078  1
  O  O393  1  0.11497954  0.51090040  0.50021523  1
  O  O394  1  0.62849724  0.01560139  -0.00871804  1
  O  O395  1  0.63153096  -0.00972900  0.51395479  1
  O  O396  1  0.61170860  0.50823072  -0.00596735  1
  O  O397  1  0.61780398  0.51431608  0.49447481  1
  O  O398  1  0.36697801  0.37136205  0.09298527  1
  O  O399  1  0.37640109  0.36425356  0.61407424  1
  O  O400  1  0.36232267  0.86229223  0.12859314  1
  O  O401  1  0.38225914  0.86103823  0.62400280  1
  O  O402  1  0.86291480  0.36720658  0.12066563  1
  O  O403  1  0.85749815  0.38839382  0.62136838  1
  O  O404  1  0.87103848  0.87741304  0.12396151  1
  O  O405  1  0.87010490  0.86080923  0.63621403  1
  O  O406  1  0.13776983  0.11899728  0.37061363  1
  O  O407  1  0.11330308  0.14123506  0.90746259  1
  O  O408  1  0.12394400  0.63891645  0.38396061  1
  O  O409  1  0.13421395  0.63328637  0.88569935  1
  O  O410  1  0.61536521  0.11970200  0.37388348  1
  O  O411  1  0.62971358  0.13692507  0.87402548  1
  O  O412  1  0.63815145  0.63806928  0.38681487  1
  O  O413  1  0.63009362  0.63143789  0.88156147  1
