# generated using pymatgen
data_V79Zn79O256
_symmetry_space_group_name_H-M   'P 1'
_cell_length_a   16.92310462
_cell_length_b   16.91467530
_cell_length_c   16.91591123
_cell_angle_alpha   89.87065976
_cell_angle_beta   89.90318056
_cell_angle_gamma   90.00884266
_symmetry_Int_Tables_number   1
_chemical_formula_structural   V79Zn79O256
_chemical_formula_sum   'V79 Zn79 O256'
_cell_volume   4842.14031167
_cell_formula_units_Z   1
loop_
 _symmetry_equiv_pos_site_id
 _symmetry_equiv_pos_as_xyz
  1  'x, y, z'
loop_
 _atom_site_type_symbol
 _atom_site_label
 _atom_site_symmetry_multiplicity
 _atom_site_fract_x
 _atom_site_fract_y
 _atom_site_fract_z
 _atom_site_occupancy
  V  V0  1  0.76200957  0.25639725  0.00472106  1
  V  V1  1  0.25052338  0.76004803  0.00653972  1
  V  V2  1  0.37252439  0.63264111  0.74116990  1
  V  V3  1  0.12145072  0.50784660  0.12647307  1
  V  V4  1  0.01039711  0.87652712  0.37515020  1
  V  V5  1  0.87030957  0.87818663  0.00336889  1
  V  V6  1  0.50722827  0.37834016  0.87113062  1
  V  V7  1  0.49530121  0.75530356  0.74274478  1
  V  V8  1  0.23992809  0.24729540  -0.00082588  1
  V  V9  1  0.12589708  0.25417387  0.37355322  1
  V  V10  1  -0.00060116  0.24845628  0.74509925  1
  V  V11  1  0.62266483  0.62998891  0.00179386  1
  V  V12  1  0.37630444  0.37566144  0.00081486  1
  V  V13  1  -0.00255332  0.75955717  0.74992549  1
  V  V14  1  0.50511609  0.61545347  0.61824893  1
  V  V15  1  0.38476909  0.12425363  0.24840526  1
  V  V16  1  0.25144117  0.36955535  0.62739250  1
  V  V17  1  0.87143620  0.36384889  0.51156240  1
  V  V18  1  0.37952735  0.24693611  0.12420958  1
  V  V19  1  -0.00237250  -0.00045693  0.49719569  1
  V  V20  1  0.62114744  0.87806807  0.74452436  1
  V  V21  1  0.23941250  0.12984678  0.88018249  1
  V  V22  1  -0.00873053  0.61520931  0.64267713  1
  V  V23  1  0.48928746  0.63654748  0.13441714  1
  V  V24  1  0.74522784  -0.00054456  0.74329130  1
  V  V25  1  0.24793368  0.62682089  0.87190495  1
  V  V26  1  0.75075664  0.51271545  0.25445053  1
  V  V27  1  0.00049146  0.49928837  0.50354067  1
  V  V28  1  0.62437113  0.37855796  0.25431304  1
  V  V29  1  0.87301346  -0.00233932  0.87397454  1
  V  V30  1  0.87855727  0.86915557  0.49778003  1
  V  V31  1  0.64364499  0.62063697  0.49683881  1
  V  V32  1  0.87256446  0.50338940  0.37798741  1
  V  V33  1  0.38683706  -0.00354725  0.87788987  1
  V  V34  1  0.01000750  0.00603846  0.00271251  1
  V  V35  1  0.38279385  0.87765396  0.00608917  1
  V  V36  1  0.72133309  0.37007939  0.63014878  1
  V  V37  1  0.49729408  0.50267499  0.00145057  1
  V  V38  1  0.50913137  -0.00522557  0.51050630  1
  V  V39  1  0.87201650  0.74189097  0.62795779  1
  V  V40  1  0.50205401  0.25417334  0.24668264  1
  V  V41  1  0.62287974  0.50540430  0.12771530  1
  V  V42  1  0.51102604  0.12254338  0.62195742  1
  V  V43  1  0.25055912  0.37823539  0.12795065  1
  V  V44  1  0.37369935  0.50319503  0.87546725  1
  V  V45  1  0.11609542  0.62557253  0.00158643  1
  V  V46  1  0.87315491  0.10990859  0.24343855  1
  V  V47  1  0.36089797  0.86889992  0.52338029  1
  V  V48  1  -0.01309798  0.36946743  0.88211717  1
  V  V49  1  0.24930658  -0.00247250  0.24168989  1
  V  V50  1  0.61637435  0.76075385  0.87425177  1
  V  V51  1  0.43165925  0.30608897  0.56809800  1
  V  V52  1  0.63124618  0.23268499  0.37844066  1
  V  V53  1  0.12621053  0.36591589  0.76182797  1
  V  V54  1  0.61190579  0.12109424  0.01476780  1
  V  V55  1  0.12713142  0.88242112  0.23276677  1
  V  V56  1  0.25323651  0.12405590  0.37702634  1
  V  V57  1  0.12169321  0.75594784  0.86802862  1
  V  V58  1  0.49129056  0.85311982  0.36250901  1
  V  V59  1  0.12237525  0.49931136  0.62616933  1
  V  V60  1  0.37592540  0.12787115  0.74596877  1
  V  V61  1  -0.00840776  0.24985020  0.24511152  1
  V  V62  1  0.25447091  0.25172860  0.50591555  1
  V  V63  1  0.74712293  0.75733298  0.00762996  1
  V  V64  1  0.38049109  -0.00302529  0.37902192  1
  V  V65  1  0.37706472  0.49612784  0.39484747  1
  V  V66  1  0.74601155  0.12855230  0.87833270  1
  V  V67  1  0.12503681  0.12262000  0.50785810  1
  V  V68  1  0.75159534  0.62814714  0.86379159  1
  V  V69  1  0.19308881  0.70123763  0.48824500  1
  V  V70  1  0.50258755  0.25388843  0.75156224  1
  V  V71  1  0.74929236  0.86992758  0.61621828  1
  V  V72  1  0.87320691  0.12990447  0.74199695  1
  V  V73  1  0.64234468  0.74935513  0.37426995  1
  V  V74  1  0.00966398  0.74860175  0.24715935  1
  V  V75  1  0.76216301  0.38011007  0.12018959  1
  V  V76  1  0.87620674  0.74811426  0.12742875  1
  V  V77  1  0.88235123  0.62716667  0.25551229  1
  V  V78  1  0.23984352  -0.00838371  0.74826818  1
  Zn  Zn79  1  -0.00418597  0.12462490  0.62268822  1
  Zn  Zn80  1  0.74080742  0.49104382  0.74446859  1
  Zn  Zn81  1  0.12650902  -0.02854492  0.62677639  1
  Zn  Zn82  1  0.01258932  0.12839371  0.11760204  1
  Zn  Zn83  1  -0.00040786  0.37377567  0.37703474  1
  Zn  Zn84  1  0.24920637  0.49910969  0.74920628  1
  Zn  Zn85  1  0.24926559  0.50514752  0.26122424  1
  Zn  Zn86  1  -0.01237165  0.49420451  0.00573397  1
  Zn  Zn87  1  0.00430273  0.87988319  0.87111249  1
  Zn  Zn88  1  0.12626516  0.37411654  0.24965138  1
  Zn  Zn89  1  0.62719623  0.25660183  0.87649904  1
  Zn  Zn90  1  0.74375332  -0.01956477  0.22723233  1
  Zn  Zn91  1  0.50263493  0.37959214  0.39375875  1
  Zn  Zn92  1  0.87341239  0.50598448  0.87363285  1
  Zn  Zn93  1  0.37796790  0.63314329  0.27113074  1
  Zn  Zn94  1  0.18735562  0.18620144  0.18479383  1
  Zn  Zn95  1  0.18894719  0.18602320  0.69257969  1
  Zn  Zn96  1  0.22348145  0.71739835  0.21381264  1
  Zn  Zn97  1  0.18189775  0.69555653  0.67953682  1
  Zn  Zn98  1  0.69062311  0.18914551  0.18520648  1
  Zn  Zn99  1  0.68797859  0.19439232  0.68661015  1
  Zn  Zn100  1  0.68172354  0.80604760  0.20037176  1
  Zn  Zn101  1  0.68030756  0.69054970  0.68134202  1
  Zn  Zn102  1  0.31584264  0.31903810  0.31685296  1
  Zn  Zn103  1  0.31736535  0.31086342  0.81475219  1
  Zn  Zn104  1  0.30037121  0.80883140  0.33840268  1
  Zn  Zn105  1  0.31234869  0.81405499  0.81573380  1
  Zn  Zn106  1  0.81033928  0.31834410  0.31415607  1
  Zn  Zn107  1  0.80988238  0.31348444  0.80541329  1
  Zn  Zn108  1  0.81777146  0.81972506  0.31891258  1
  Zn  Zn109  1  0.80959832  0.81046858  0.81090965  1
  Zn  Zn110  1  0.19149690  0.44183365  0.44332952  1
  Zn  Zn111  1  0.18641852  0.43850440  0.94248319  1
  Zn  Zn112  1  0.18615771  0.93656338  0.43880193  1
  Zn  Zn113  1  0.19277017  0.93965554  0.93122610  1
  Zn  Zn114  1  0.68810095  0.43659752  0.44390647  1
  Zn  Zn115  1  0.68863763  0.44249729  0.93934674  1
  Zn  Zn116  1  0.76587458  1.08950329  0.37840204  1
  Zn  Zn117  1  0.68301477  0.94273407  0.94097176  1
  Zn  Zn118  1  0.31504315  0.06259224  0.06083900  1
  Zn  Zn119  1  0.31452223  0.05605012  0.56639352  1
  Zn  Zn120  1  0.30739593  0.56656375  0.06128723  1
  Zn  Zn121  1  0.30747336  0.56217723  0.55967275  1
  Zn  Zn122  1  0.81746837  0.07115837  0.06942122  1
  Zn  Zn123  1  0.80844839  0.05610616  0.55931213  1
  Zn  Zn124  1  0.81294515  0.56812958  0.06054103  1
  Zn  Zn125  1  0.81123209  0.55248710  0.56802796  1
  Zn  Zn126  1  0.43260488  0.44651345  0.19842636  1
  Zn  Zn127  1  0.44021650  0.44458624  0.69256307  1
  Zn  Zn128  1  0.41090725  0.80453082  0.18974188  1
  Zn  Zn129  1  0.43602657  0.94337842  0.69266642  1
  Zn  Zn130  1  0.94268011  0.43644623  0.19304041  1
  Zn  Zn131  1  0.92634433  0.43482371  0.69801451  1
  Zn  Zn132  1  0.93742229  0.93500148  0.18245877  1
  Zn  Zn133  1  0.93773895  0.93943350  0.68063692  1
  Zn  Zn134  1  0.06271766  0.06598583  0.31327924  1
  Zn  Zn135  1  0.06075520  0.06579917  0.81591217  1
  Zn  Zn136  1  0.06259689  0.56074950  0.31204684  1
  Zn  Zn137  1  0.06364158  0.55479812  0.81498913  1
  Zn  Zn138  1  0.60995040  0.01161799  0.36814634  1
  Zn  Zn139  1  0.56413929  0.06612877  0.81282046  1
  Zn  Zn140  1  0.55834898  0.56900408  0.32260115  1
  Zn  Zn141  1  0.56309730  0.56731597  0.81036346  1
  Zn  Zn142  1  0.45189706  0.18170559  0.43076383  1
  Zn  Zn143  1  0.43409705  0.18753598  0.93433664  1
  Zn  Zn144  1  0.41556511  0.68543250  0.45036514  1
  Zn  Zn145  1  0.43511037  0.69184175  0.93551793  1
  Zn  Zn146  1  0.93407127  0.18095196  0.42952104  1
  Zn  Zn147  1  0.93978484  0.18776916  0.93134400  1
  Zn  Zn148  1  0.96940757  0.69373725  0.44649205  1
  Zn  Zn149  1  0.93400085  0.68855947  0.93643882  1
  Zn  Zn150  1  0.06310831  0.31507705  0.06425529  1
  Zn  Zn151  1  0.06247007  0.31328737  0.56455427  1
  Zn  Zn152  1  0.06015323  0.81705555  0.05819015  1
  Zn  Zn153  1  0.06782260  0.80231838  0.56069691  1
  Zn  Zn154  1  0.56941949  0.31073075  0.05906202  1
  Zn  Zn155  1  0.74415919  0.23297426  0.50596280  1
  Zn  Zn156  1  0.55259038  0.81252205  0.05830429  1
  Zn  Zn157  1  0.56166569  0.80831349  0.55527307  1
  O  O158  1  0.12354402  0.11873759  0.12770568  1
  O  O159  1  0.12526558  0.13019593  0.61156707  1
  O  O160  1  0.13238675  0.61086602  0.11604352  1
  O  O161  1  0.11089345  0.60465226  0.63568480  1
  O  O162  1  0.62273743  0.13204361  0.11461392  1
  O  O163  1  0.60996916  0.13029297  0.62791649  1
  O  O164  1  0.61021322  0.61935176  0.11458264  1
  O  O165  1  0.61383780  0.63116309  0.60977666  1
  O  O166  1  0.38667349  0.38509543  0.37105767  1
  O  O167  1  0.38113601  0.38377496  0.88176753  1
  O  O168  1  0.37743833  0.88238712  0.38807620  1
  O  O169  1  0.36826721  0.89202424  0.87997347  1
  O  O170  1  0.87765988  0.38888515  0.38025470  1
  O  O171  1  0.88568487  0.37012766  0.87536981  1
  O  O172  1  0.89201386  0.86953057  0.38930213  1
  O  O173  1  0.87201501  0.88414554  0.88038055  1
  O  O174  1  0.25827516  0.01166756  0.37609598  1
  O  O175  1  0.25564035  0.01476481  0.86806044  1
  O  O176  1  0.26788487  0.48225392  0.37416004  1
  O  O177  1  0.25319191  0.51227310  0.87543402  1
  O  O178  1  0.71499502  -0.00058887  0.33478484  1
  O  O179  1  0.75625583  0.00766284  0.86621990  1
  O  O180  1  0.76097036  0.49412184  0.36501788  1
  O  O181  1  0.74251475  0.52310497  0.88037832  1
  O  O182  1  0.24062726  0.49242292  0.12129137  1
  O  O183  1  0.24161546  0.48542628  0.62629797  1
  O  O184  1  0.25825331  1.00440574  0.14389213  1
  O  O185  1  0.24391560  1.00997443  0.64426459  1
  O  O186  1  0.73989013  0.50148535  0.13077728  1
  O  O187  1  0.75228554  0.47559339  0.62463625  1
  O  O188  1  0.74754005  1.00025088  0.11805531  1
  O  O189  1  0.75488042  0.98834603  0.63719940  1
  O  O190  1  0.00708299  0.36343817  0.25623496  1
  O  O191  1  0.00650947  0.36616035  0.75917277  1
  O  O192  1  0.01302454  0.87618468  0.25361097  1
  O  O193  1  -0.00537789  0.86385359  0.75145344  1
  O  O194  1  0.51083444  0.36922113  0.24361431  1
  O  O195  1  0.48927323  0.36720997  0.76119007  1
  O  O196  1  0.47885482  0.86416188  0.26353192  1
  O  O197  1  0.51092126  0.87030257  0.74289296  1
  O  O198  1  0.48667841  0.13908641  0.25215168  1
  O  O199  1  0.49460213  0.13046284  0.74354252  1
  O  O200  1  0.49699070  0.62384793  0.23626050  1
  O  O201  1  0.49075261  0.63435662  0.74258142  1
  O  O202  1  0.99567548  0.13745535  0.25235133  1
  O  O203  1  0.99091578  0.13156145  0.75177485  1
  O  O204  1  0.99372200  0.63415429  0.25090229  1
  O  O205  1  0.99576419  0.62330571  0.74615681  1
  O  O206  1  0.36993194  0.25548562  0.00903087  1
  O  O207  1  0.37320453  0.24663091  0.50301077  1
  O  O208  1  0.35907137  0.76315071  -0.01415961  1
  O  O209  1  0.37195693  0.76947473  0.51238929  1
  O  O210  1  0.86072159  0.24673505  -0.00417656  1
  O  O211  1  0.87757101  0.26484690  0.48650590  1
  O  O212  1  0.86761930  0.75634184  0.00641855  1
  O  O213  1  0.89313301  0.75913667  0.51510607  1
  O  O214  1  0.13406742  0.24319382  0.49372981  1
  O  O215  1  0.14130153  0.25248521  1.00510717  1
  O  O216  1  0.08792814  0.71953942  0.48476080  1
  O  O217  1  0.13157948  0.74593320  0.99190146  1
  O  O218  1  0.62480865  0.24561065  0.47684092  1
  O  O219  1  0.63623895  0.24096267  0.99571355  1
  O  O220  1  0.61690019  0.73566120  0.48747856  1
  O  O221  1  0.62748080  0.74986285  0.99446447  1
  O  O222  1  0.48841855  0.25953150  0.13201429  1
  O  O223  1  0.48724764  0.24265538  0.63112238  1
  O  O224  1  0.49300267  0.74114814  0.12761895  1
  O  O225  1  0.50357919  0.74152774  0.63906230  1
  O  O226  1  1.00956435  0.25238469  0.14253577  1
  O  O227  1  1.00296966  0.24617454  0.63908208  1
  O  O228  1  0.99184408  0.75832191  0.13636876  1
  O  O229  1  0.99280595  0.73342086  0.63697562  1
  O  O230  1  0.01263088  0.24921171  0.36718877  1
  O  O231  1  -0.00004011  0.26028065  0.86402108  1
  O  O232  1  -0.00124451  0.76077659  0.35494587  1
  O  O233  1  0.00417400  0.74997758  0.86572712  1
  O  O234  1  0.51107638  0.25561634  0.36227302  1
  O  O235  1  0.49921928  0.26216226  0.86943639  1
  O  O236  1  0.47566735  0.75470835  0.37738507  1
  O  O237  1  0.50963094  0.74592133  0.86300074  1
  O  O238  1  0.24755103  0.13180285  0.49600128  1
  O  O239  1  0.25753149  0.13137398  0.98780690  1
  O  O240  1  0.22561238  0.60400568  0.49281339  1
  O  O241  1  0.24307350  0.63600240  0.98812484  1
  O  O242  1  0.76974036  0.12533270  0.48431770  1
  O  O243  1  0.74751838  0.13848617  0.99425193  1
  O  O244  1  0.74271635  0.62459586  0.50786622  1
  O  O245  1  0.73658388  0.63842010  0.99623409  1
  O  O246  1  0.25713459  0.36822166  0.00629132  1
  O  O247  1  0.24676254  0.36092371  0.51390052  1
  O  O248  1  0.25120094  0.86405621  -0.00427179  1
  O  O249  1  0.26281248  0.89151724  0.50604188  1
  O  O250  1  0.74440839  0.36561963  0.00432064  1
  O  O251  1  0.76056585  0.37085549  0.50719112  1
  O  O252  1  0.75828133  0.86721919  -0.01005935  1
  O  O253  1  0.76565541  0.87840368  0.51440705  1
  O  O254  1  0.12828989  0.49552506  0.23641468  1
  O  O255  1  0.12848092  0.48595346  0.74310757  1
  O  O256  1  0.13851595  0.99518506  0.25683180  1
  O  O257  1  0.13630780  1.00480278  0.75414817  1
  O  O258  1  0.63130692  0.49970382  0.24573317  1
  O  O259  1  0.62949979  0.50457791  0.75081448  1
  O  O260  1  0.59879804  0.98774169  0.20579931  1
  O  O261  1  0.63508048  0.99138257  0.75631911  1
  O  O262  1  0.36179396  0.00864725  0.26522069  1
  O  O263  1  0.36547757  0.00748975  0.76252062  1
  O  O264  1  0.36309256  0.51776691  0.25045049  1
  O  O265  1  0.36938843  0.51295274  0.75807792  1
  O  O266  1  0.87724335  0.00721286  0.24573954  1
  O  O267  1  0.86659173  0.00474923  0.75691933  1
  O  O268  1  0.87310092  0.50735704  0.25677798  1
  O  O269  1  0.85503119  0.49099375  0.76256054  1
  O  O270  1  0.12872121  0.36280269  0.37718035  1
  O  O271  1  0.12413029  0.37837867  0.86504577  1
  O  O272  1  0.11452641  0.87828429  0.37012067  1
  O  O273  1  0.12423187  0.85912958  0.87675432  1
  O  O274  1  0.62310277  0.37516973  0.36242212  1
  O  O275  1  0.61015929  0.37919893  0.88099202  1
  O  O276  1  0.59591782  0.85390511  0.37984214  1
  O  O277  1  0.63149663  0.86758914  0.86343955  1
  O  O278  1  0.36824565  0.13716841  0.13462845  1
  O  O279  1  0.38340737  0.11556273  0.64063239  1
  O  O280  1  0.38952252  0.62258611  0.11825305  1
  O  O281  1  0.37680473  0.62095122  0.63696158  1
  O  O282  1  0.89430606  0.12634516  0.13731164  1
  O  O283  1  0.87404829  0.11632515  0.63975056  1
  O  O284  1  0.87116807  0.64026887  0.13556980  1
  O  O285  1  0.87935698  0.63030104  0.62381918  1
  O  O286  1  0.25990942  0.25784563  0.11939979  1
  O  O287  1  0.24978563  0.25531638  0.61767032  1
  O  O288  1  0.24602000  0.74422627  0.10435475  1
  O  O289  1  0.21980021  0.73594465  0.58173441  1
  O  O290  1  0.74805308  0.26444847  0.11232252  1
  O  O291  1  0.74547781  0.26133450  0.61758327  1
  O  O292  1  0.75412738  0.75357788  0.11215525  1
  O  O293  1  0.76113233  0.75758711  0.63163261  1
  O  O294  1  0.24948942  0.24272934  0.38489472  1
  O  O295  1  0.25909570  0.23825481  0.88444759  1
  O  O296  1  0.23787613  0.75274379  0.41238091  1
  O  O297  1  0.23953831  0.74270639  0.87767472  1
  O  O298  1  0.73442468  0.25096040  0.36532917  1
  O  O299  1  0.74940057  0.24507248  0.88299321  1
  O  O300  1  0.74101887  0.76116179  0.38162511  1
  O  O301  1  0.73737021  0.74486415  0.88251828  1
  O  O302  1  -0.00522349  0.11066141  -0.00475614  1
  O  O303  1  0.00724724  0.11800102  0.49775615  1
  O  O304  1  0.01410838  0.62851528  -0.00539442  1
  O  O305  1  -0.00972077  0.60272765  0.51737289  1
  O  O306  1  0.51279060  0.13439972  -0.00308892  1
  O  O307  1  0.49136811  0.10783796  0.50908314  1
  O  O308  1  0.50514258  0.62471403  0.00485110  1
  O  O309  1  0.48873211  0.62874645  0.52015896  1
  O  O310  1  0.49320664  0.35723019  0.51135601  1
  O  O311  1  0.49495198  0.38216623  0.99391690  1
  O  O312  1  0.48559797  0.88490018  0.50478021  1
  O  O313  1  0.48168112  0.86812107  0.99045082  1
  O  O314  1  0.99012163  0.38062029  0.49957146  1
  O  O315  1  1.00476420  0.37047963  0.98481821  1
  O  O316  1  0.99958412  0.88045751  0.49338073  1
  O  O317  1  0.98715995  0.88278287  0.99160009  1
  O  O318  1  0.48651172  0.49528385  0.37046321  1
  O  O319  1  0.49300268  0.49820866  0.88112641  1
  O  O320  1  0.49283435  0.98725970  0.38377669  1
  O  O321  1  0.48575238  1.00303918  0.86989423  1
  O  O322  1  0.99724098  0.49841347  0.38587491  1
  O  O323  1  0.99852110  0.48131750  0.87492712  1
  O  O324  1  1.00579111  0.99343988  0.38736292  1
  O  O325  1  0.98675196  1.00027441  0.87826400  1
  O  O326  1  -0.00183455  -0.00445395  0.10435638  1
  O  O327  1  0.00793206  0.00357453  0.61456733  1
  O  O328  1  0.01725599  0.49087164  0.12248051  1
  O  O329  1  0.00191999  0.49748975  0.62647552  1
  O  O330  1  0.56757333  -0.05403712  0.15294316  1
  O  O331  1  0.50246474  0.00555284  0.61765597  1
  O  O332  1  0.50708196  0.50740653  0.12119535  1
  O  O333  1  0.50139034  0.51631928  0.63163214  1
  O  O334  1  0.24936244  0.37286745  0.23604484  1
  O  O335  1  0.24618146  0.36953601  0.74269997  1
  O  O336  1  0.23893149  0.88817483  0.25878286  1
  O  O337  1  0.25171588  0.89309638  0.75848388  1
  O  O338  1  0.74116951  0.38635213  0.23971140  1
  O  O339  1  0.73654863  0.36381330  0.73700602  1
  O  O340  1  0.76753583  0.86829242  0.23377636  1
  O  O341  1  0.74297993  0.88144451  0.74298314  1
  O  O342  1  0.25703994  0.11908303  0.26174895  1
  O  O343  1  0.25824277  0.12486446  0.76279622  1
  O  O344  1  0.21137677  0.62357691  0.28263153  1
  O  O345  1  0.25392351  0.63087892  0.75667756  1
  O  O346  1  0.77097389  0.13019405  0.23854521  1
  O  O347  1  0.75344364  0.11976270  0.75559542  1
  O  O348  1  0.76603346  0.61368294  0.25070418  1
  O  O349  1  0.73738090  0.63337674  0.76382161  1
  O  O350  1  0.37110172  0.11965565  0.37010257  1
  O  O351  1  0.37064671  0.11412779  0.86847592  1
  O  O352  1  0.37389940  0.60604146  0.38301975  1
  O  O353  1  0.36545293  0.62311316  0.86823263  1
  O  O354  1  0.87670450  0.12424281  0.35131007  1
  O  O355  1  0.86380519  0.11691383  0.86665261  1
  O  O356  1  0.88684013  0.61311077  0.36816873  1
  O  O357  1  0.85332206  0.63760618  0.87380839  1
  O  O358  1  0.13754058  0.38508413  0.12132090  1
  O  O359  1  0.13327946  0.37731504  0.63678092  1
  O  O360  1  0.12346728  0.88442177  0.13388548  1
  O  O361  1  0.11791454  0.86139227  0.63581687  1
  O  O362  1  0.63028513  0.39038760  0.13034466  1
  O  O363  1  0.62641485  0.37333145  0.61727062  1
  O  O364  1  0.61789990  0.87658525  0.12647934  1
  O  O365  1  0.63627444  0.86389460  0.63445058  1
  O  O366  1  0.12400049  0.24908927  0.26263155  1
  O  O367  1  0.11682482  0.25689032  0.74883930  1
  O  O368  1  0.12322449  0.77222434  0.24189989  1
  O  O369  1  0.11131145  0.73890391  0.75932620  1
  O  O370  1  0.61841041  0.26131371  0.24777710  1
  O  O371  1  0.60589836  0.24401741  0.75556518  1
  O  O372  1  0.62424873  0.74216729  0.27302951  1
  O  O373  1  0.61660334  0.75915884  0.75649854  1
  O  O374  1  0.38091205  0.24577198  0.24432267  1
  O  O375  1  0.38669275  0.23725598  0.75821197  1
  O  O376  1  0.33521220  0.73992169  0.25001387  1
  O  O377  1  0.38256504  0.74357670  0.75834713  1
  O  O378  1  0.89069152  0.25511231  0.25404545  1
  O  O379  1  0.88345422  0.23816261  0.75523865  1
  O  O380  1  0.88548153  0.74395527  0.24541572  1
  O  O381  1  0.88273543  0.75225608  0.73992708  1
  O  O382  1  0.37462464  0.49372826  0.49547779  1
  O  O383  1  0.37793243  0.49659834  0.99497845  1
  O  O384  1  0.38147759  0.99609311  0.49240101  1
  O  O385  1  0.36900935  0.99038319  0.98919644  1
  O  O386  1  0.88004158  0.48753881  0.49447490  1
  O  O387  1  0.87861356  0.51534801  0.98844453  1
  O  O388  1  0.88951398  0.98415374  0.50962791  1
  O  O389  1  0.87692752  0.99460737  0.98938283  1
  O  O390  1  0.10770938  -0.00776012  -0.01426929  1
  O  O391  1  0.11943584  0.00932464  0.50286120  1
  O  O392  1  0.12175665  0.50839771  0.00808178  1
  O  O393  1  0.11174663  0.48244720  0.51611142  1
  O  O394  1  0.62758220  0.02109443  -0.00334691  1
  O  O395  1  0.60537122  -0.00572697  0.49076102  1
  O  O396  1  0.61930922  0.51091431  0.00865853  1
  O  O397  1  0.62408279  0.52081533  0.48772758  1
  O  O398  1  0.36855215  0.37041001  0.12084951  1
  O  O399  1  0.37136097  0.37141837  0.62660042  1
  O  O400  1  0.37452219  0.87473504  0.10612782  1
  O  O401  1  0.37075705  0.88489289  0.62262135  1
  O  O402  1  0.86087246  0.38952301  0.12702606  1
  O  O403  1  0.88129344  0.36898381  0.61136258  1
  O  O404  1  0.87871303  0.86385340  0.11111112  1
  O  O405  1  0.87028106  0.86398695  0.62078339  1
  O  O406  1  0.13660183  0.13206362  0.38518063  1
  O  O407  1  0.14077749  0.12750673  0.87403507  1
  O  O408  1  0.15224914  0.62933642  0.34003854  1
  O  O409  1  0.13148754  0.62956266  0.88093664  1
  O  O410  1  0.62098087  0.13361488  0.36289008  1
  O  O411  1  0.63836229  0.12783015  0.87750701  1
  O  O412  1  0.62551367  0.63692706  0.38562693  1
  O  O413  1  0.62686958  0.63828961  0.88720918  1
