# generated using pymatgen
data_V79Zn79O256
_symmetry_space_group_name_H-M   'P 1'
_cell_length_a   16.87809582
_cell_length_b   16.89728597
_cell_length_c   16.89627573
_cell_angle_alpha   90.26595048
_cell_angle_beta   90.07955225
_cell_angle_gamma   90.02856100
_symmetry_Int_Tables_number   1
_chemical_formula_structural   V79Zn79O256
_chemical_formula_sum   'V79 Zn79 O256'
_cell_volume   4818.65949076
_cell_formula_units_Z   1
loop_
 _symmetry_equiv_pos_site_id
 _symmetry_equiv_pos_as_xyz
  1  'x, y, z'
loop_
 _atom_site_type_symbol
 _atom_site_label
 _atom_site_symmetry_multiplicity
 _atom_site_fract_x
 _atom_site_fract_y
 _atom_site_fract_z
 _atom_site_occupancy
  V  V0  1  0.37643245  0.00665066  0.88509843  1
  V  V1  1  0.37327045  0.62087661  0.75644158  1
  V  V2  1  0.63734487  0.88301320  0.74805156  1
  V  V3  1  0.63223934  0.37236805  0.24728736  1
  V  V4  1  0.50660188  0.75416962  0.26154611  1
  V  V5  1  0.88671506  0.49201842  0.38495336  1
  V  V6  1  0.37462179  0.74974389  0.62558088  1
  V  V7  1  0.11751378  0.74723034  0.87844142  1
  V  V8  1  0.50490983  0.25021365  0.74687423  1
  V  V9  1  0.75072372  0.48815550  0.74428755  1
  V  V10  1  0.62622117  0.62852878  0.49657151  1
  V  V11  1  0.36812248  0.86496440  0.00168277  1
  V  V12  1  0.01704787  0.25744012  0.74225425  1
  V  V13  1  0.37301459  0.25000458  0.12646323  1
  V  V14  1  0.64048785  -0.00478084  0.62176686  1
  V  V15  1  0.87298498  0.87726630  0.50310107  1
  V  V16  1  0.37974453  0.88358259  0.48550139  1
  V  V17  1  0.75692761  0.50205136  0.25126017  1
  V  V18  1  0.63786066  0.24902017  0.38009427  1
  V  V19  1  0.87114037  0.75207574  0.13843513  1
  V  V20  1  0.88637282  0.24913089  0.13380837  1
  V  V21  1  0.49761034  0.37935950  0.37483144  1
  V  V22  1  0.87993237  0.75230662  0.63193733  1
  V  V23  1  0.24810812  0.48900257  0.74942372  1
  V  V24  1  0.37308512  0.62072256  0.26639765  1
  V  V25  1  0.85301780  0.25540836  0.62675179  1
  V  V26  1  0.25380267  0.12200459  0.37104672  1
  V  V27  1  0.37189020  0.37776865  0.49886249  1
  V  V28  1  0.49731665  0.62509487  0.12445100  1
  V  V29  1  0.50155185  0.24936943  0.25016306  1
  V  V30  1  0.11114300  0.25520537  0.37052464  1
  V  V31  1  0.50419898  0.37897104  0.86763924  1
  V  V32  1  0.63837766  0.24487558  0.87591967  1
  V  V33  1  0.87009960  0.36861254  0.50331071  1
  V  V34  1  0.12071464  0.50200500  0.12167570  1
  V  V35  1  0.00232161  0.89049084  0.38115226  1
  V  V36  1  0.25036841  0.62857216  0.88179937  1
  V  V37  1  0.11824706  0.00169511  0.61815856  1
  V  V38  1  0.87983618  0.50181985  0.88154495  1
  V  V39  1  0.12433429  0.48382643  0.62476863  1
  V  V40  1  0.24212349  0.24411666  -0.00592679  1
  V  V41  1  0.85442367  0.00805328  0.38269198  1
  V  V42  1  0.24816635  0.00043265  0.75426881  1
  V  V43  1  0.37119205  0.25397255  0.62337516  1
  V  V44  1  0.11169015  0.37487366  0.25122615  1
  V  V45  1  0.11212169  0.01357788  0.11768699  1
  V  V46  1  0.87254221  0.36007206  -0.00714447  1
  V  V47  1  0.01355178  0.37734246  0.87005127  1
  V  V48  1  0.63166953  0.49364371  0.12234257  1
  V  V49  1  0.50141843  0.62497016  0.62671390  1
  V  V50  1  0.37502130  0.38053347  -0.00627199  1
  V  V51  1  0.50129931  0.88210011  0.88047541  1
  V  V52  1  0.12124336  0.62093887  0.50331581  1
  V  V53  1  0.75098823  0.75027051  0.50273107  1
  V  V54  1  0.49279511  0.11296662  0.61509225  1
  V  V55  1  0.62753446  0.62534971  -0.00067616  1
  V  V56  1  0.25072160  0.87293931  0.62603167  1
  V  V57  1  0.75611965  0.62296744  0.37609668  1
  V  V58  1  0.24822169  0.74319545  0.49315752  1
  V  V59  1  0.86475027  0.11907062  0.75811427  1
  V  V60  1  0.11269850  0.74113731  0.37235903  1
  V  V61  1  0.50119362  0.75178772  0.75039048  1
  V  V62  1  0.11643695  0.62654347  0.00183362  1
  V  V63  1  0.24662607  0.25274603  0.49773073  1
  V  V64  1  0.12145623  0.87602702  0.24859291  1
  V  V65  1  0.87672041  0.88335069  0.00338723  1
  V  V66  1  0.25646699  0.49841880  0.26246838  1
  V  V67  1  0.62741687  0.75425764  0.87462203  1
  V  V68  1  -0.00554594  0.62893318  0.14398940  1
  V  V69  1  0.63702024  -0.00683725  0.12386846  1
  V  V70  1  -0.00176419  0.88772065  0.88134278  1
  V  V71  1  0.75156942  0.62853391  0.87121082  1
  V  V72  1  0.49739136  0.50088098  0.49799176  1
  V  V73  1  0.63553129  0.12355759  0.49461336  1
  V  V74  1  0.11710793  0.86603162  0.75096671  1
  V  V75  1  0.37620885  0.11770369  0.25360920  1
  V  V76  1  0.88088187  0.10945969  0.24587330  1
  V  V77  1  0.62898401  0.48756754  0.62720632  1
  V  V78  1  0.00297668  0.62521188  0.63232263  1
  Zn  Zn79  1  0.11667929  0.10931012  0.48352667  1
  Zn  Zn80  1  0.22610883  0.12619255  0.88038769  1
  Zn  Zn81  1  0.70922443  0.31499702  0.06591534  1
  Zn  Zn82  1  -0.00584190  0.12780772  0.61999938  1
  Zn  Zn83  1  0.62961764  0.87614179  0.24579971  1
  Zn  Zn84  1  0.37087091  0.12568863  0.75126543  1
  Zn  Zn85  1  0.24812902  0.37791302  0.12319947  1
  Zn  Zn86  1  0.62409892  0.12298170  0.00049092  1
  Zn  Zn87  1  0.24083381  0.87036656  0.11678337  1
  Zn  Zn88  1  0.36668985  0.74213309  0.12261803  1
  Zn  Zn89  1  0.88281792  0.62933813  0.75494209  1
  Zn  Zn90  1  0.25407172  -0.00514279  0.24973288  1
  Zn  Zn91  1  0.49900847  0.49953380  -0.00441086  1
  Zn  Zn92  1  0.50002089  0.11251100  0.11363130  1
  Zn  Zn93  1  0.74942372  0.76079874  0.00749313  1
  Zn  Zn94  1  0.18726623  0.19035150  0.18609894  1
  Zn  Zn95  1  0.19118860  0.18582894  0.68600384  1
  Zn  Zn96  1  0.19028355  0.68844133  0.18837534  1
  Zn  Zn97  1  0.18893468  0.68470731  0.68951512  1
  Zn  Zn98  1  0.70812158  0.17031192  0.18550340  1
  Zn  Zn99  1  0.68422793  0.17937737  0.69079984  1
  Zn  Zn100  1  0.68894089  0.68434143  0.18930658  1
  Zn  Zn101  1  0.68869307  0.68781848  0.68528703  1
  Zn  Zn102  1  0.30960743  0.31310537  0.31362486  1
  Zn  Zn103  1  0.31373724  0.30867882  0.81458850  1
  Zn  Zn104  1  0.30897731  0.80385963  0.30872885  1
  Zn  Zn105  1  0.30988094  0.81072987  0.81633584  1
  Zn  Zn106  1  0.81769883  0.31088874  0.31034817  1
  Zn  Zn107  1  0.82092756  0.31151733  0.80861723  1
  Zn  Zn108  1  0.80056693  0.81978924  0.31858128  1
  Zn  Zn109  1  0.81531010  0.81603148  0.81755672  1
  Zn  Zn110  1  0.18312749  0.43704759  0.43839993  1
  Zn  Zn111  1  0.19369377  0.44395973  0.93725099  1
  Zn  Zn112  1  0.19537107  0.93157476  0.43479511  1
  Zn  Zn113  1  0.18421739  0.93856740  0.93965495  1
  Zn  Zn114  1  0.69012321  0.43596875  0.43949807  1
  Zn  Zn115  1  0.68798497  0.43806757  0.92844943  1
  Zn  Zn116  1  0.68304197  0.93098662  0.42689105  1
  Zn  Zn117  1  0.68790867  0.94347338  0.94500837  1
  Zn  Zn118  1  0.30021945  0.05964521  0.07023272  1
  Zn  Zn119  1  0.30508390  0.06278463  0.55684725  1
  Zn  Zn120  1  0.30686167  0.56041913  0.06620894  1
  Zn  Zn121  1  0.30880433  0.56101027  0.56705446  1
  Zn  Zn122  1  0.81995011  0.06230404  0.06582445  1
  Zn  Zn123  1  0.81552890  0.06670474  0.56632654  1
  Zn  Zn124  1  0.81548937  0.56372635  0.06221456  1
  Zn  Zn125  1  0.81633706  0.56130903  0.56281170  1
  Zn  Zn126  1  0.44033582  0.43757001  0.18396249  1
  Zn  Zn127  1  0.43621921  0.43872543  0.68533490  1
  Zn  Zn128  1  0.44747417  0.93901593  0.18221882  1
  Zn  Zn129  1  0.43649382  0.93564655  0.69242788  1
  Zn  Zn130  1  0.93393251  0.43704578  0.17982212  1
  Zn  Zn131  1  0.93791513  0.43793371  0.68555408  1
  Zn  Zn132  1  0.93911294  0.93164693  0.19234106  1
  Zn  Zn133  1  0.93604060  0.93468877  0.69001494  1
  Zn  Zn134  1  0.06039260  0.06860771  0.30135437  1
  Zn  Zn135  1  0.04617833  0.05993781  0.79876070  1
  Zn  Zn136  1  0.06405804  0.55874309  0.31232718  1
  Zn  Zn137  1  0.06657210  0.55955007  0.80952725  1
  Zn  Zn138  1  0.57661337  0.06937578  0.29926176  1
  Zn  Zn139  1  0.56236893  0.06681209  0.80715197  1
  Zn  Zn140  1  0.56566724  0.56358906  0.31165411  1
  Zn  Zn141  1  0.56604760  0.56131198  0.80965526  1
  Zn  Zn142  1  0.44088246  0.18814315  0.43567544  1
  Zn  Zn143  1  0.43489581  0.19089548  0.93486889  1
  Zn  Zn144  1  0.43831282  0.69338443  0.43995842  1
  Zn  Zn145  1  0.44158416  0.68840361  0.93549244  1
  Zn  Zn146  1  0.93581254  0.18756381  0.44562993  1
  Zn  Zn147  1  0.95458969  0.18811461  0.92696131  1
  Zn  Zn148  1  0.93644080  0.68322104  0.44058664  1
  Zn  Zn149  1  0.93691811  0.69230281  0.94553462  1
  Zn  Zn150  1  0.05715082  0.31736993  0.05789310  1
  Zn  Zn151  1  0.05096134  0.31122399  0.55235495  1
  Zn  Zn152  1  0.05675555  0.80506204  0.06194840  1
  Zn  Zn153  1  0.05956066  0.81126478  0.56055846  1
  Zn  Zn154  1  0.54196790  0.27898858  0.03995369  1
  Zn  Zn155  1  0.56204354  0.30765758  0.56106011  1
  Zn  Zn156  1  0.56006299  0.81427235  0.06731025  1
  Zn  Zn157  1  0.56167081  0.81458043  0.56103742  1
  O  O158  1  0.12435857  0.11306166  0.13412908  1
  O  O159  1  0.13079495  0.10480371  0.62752533  1
  O  O160  1  0.11536927  0.62309545  0.12356515  1
  O  O161  1  0.11886915  0.62435350  0.61989691  1
  O  O162  1  0.62766911  0.12014160  0.12482317  1
  O  O163  1  0.61337210  0.11457980  0.61679842  1
  O  O164  1  0.61846689  0.61710003  0.11631693  1
  O  O165  1  0.62037515  0.61717295  0.61653044  1
  O  O166  1  0.38811814  0.36997907  0.38368143  1
  O  O167  1  0.38598569  0.36955048  0.88666422  1
  O  O168  1  0.36636117  0.86842457  0.38640227  1
  O  O169  1  0.37982490  0.88312441  0.88129790  1
  O  O170  1  0.87009434  0.38394014  0.38435619  1
  O  O171  1  0.88023899  0.38337161  0.87894843  1
  O  O172  1  0.88427109  0.88951464  0.38089206  1
  O  O173  1  0.89121942  0.86972408  0.88399680  1
  O  O174  1  0.23854448  0.01785603  0.37158532  1
  O  O175  1  0.25607270  0.00243299  0.87055943  1
  O  O176  1  0.24518306  0.49986921  0.36135276  1
  O  O177  1  0.24329252  0.51360838  0.85853045  1
  O  O178  1  0.75658734  0.01323361  0.38023519  1
  O  O179  1  0.75715077  0.04186439  0.91089191  1
  O  O180  1  0.75690436  0.50502592  0.36925813  1
  O  O181  1  0.75591742  0.50860516  0.86275221  1
  O  O182  1  0.23704914  0.49975158  0.13665253  1
  O  O183  1  0.23846833  0.50205699  0.63715519  1
  O  O184  1  0.23446134  0.98784879  0.13245881  1
  O  O185  1  0.24392549  0.98993984  0.63504239  1
  O  O186  1  0.74004784  0.50969337  0.13438228  1
  O  O187  1  0.74563684  0.50759766  0.63777294  1
  O  O188  1  0.73960080  1.00631407  0.12221014  1
  O  O189  1  0.73879676  1.00074803  0.62601977  1
  O  O190  1  0.01369436  0.38267581  0.24749586  1
  O  O191  1  -0.00160471  0.36836870  0.75579958  1
  O  O192  1  0.00952316  0.87402146  0.27045504  1
  O  O193  1  0.00839363  0.87723406  0.76385945  1
  O  O194  1  0.50914511  0.37257143  0.25731783  1
  O  O195  1  0.49031189  0.36740381  0.76007117  1
  O  O196  1  0.49624361  0.85550072  0.24532665  1
  O  O197  1  0.50683167  0.87087887  0.76013696  1
  O  O198  1  0.49247930  0.13808025  0.25423593  1
  O  O199  1  0.49400417  0.13329845  0.73502678  1
  O  O200  1  0.49117408  0.62542829  0.24451253  1
  O  O201  1  0.49332504  0.62926814  0.74822449  1
  O  O202  1  0.97833555  0.13575355  0.26257857  1
  O  O203  1  0.99445543  0.14305633  0.74036218  1
  O  O204  1  1.00198834  0.62799645  0.24298767  1
  O  O205  1  1.00161873  0.62556687  0.73850778  1
  O  O206  1  0.36671803  0.25982835  0.00848827  1
  O  O207  1  0.36874902  0.25702499  0.50380628  1
  O  O208  1  0.37796820  0.76131067  -0.00175705  1
  O  O209  1  0.36479714  0.75314896  0.50634007  1
  O  O210  1  0.87562111  0.25825776  -0.01345317  1
  O  O211  1  0.86899874  0.25675799  0.51270578  1
  O  O212  1  0.87257622  0.75846044  0.01285460  1
  O  O213  1  0.87097291  0.75637449  0.50865198  1
  O  O214  1  0.13436334  0.26391339  0.48265383  1
  O  O215  1  0.14511818  0.26384291  1.00734965  1
  O  O216  1  0.12918655  0.74324805  0.49336251  1
  O  O217  1  0.12544018  0.73931576  0.99279379  1
  O  O218  1  0.61759839  0.23490546  0.49363291  1
  O  O219  1  0.64236635  0.25324451  0.98707680  1
  O  O220  1  0.63560236  0.73971955  0.50984724  1
  O  O221  1  0.62702562  0.74121508  0.99576193  1
  O  O222  1  0.49038176  0.25868877  0.14233015  1
  O  O223  1  0.49151179  0.24187106  0.62890314  1
  O  O224  1  0.49471569  0.73585060  0.13018375  1
  O  O225  1  0.49610536  0.74386918  0.63166940  1
  O  O226  1  0.98379505  0.24292197  0.10292553  1
  O  O227  1  0.99435632  0.25712232  0.63647710  1
  O  O228  1  0.98942192  0.73673039  0.12795347  1
  O  O229  1  0.98849684  0.74276270  0.62205134  1
  O  O230  1  0.01342213  0.25121408  0.37732490  1
  O  O231  1  0.00049350  0.26805943  0.85540163  1
  O  O232  1  0.00963406  0.75583839  0.38255361  1
  O  O233  1  0.01310997  0.75136923  0.87509875  1
  O  O234  1  0.50712938  0.26012303  0.36728270  1
  O  O235  1  0.50287225  0.25910744  0.86356847  1
  O  O236  1  0.50331695  0.74379751  0.36186209  1
  O  O237  1  0.50830285  0.75943746  0.86917625  1
  O  O238  1  0.24121569  0.13540415  0.48989026  1
  O  O239  1  0.25114467  0.13892478  1.00064566  1
  O  O240  1  0.23916900  0.63480658  0.50926208  1
  O  O241  1  0.24167909  0.61709680  0.98903843  1
  O  O242  1  0.73356445  0.12744244  0.50622261  1
  O  O243  1  0.75823085  0.09739639  0.96580880  1
  O  O244  1  0.74333233  0.62655347  0.49647362  1
  O  O245  1  0.74019999  0.62118451  0.98841222  1
  O  O246  1  0.26333635  0.37006019  -0.00248188  1
  O  O247  1  0.26267020  0.36763292  0.48964527  1
  O  O248  1  0.26490028  0.87411285  -0.00539984  1
  O  O249  1  0.25617834  0.86360214  0.50933835  1
  O  O250  1  0.76640254  0.37987031  -0.00955044  1
  O  O251  1  0.76569551  0.38238362  0.50194461  1
  O  O252  1  0.77048328  0.87553367  -0.01339477  1
  O  O253  1  0.76095180  0.86269222  0.49358478  1
  O  O254  1  0.13516613  0.49230188  0.24652980  1
  O  O255  1  0.13728695  0.50026562  0.73768641  1
  O  O256  1  0.12338532  0.98597378  0.24628409  1
  O  O257  1  0.13130685  0.98872422  0.74405897  1
  O  O258  1  0.63108958  0.49164231  0.24268887  1
  O  O259  1  0.63972283  0.50513477  0.74202325  1
  O  O260  1  0.62851441  0.99641868  0.23515928  1
  O  O261  1  0.61856509  0.99627310  0.73374849  1
  O  O262  1  0.37679782  0.01424482  0.24263436  1
  O  O263  1  0.36167899  -0.00202939  0.76032904  1
  O  O264  1  0.36718146  0.50653982  0.24756402  1
  O  O265  1  0.36310698  0.51179518  0.73972196  1
  O  O266  1  0.87521407  0.00288638  0.26451519  1
  O  O267  1  0.88603335  0.01995892  0.74142774  1
  O  O268  1  0.86206065  0.48653156  0.25799283  1
  O  O269  1  0.86343131  0.50547940  0.75450614  1
  O  O270  1  0.12754951  0.36886754  0.36176686  1
  O  O271  1  0.11212934  0.38716347  0.87832214  1
  O  O272  1  0.11426945  0.86636172  0.37650269  1
  O  O273  1  0.11705241  0.86785633  0.87158472  1
  O  O274  1  0.61617456  0.36978485  0.37066176  1
  O  O275  1  0.61095370  0.36277711  0.87767650  1
  O  O276  1  0.55620217  0.92401519  0.38455462  1
  O  O277  1  0.61960516  0.87724935  0.86990026  1
  O  O278  1  0.37527721  0.13574724  0.13330590  1
  O  O279  1  0.38106819  0.13200339  0.62052012  1
  O  O280  1  0.38652329  0.61919445  0.12780290  1
  O  O281  1  0.38049094  0.63075146  0.63371330  1
  O  O282  1  0.87951560  0.13014134  0.13831393  1
  O  O283  1  0.87431218  0.14175346  0.62886489  1
  O  O284  1  0.88704074  0.63134815  0.12542258  1
  O  O285  1  0.88604851  0.63372822  0.62375358  1
  O  O286  1  0.25948293  0.25530360  0.11811982  1
  O  O287  1  0.25968023  0.24269786  0.61141860  1
  O  O288  1  0.25622758  0.76016962  0.13566194  1
  O  O289  1  0.25200744  0.75773335  0.61987922  1
  O  O290  1  0.77477371  0.24343502  0.12077221  1
  O  O291  1  0.75389994  0.25221189  0.63185079  1
  O  O292  1  0.76552206  0.73675913  0.12262115  1
  O  O293  1  0.76622731  0.73949591  0.61349460  1
  O  O294  1  0.24556429  0.24305281  0.38149677  1
  O  O295  1  0.25449342  0.24493523  0.88801416  1
  O  O296  1  0.23420814  0.75231597  0.38728841  1
  O  O297  1  0.23692786  0.73791802  0.86992294  1
  O  O298  1  0.73632337  0.25911128  0.37440748  1
  O  O299  1  0.73492710  0.25483761  0.85882445  1
  O  O300  1  0.76674809  0.73150384  0.39204203  1
  O  O301  1  0.74524165  0.74218270  0.87796470  1
  O  O302  1  0.05936252  0.13591909  -0.04866446  1
  O  O303  1  0.01324830  0.13928140  0.51037791  1
  O  O304  1  0.01231376  0.62421619  0.00740709  1
  O  O305  1  0.01305691  0.62692278  0.51218796  1
  O  O306  1  0.51102459  0.16508226  0.01286322  1
  O  O307  1  0.50344922  0.12559208  0.51138410  1
  O  O308  1  0.50973588  0.62162547  0.00389238  1
  O  O309  1  0.50582867  0.61951846  0.50441485  1
  O  O310  1  0.49416060  0.38126266  0.49339191  1
  O  O311  1  0.49065013  0.37127856  0.98880703  1
  O  O312  1  0.47869664  0.86700763  0.50562531  1
  O  O313  1  0.49191682  0.87125364  0.98537279  1
  O  O314  1  0.97494016  0.37392841  0.49887265  1
  O  O315  1  0.98843462  0.37236952  0.97868640  1
  O  O316  1  0.98797686  0.87110138  0.48978390  1
  O  O317  1  0.99492834  0.86901380  0.98807887  1
  O  O318  1  0.50775122  0.49184336  0.38665822  1
  O  O319  1  0.50721815  0.48404218  0.87387936  1
  O  O320  1  0.51411168  0.98578502  0.37412731  1
  O  O321  1  0.48542584  0.99454653  0.86622310  1
  O  O322  1  0.98483713  0.50086130  0.36895883  1
  O  O323  1  0.98905054  0.48973486  0.85968989  1
  O  O324  1  1.00861098  0.99065697  0.38105277  1
  O  O325  1  1.00464153  0.98653817  0.87784315  1
  O  O326  1  0.01301712  -0.00402460  0.13452237  1
  O  O327  1  0.01648043  -0.00397758  0.62822027  1
  O  O328  1  0.00934055  0.51438029  0.13263338  1
  O  O329  1  0.01677350  0.50746140  0.63159665  1
  O  O330  1  0.51818078  0.00298083  0.12531842  1
  O  O331  1  0.49504871  0.01188154  0.62669668  1
  O  O332  1  0.51423650  0.50655177  0.12373812  1
  O  O333  1  0.50812488  0.50518975  0.61886166  1
  O  O334  1  0.24901076  0.38774690  0.24685098  1
  O  O335  1  0.25896053  0.39038619  0.75643317  1
  O  O336  1  0.23003363  0.87628251  0.26269768  1
  O  O337  1  0.24119959  0.88005112  0.74536911  1
  O  O338  1  0.73690931  0.38285053  0.25611616  1
  O  O339  1  0.75271705  0.39026106  0.75206900  1
  O  O340  1  0.70081625  0.86786203  0.33149145  1
  O  O341  1  0.73686526  0.87704982  0.75895683  1
  O  O342  1  0.26068649  0.12850158  0.25592307  1
  O  O343  1  0.24766219  0.11461926  0.75892472  1
  O  O344  1  0.26418137  0.61410488  0.24792798  1
  O  O345  1  0.25789925  0.62058282  0.75726833  1
  O  O346  1  0.78827133  0.15194544  0.26534939  1
  O  O347  1  0.76312759  0.12414020  0.74964897  1
  O  O348  1  0.74271247  0.61368867  0.26407399  1
  O  O349  1  0.75173799  0.62406529  0.76266191  1
  O  O350  1  0.36671433  0.13295263  0.36626265  1
  O  O351  1  0.37630618  0.11218465  0.87408722  1
  O  O352  1  0.37939193  0.62129898  0.36527131  1
  O  O353  1  0.36815054  0.63080895  0.86558225  1
  O  O354  1  0.88337304  0.10692891  0.38053547  1
  O  O355  1  0.88432057  0.13331477  0.85708727  1
  O  O356  1  0.86682493  0.60702788  0.38477522  1
  O  O357  1  0.86925438  0.62147702  0.87652046  1
  O  O358  1  0.12326977  0.38316101  0.13494167  1
  O  O359  1  0.12181497  0.38593513  0.61501036  1
  O  O360  1  0.11581392  0.86646501  0.14403100  1
  O  O361  1  0.13107749  0.87791132  0.63089456  1
  O  O362  1  0.62841735  0.37967889  0.13032481  1
  O  O363  1  0.61956712  0.38814121  0.61917499  1
  O  O364  1  0.62969590  0.88322845  0.12536178  1
  O  O365  1  0.62034788  0.88853165  0.63034097  1
  O  O366  1  0.13036259  0.26601102  0.25690563  1
  O  O367  1  0.11714138  0.25201379  0.74136430  1
  O  O368  1  0.12698743  0.75546555  0.26816947  1
  O  O369  1  0.12937154  0.76022237  0.75707686  1
  O  O370  1  0.61904206  0.25667501  0.25765305  1
  O  O371  1  0.61179211  0.24533123  0.75598884  1
  O  O372  1  0.60927690  0.74649126  0.24219046  1
  O  O373  1  0.62146211  0.76014766  0.75290374  1
  O  O374  1  0.38115657  0.24746134  0.24468490  1
  O  O375  1  0.37951738  0.24743325  0.73886402  1
  O  O376  1  0.38338279  0.73246220  0.25002144  1
  O  O377  1  0.37957229  0.74303719  0.74631358  1
  O  O378  1  0.89149335  0.27208339  0.23214351  1
  O  O379  1  0.87941925  0.24588980  0.73584841  1
  O  O380  1  0.86495566  0.76840600  0.23821960  1
  O  O381  1  0.86886166  0.75155448  0.73496655  1
  O  O382  1  0.38653753  0.49252244  0.51050304  1
  O  O383  1  0.37735022  0.48408430  1.00667416  1
  O  O384  1  0.36331804  0.98281887  0.50114685  1
  O  O385  1  0.36981628  0.99489312  0.98779586  1
  O  O386  1  0.87626512  0.49226911  0.49150223  1
  O  O387  1  0.87265973  0.49606568  0.98586345  1
  O  O388  1  0.86624390  0.99068725  0.49382690  1
  O  O389  1  0.88426102  0.98228374  1.01312606  1
  O  O390  1  0.12534536  -0.00717089  0.01838854  1
  O  O391  1  0.13460767  -0.00628474  0.51467760  1
  O  O392  1  0.13125834  0.50814495  0.01421425  1
  O  O393  1  0.13603255  0.50891729  0.51435383  1
  O  O394  1  0.62308209  0.00599103  0.01232612  1
  O  O395  1  0.62856618  0.00786971  0.51042726  1
  O  O396  1  0.62604001  0.50591008  0.00538243  1
  O  O397  1  0.61703501  0.50722753  0.50765883  1
  O  O398  1  0.37657071  0.36707712  0.11466599  1
  O  O399  1  0.38231234  0.36358301  0.61267009  1
  O  O400  1  0.38014564  0.87854109  0.10516295  1
  O  O401  1  0.36336858  0.86910537  0.62632109  1
  O  O402  1  0.88422342  0.36638708  0.10173412  1
  O  O403  1  0.87262612  0.36526801  0.61941276  1
  O  O404  1  0.88567359  0.86143625  0.11540203  1
  O  O405  1  0.88269537  0.86225294  0.61739020  1
  O  O406  1  0.13170281  0.14229602  0.36581109  1
  O  O407  1  0.10293328  0.12535221  0.88377392  1
  O  O408  1  0.11685665  0.63442175  0.38431159  1
  O  O409  1  0.12826427  0.62838908  0.88240445  1
  O  O410  1  0.61975682  0.13102720  0.38734534  1
  O  O411  1  0.61754044  0.14098637  0.87658457  1
  O  O412  1  0.63577712  0.61708227  0.38936287  1
  O  O413  1  0.63023556  0.63100258  0.88088240  1
