# generated using pymatgen
data_V79Zn79O256
_symmetry_space_group_name_H-M   'P 1'
_cell_length_a   16.92565175
_cell_length_b   16.91304520
_cell_length_c   16.93068711
_cell_angle_alpha   90.19342648
_cell_angle_beta   90.03555888
_cell_angle_gamma   89.95763558
_symmetry_Int_Tables_number   1
_chemical_formula_structural   V79Zn79O256
_chemical_formula_sum   'V79 Zn79 O256'
_cell_volume   4846.62164703
_cell_formula_units_Z   1
loop_
 _symmetry_equiv_pos_site_id
 _symmetry_equiv_pos_as_xyz
  1  'x, y, z'
loop_
 _atom_site_type_symbol
 _atom_site_label
 _atom_site_symmetry_multiplicity
 _atom_site_fract_x
 _atom_site_fract_y
 _atom_site_fract_z
 _atom_site_occupancy
  V  V0  1  0.11359915  0.00637818  0.11817662  1
  V  V1  1  0.87394995  0.50292409  0.87588115  1
  V  V2  1  0.62425745  0.37659941  0.26322855  1
  V  V3  1  0.62690983  0.62603533  0.50094917  1
  V  V4  1  0.24587430  0.12909112  0.38556810  1
  V  V5  1  0.62505345  0.74963328  0.37618476  1
  V  V6  1  0.37567127  0.00031902  0.38102915  1
  V  V7  1  0.36707252  0.00326810  0.86552805  1
  V  V8  1  0.87649542  0.37886818  0.49558608  1
  V  V9  1  0.75162003  0.76001966  0.51235147  1
  V  V10  1  0.21266778  0.88091938  0.59121871  1
  V  V11  1  0.36871529  0.63186828  0.75988026  1
  V  V12  1  0.37928112  0.85565051  0.50502953  1
  V  V13  1  0.49002638  0.62921262  0.62381285  1
  V  V14  1  0.37487838  0.12960562  0.23898048  1
  V  V15  1  -0.00580867  0.24437342  0.74682904  1
  V  V16  1  0.00141669  0.24416192  0.23341456  1
  V  V17  1  0.74522502  0.74215956  -0.00168357  1
  V  V18  1  0.26550425  0.37157705  0.12415719  1
  V  V19  1  0.25383008  0.50355391  0.24735147  1
  V  V20  1  0.50128110  0.87507981  0.37270922  1
  V  V21  1  0.87248822  0.88656444  0.50664326  1
  V  V22  1  0.36900225  0.37213008  0.49828541  1
  V  V23  1  0.12520411  0.24875957  0.38565685  1
  V  V24  1  0.00099881  0.62844345  0.14013380  1
  V  V25  1  0.62242298  0.37188093  0.75530814  1
  V  V26  1  0.62433210  0.00355816  0.11854633  1
  V  V27  1  0.13099377  0.63517222  0.50074662  1
  V  V28  1  0.74999545  0.50267855  0.74655493  1
  V  V29  1  0.75217441  0.24231434  -0.00010907  1
  V  V30  1  0.50877929  0.75559060  0.74719465  1
  V  V31  1  0.39340639  0.63180903  0.24498717  1
  V  V32  1  0.76386211  0.11310489  0.85514220  1
  V  V33  1  0.75157107  0.23239660  0.49316950  1
  V  V34  1  0.75295789  0.87504256  0.12657068  1
  V  V35  1  0.12670279  0.37340068  0.24912576  1
  V  V36  1  0.11480063  0.87003665  0.24855726  1
  V  V37  1  0.38425265  0.13036035  0.74318413  1
  V  V38  1  0.25370515  0.25915871  0.00241464  1
  V  V39  1  0.50194469  0.48828042  0.49797026  1
  V  V40  1  0.01355012  0.74196579  0.76758837  1
  V  V41  1  0.25005798  0.63665997  0.37662090  1
  V  V42  1  0.24910906  0.37318803  0.62079376  1
  V  V43  1  0.87403810  0.63280413  0.74436620  1
  V  V44  1  0.25346672  0.87469597  0.11950265  1
  V  V45  1  0.25635588  0.00319257  0.24195241  1
  V  V46  1  0.24641952  0.74287570  -0.01517404  1
  V  V47  1  0.12137755  0.38049498  0.74831077  1
  V  V48  1  0.00436046  0.50319656  0.00131173  1
  V  V49  1  0.50146251  0.25169637  0.24783835  1
  V  V50  1  0.61288154  0.01122398  0.63567902  1
  V  V51  1  0.88266269  0.88146422  -0.00233010  1
  V  V52  1  0.61807334  0.51048278  0.11670715  1
  V  V53  1  0.12810753  0.50432292  0.12586429  1
  V  V54  1  0.38159741  0.49643971  0.37420212  1
  V  V55  1  0.63021178  0.87034132  0.25412268  1
  V  V56  1  0.76229911  0.50410768  0.25921818  1
  V  V57  1  0.87512403  0.37216079  0.00521620  1
  V  V58  1  0.87996239  0.74330274  0.13941191  1
  V  V59  1  0.38563390  0.25027858  0.62496658  1
  V  V60  1  0.12524110  0.63193206  -0.00879673  1
  V  V61  1  0.37193625  0.87859241  -0.00962334  1
  V  V62  1  0.25624715  0.50619787  0.75851676  1
  V  V63  1  0.87740709  0.13056319  0.24782438  1
  V  V64  1  0.75243722  0.37195973  0.12708449  1
  V  V65  1  0.11267067  0.12453199  -0.00001511  1
  V  V66  1  -0.00132189  0.37881365  0.87427470  1
  V  V67  1  0.75465530  0.00519655  0.26569504  1
  V  V68  1  0.51242890  0.87606369  0.86790955  1
  V  V69  1  0.00183251  0.62941122  0.62336222  1
  V  V70  1  0.24715428  0.12450740  0.87075441  1
  V  V71  1  0.12986832  0.88082944  0.76149582  1
  V  V72  1  0.62483639  0.22822838  0.37791384  1
  V  V73  1  0.11932924  0.24907172  0.87267609  1
  V  V74  1  0.62731896  0.24398449  0.87727312  1
  V  V75  1  0.87952693  0.23778471  0.62590692  1
  V  V76  1  0.62455960  0.49652225  0.62815940  1
  V  V77  1  0.73398020  0.88268495  0.65076882  1
  V  V78  1  0.73819166  0.62688824  0.87828899  1
  Zn  Zn79  1  0.50544650  0.01789025  0.50113170  1
  Zn  Zn80  1  0.45980780  0.30180211  0.80465686  1
  Zn  Zn81  1  0.50531696  0.01640864  -0.01244557  1
  Zn  Zn82  1  0.10842742  0.75332417  0.36950582  1
  Zn  Zn83  1  -0.00716625  0.88385813  0.87865383  1
  Zn  Zn84  1  0.50284383  0.12882972  0.12132980  1
  Zn  Zn85  1  0.22025323  0.03376495  0.70028459  1
  Zn  Zn86  1  0.75307791  0.37054678  0.62295579  1
  Zn  Zn87  1  0.77074690  0.63042257  0.36683687  1
  Zn  Zn88  1  0.42867097  0.42559232  -0.05720715  1
  Zn  Zn89  1  0.12644702  0.50372659  0.61994818  1
  Zn  Zn90  1  0.89560684  0.00479130  0.38983450  1
  Zn  Zn91  1  0.38636292  0.73670550  0.11498359  1
  Zn  Zn92  1  0.00069844  0.50440619  0.49202634  1
  Zn  Zn93  1  -0.01011627  0.37773152  0.36941674  1
  Zn  Zn94  1  0.18800782  0.18661202  0.18561374  1
  Zn  Zn95  1  0.18375344  0.19447116  0.67809622  1
  Zn  Zn96  1  0.19539967  0.68964412  0.18126919  1
  Zn  Zn97  1  0.19219499  0.70006740  0.67944802  1
  Zn  Zn98  1  0.68936689  0.18793153  0.18877488  1
  Zn  Zn99  1  0.69707067  0.18598272  0.68928725  1
  Zn  Zn100  1  0.69075459  0.68448763  0.18755073  1
  Zn  Zn101  1  0.68326612  0.68576388  0.68831194  1
  Zn  Zn102  1  0.31237740  0.31066608  0.31317879  1
  Zn  Zn103  1  0.29875055  0.31765015  0.81583262  1
  Zn  Zn104  1  0.31344508  0.81378910  0.30767897  1
  Zn  Zn105  1  0.31686973  0.80674014  0.80745327  1
  Zn  Zn106  1  0.80875811  0.30917497  0.31290018  1
  Zn  Zn107  1  0.81126315  0.31303218  0.81310416  1
  Zn  Zn108  1  0.81904078  0.81636948  0.32568974  1
  Zn  Zn109  1  0.81360504  0.81071481  0.81678889  1
  Zn  Zn110  1  0.18573882  0.44509004  0.43434286  1
  Zn  Zn111  1  0.25123568  0.49499127  0.97398587  1
  Zn  Zn112  1  0.19619384  0.93229642  0.42591555  1
  Zn  Zn113  1  0.18125350  0.93729396  0.93306095  1
  Zn  Zn114  1  0.69388098  0.43208373  0.44148890  1
  Zn  Zn115  1  0.68621657  0.43744476  0.93644084  1
  Zn  Zn116  1  0.68116846  0.94704856  0.44813275  1
  Zn  Zn117  1  0.69648829  0.93713684  0.93693930  1
  Zn  Zn118  1  0.31054561  0.06628291  0.05319274  1
  Zn  Zn119  1  0.12073121  0.06047880  0.52897103  1
  Zn  Zn120  1  0.43293459  0.55667833  0.05375360  1
  Zn  Zn121  1  0.30812445  0.55986139  0.56202688  1
  Zn  Zn122  1  0.81741980  0.06305572  0.06720847  1
  Zn  Zn123  1  0.80473511  0.05710107  0.58161626  1
  Zn  Zn124  1  0.81155121  0.55942407  0.06907971  1
  Zn  Zn125  1  0.83480426  0.58592942  0.53590289  1
  Zn  Zn126  1  0.44440056  0.43561848  0.19087519  1
  Zn  Zn127  1  0.43528312  0.44164869  0.68630182  1
  Zn  Zn128  1  0.46132733  0.89736967  0.16458213  1
  Zn  Zn129  1  0.43164377  0.94268010  0.68285584  1
  Zn  Zn130  1  0.94120353  0.43788537  0.18832871  1
  Zn  Zn131  1  0.93450122  0.43955213  0.67803306  1
  Zn  Zn132  1  0.93368913  0.94011334  0.18622503  1
  Zn  Zn133  1  0.94391559  0.88724535  0.66379973  1
  Zn  Zn134  1  0.06590941  0.06192728  0.30869282  1
  Zn  Zn135  1  0.04848089  0.05648980  0.70546623  1
  Zn  Zn136  1  0.06378278  0.56091917  0.32122505  1
  Zn  Zn137  1  0.06431843  0.56023974  0.81169485  1
  Zn  Zn138  1  0.55833966  0.05721057  0.30458404  1
  Zn  Zn139  1  0.56465602  0.06813855  0.81455121  1
  Zn  Zn140  1  0.57205019  0.55935437  0.31385321  1
  Zn  Zn141  1  0.55174973  0.56047138  0.82142494  1
  Zn  Zn142  1  0.43177583  0.19352376  0.42943121  1
  Zn  Zn143  1  0.46435426  0.22952714  0.97735338  1
  Zn  Zn144  1  0.44458641  0.68053704  0.42838307  1
  Zn  Zn145  1  0.43886429  0.69119533  0.93176896  1
  Zn  Zn146  1  0.94426402  0.18220061  0.43132726  1
  Zn  Zn147  1  0.93484592  0.18735392  0.93478572  1
  Zn  Zn148  1  0.94196330  0.68807531  0.42427649  1
  Zn  Zn149  1  0.92944898  0.68630176  0.94620562  1
  Zn  Zn150  1  0.06829692  0.31655201  0.06020484  1
  Zn  Zn151  1  0.05802164  0.31339431  0.56367327  1
  Zn  Zn152  1  0.06291914  0.81256636  0.06581637  1
  Zn  Zn153  1  0.05754569  0.80685376  0.56145727  1
  Zn  Zn154  1  0.56586528  0.32968071  0.06871287  1
  Zn  Zn155  1  0.56180871  0.18491238  0.56195611  1
  Zn  Zn156  1  0.55980830  0.80529724  0.05257709  1
  Zn  Zn157  1  0.56052633  0.81934735  0.56406337  1
  O  O158  1  0.12899038  0.11342267  0.11685245  1
  O  O159  1  0.13274563  0.09969885  0.63657774  1
  O  O160  1  0.11997764  0.62251399  0.11988973  1
  O  O161  1  0.12312525  0.62768269  0.61776616  1
  O  O162  1  0.62912536  0.10573501  0.13371529  1
  O  O163  1  0.62462677  0.11983349  0.63202937  1
  O  O164  1  0.62686372  0.61015750  0.13120629  1
  O  O165  1  0.61273039  0.61549448  0.62223045  1
  O  O166  1  0.36589350  0.38823447  0.38242450  1
  O  O167  1  0.38688044  0.37561805  0.84954662  1
  O  O168  1  0.38469828  0.88002752  0.37153542  1
  O  O169  1  0.37192541  0.88600962  0.87524186  1
  O  O170  1  0.87381075  0.36182475  0.39071738  1
  O  O171  1  0.87869123  0.38326992  0.88301174  1
  O  O172  1  0.87569610  0.88259461  0.40015651  1
  O  O173  1  0.87498716  0.86988192  0.89308917  1
  O  O174  1  0.25376143  0.01058472  0.36112985  1
  O  O175  1  0.25363270  0.01268651  0.87781662  1
  O  O176  1  0.25860709  0.50775984  0.36279846  1
  O  O177  1  0.24601076  0.50233812  0.85678161  1
  O  O178  1  0.74633467  -0.00313977  0.36456240  1
  O  O179  1  0.74773723  0.01529071  0.87737430  1
  O  O180  1  0.74422712  0.49909296  0.36137355  1
  O  O181  1  0.75388572  0.50724430  0.86679916  1
  O  O182  1  0.24476015  0.48949434  0.13805725  1
  O  O183  1  0.24816208  0.48940113  0.63439203  1
  O  O184  1  0.24420581  0.99558692  0.12725170  1
  O  O185  1  0.26558819  0.95144577  0.63940126  1
  O  O186  1  0.74370207  0.49225847  0.13755756  1
  O  O187  1  0.74017794  0.50864412  0.63901978  1
  O  O188  1  0.74488428  0.98959432  0.13266681  1
  O  O189  1  0.73160869  0.99036729  0.63572439  1
  O  O190  1  0.00902057  0.36356406  0.24886690  1
  O  O191  1  0.00577143  0.37487517  0.75265936  1
  O  O192  1  0.01604370  0.88469048  0.24533651  1
  O  O193  1  0.00165631  0.85110129  0.75552834  1
  O  O194  1  0.51316100  0.36576401  0.25026261  1
  O  O195  1  0.51935091  0.38140417  0.74266099  1
  O  O196  1  0.51933541  0.88252014  0.26311575  1
  O  O197  1  0.49167809  0.86483553  0.75541445  1
  O  O198  1  0.49116428  0.12993456  0.24533188  1
  O  O199  1  0.48254933  0.12686919  0.75426691  1
  O  O200  1  0.49146352  0.62315095  0.26092265  1
  O  O201  1  0.48783246  0.63185481  0.74582683  1
  O  O202  1  0.99716934  0.13729151  0.24912670  1
  O  O203  1  1.00229665  0.14690392  0.75935536  1
  O  O204  1  1.00885304  0.62115060  0.23892989  1
  O  O205  1  0.99470917  0.62865943  0.74771091  1
  O  O206  1  0.34955842  0.24381053  -0.00887471  1
  O  O207  1  0.37533485  0.26659312  0.50321894  1
  O  O208  1  0.36305712  0.76060674  -0.00486968  1
  O  O209  1  0.38666154  0.75676290  0.48978914  1
  O  O210  1  0.86969452  0.26592876  -0.00476444  1
  O  O211  1  0.87271430  0.24956182  0.50669633  1
  O  O212  1  0.86580850  0.75778368  0.01520172  1
  O  O213  1  0.85286086  0.76177852  0.50904084  1
  O  O214  1  0.11856832  0.25024881  0.48491748  1
  O  O215  1  0.12749119  0.24598359  0.98994484  1
  O  O216  1  0.12581003  0.74038762  0.49841157  1
  O  O217  1  0.13813450  0.74677261  1.00799833  1
  O  O218  1  0.63900367  0.24266250  0.48852680  1
  O  O219  1  0.63935862  0.25986621  0.98238714  1
  O  O220  1  0.62637275  0.74572578  0.49412041  1
  O  O221  1  0.64610216  0.75337640  1.00739811  1
  O  O222  1  0.52009853  0.24705613  0.14484324  1
  O  O223  1  0.48521789  0.25232248  0.62341652  1
  O  O224  1  0.48493341  0.78875775  0.12957949  1
  O  O225  1  0.50603853  0.74187870  0.63633622  1
  O  O226  1  1.00451124  0.25293433  0.13459048  1
  O  O227  1  0.98914498  0.25018242  0.63086003  1
  O  O228  1  0.98730858  0.74449767  0.12552726  1
  O  O229  1  1.00344633  0.73494365  0.64323526  1
  O  O230  1  0.01637662  0.25296456  0.36436509  1
  O  O231  1  0.00273889  0.26042630  0.86824185  1
  O  O232  1  -0.00041357  0.76823049  0.38630489  1
  O  O233  1  -0.00426815  0.74183508  0.86796219  1
  O  O234  1  0.51789313  0.24612534  0.36476503  1
  O  O235  1  0.52479587  0.23644234  0.87009272  1
  O  O236  1  0.51671837  0.75780747  0.37501316  1
  O  O237  1  0.49209689  0.76647935  0.86126183  1
  O  O238  1  0.22986773  0.11197687  0.48072799  1
  O  O239  1  0.23747050  0.13574861  0.99021443  1
  O  O240  1  0.24475982  0.62028743  0.48809178  1
  O  O241  1  0.24221243  0.63960424  1.00193185  1
  O  O242  1  0.75993216  0.13455154  0.50113482  1
  O  O243  1  0.75843388  0.14093657  1.00723617  1
  O  O244  1  0.73210486  0.64162355  0.51833254  1
  O  O245  1  0.75823571  0.63475950  0.99540038  1
  O  O246  1  0.24334646  0.36479591  0.00846865  1
  O  O247  1  0.25869544  0.38839407  0.50878647  1
  O  O248  1  0.25241155  0.86867258  0.00019948  1
  O  O249  1  0.27229812  0.86985980  0.49388388  1
  O  O250  1  0.75847448  0.37042687  0.00672301  1
  O  O251  1  0.76119431  0.36067367  0.50208505  1
  O  O252  1  0.75895761  0.86447160  0.00922092  1
  O  O253  1  0.74756372  0.86729686  0.50267962  1
  O  O254  1  0.13510498  0.49200941  0.24767074  1
  O  O255  1  0.13345406  0.49425500  0.74660625  1
  O  O256  1  0.13570356  0.99616218  0.23731088  1
  O  O257  1  0.12624047  0.98546267  0.75450950  1
  O  O258  1  0.63285708  0.49144318  0.24390104  1
  O  O259  1  0.62950046  0.49584214  0.74857398  1
  O  O260  1  0.63996662  0.99095209  0.24504815  1
  O  O261  1  0.61277406  1.00157818  0.73705045  1
  O  O262  1  0.36592510  0.01008984  0.25769106  1
  O  O263  1  0.37055744  0.01256198  0.75433714  1
  O  O264  1  0.37252008  0.50632589  0.25635038  1
  O  O265  1  0.36361592  0.51285583  0.74467603  1
  O  O266  1  0.86583376  0.00145582  0.25803484  1
  O  O267  1  0.91059616  -0.00177224  0.77710901  1
  O  O268  1  0.86132619  0.49072992  0.24997088  1
  O  O269  1  0.86689808  0.50748343  0.75439241  1
  O  O270  1  0.13677837  0.36074817  0.36328054  1
  O  O271  1  0.11803183  0.36439888  0.86147521  1
  O  O272  1  0.13770420  0.87310523  0.34995426  1
  O  O273  1  0.10616597  0.88084096  0.86861829  1
  O  O274  1  0.63132302  0.36918684  0.36572576  1
  O  O275  1  0.63163497  0.36720194  0.86211408  1
  O  O276  1  0.62238059  0.87056374  0.37250026  1
  O  O277  1  0.61027539  0.88150207  0.87739566  1
  O  O278  1  0.37193800  0.12062377  0.13673251  1
  O  O279  1  0.36485755  0.13736005  0.64154004  1
  O  O280  1  0.38303329  0.62142079  0.14090219  1
  O  O281  1  0.38724447  0.61957620  0.62472859  1
  O  O282  1  0.88051543  0.11304335  0.14786252  1
  O  O283  1  0.87503284  0.13862036  0.62358299  1
  O  O284  1  0.88305258  0.63601494  0.12506430  1
  O  O285  1  0.88490924  0.62008787  0.63539831  1
  O  O286  1  0.24048691  0.25694698  0.11091084  1
  O  O287  1  0.25735254  0.26738327  0.62885410  1
  O  O288  1  0.26221909  0.76398390  0.11741226  1
  O  O289  1  0.23955817  0.78612970  0.62223494  1
  O  O290  1  0.74142068  0.26377710  0.11749818  1
  O  O291  1  0.76118894  0.24904536  0.61231755  1
  O  O292  1  0.75993161  0.75407359  0.11992450  1
  O  O293  1  0.72945292  0.76514165  0.61809867  1
  O  O294  1  0.24240547  0.23888720  0.37416709  1
  O  O295  1  0.23650390  0.24752631  0.88183506  1
  O  O296  1  0.24723137  0.73810423  0.36514230  1
  O  O297  1  0.24950220  0.75077342  0.88680081  1
  O  O298  1  0.74099352  0.24624922  0.38416449  1
  O  O299  1  0.74814358  0.24221948  0.88036110  1
  O  O300  1  0.74209173  0.74950495  0.39100569  1
  O  O301  1  0.75631241  0.74253008  0.89161766  1
  O  O302  1  0.01323650  0.13018027  -0.00665111  1
  O  O303  1  0.02225960  0.08992791  0.46615106  1
  O  O304  1  0.00612873  0.62098480  0.01230497  1
  O  O305  1  0.01065902  0.62759483  0.51096528  1
  O  O306  1  0.49071388  0.12599668  0.00981189  1
  O  O307  1  0.49419753  0.12957757  0.49351927  1
  O  O308  1  0.49972843  0.61679307  -0.01445377  1
  O  O309  1  0.51058616  0.61817825  0.50571749  1
  O  O310  1  0.48783620  0.38875102  0.50331663  1
  O  O311  1  0.48678924  0.34020911  0.99449593  1
  O  O312  1  0.49491095  0.87752245  0.48377995  1
  O  O313  1  0.48827852  0.87600000  0.97941906  1
  O  O314  1  0.98644439  0.37382625  0.49868587  1
  O  O315  1  0.99519828  0.38291387  0.99664861  1
  O  O316  1  0.96947925  0.87707220  0.54431438  1
  O  O317  1  0.98714992  0.87018853  1.00194132  1
  O  O318  1  0.49115927  0.50651209  0.38440458  1
  O  O319  1  0.50141663  0.51147484  0.90664399  1
  O  O320  1  0.49272505  0.99259602  0.37366215  1
  O  O321  1  0.48994833  0.99056765  0.86925507  1
  O  O322  1  1.00530532  0.48876054  0.37900313  1
  O  O323  1  0.99490016  0.49703436  0.88177243  1
  O  O324  1  1.01582393  1.02358171  0.40709126  1
  O  O325  1  0.96362318  1.00108978  0.83207087  1
  O  O326  1  0.01552423  -0.00179861  0.12743588  1
  O  O327  1  -0.05507434  0.00276336  0.69296490  1
  O  O328  1  0.00859553  0.50709418  0.12134379  1
  O  O329  1  0.00492678  0.51408022  0.62330648  1
  O  O330  1  0.51931096  -0.00817920  0.12703523  1
  O  O331  1  0.50782568  0.00003459  0.62142404  1
  O  O332  1  0.51247741  0.49415649  0.12122666  1
  O  O333  1  0.50664755  0.50758547  0.61750142  1
  O  O334  1  0.24439817  0.37884937  0.24439089  1
  O  O335  1  0.24028650  0.38754998  0.74239887  1
  O  O336  1  0.25262649  0.88600009  0.23595076  1
  O  O337  1  0.22794359  0.86587460  0.76952108  1
  O  O338  1  0.74552094  0.37928548  0.24450177  1
  O  O339  1  0.74442482  0.38870911  0.74870696  1
  O  O340  1  0.75034585  0.88548013  0.24746443  1
  O  O341  1  0.74343842  0.86776849  0.74904444  1
  O  O342  1  0.25651976  0.12003687  0.25104860  1
  O  O343  1  0.24978111  0.13028569  0.75841011  1
  O  O344  1  0.25544224  0.61573529  0.25399445  1
  O  O345  1  0.25872628  0.61825240  0.73732026  1
  O  O346  1  0.76218360  0.11395391  0.24861147  1
  O  O347  1  0.76245632  0.12112109  0.75492943  1
  O  O348  1  0.75207672  0.61044738  0.25288390  1
  O  O349  1  0.75595588  0.62292821  0.75613522  1
  O  O350  1  0.35979018  0.12062041  0.36818208  1
  O  O351  1  0.36095621  0.11970081  0.86194006  1
  O  O352  1  0.36889500  0.61517475  0.36671051  1
  O  O353  1  0.36850791  0.62938439  0.85802427  1
  O  O354  1  0.88395020  0.11663612  0.35807848  1
  O  O355  1  0.86138836  0.12785964  0.87827451  1
  O  O356  1  0.86270783  0.61471577  0.42681459  1
  O  O357  1  0.86651977  0.61875843  0.86761266  1
  O  O358  1  0.13121667  0.38289458  0.13514039  1
  O  O359  1  0.12964572  0.37413715  0.63338323  1
  O  O360  1  0.13465728  0.88734917  0.12791996  1
  O  O361  1  0.11566083  0.86948351  0.64948839  1
  O  O362  1  0.63680027  0.38507337  0.13804736  1
  O  O363  1  0.63360524  0.39028058  0.63752714  1
  O  O364  1  0.63852178  0.87875701  0.13560640  1
  O  O365  1  0.62836644  0.88529388  0.62844945  1
  O  O366  1  0.11691640  0.25638363  0.24936348  1
  O  O367  1  0.11630489  0.26046858  0.75234593  1
  O  O368  1  0.12889230  0.76758953  0.23697512  1
  O  O369  1  0.11616572  0.74679042  0.75966643  1
  O  O370  1  0.62704496  0.25425419  0.26335603  1
  O  O371  1  0.63870067  0.26627312  0.75568191  1
  O  O372  1  0.64341115  0.76160326  0.26205791  1
  O  O373  1  0.60694799  0.74328811  0.75509270  1
  O  O374  1  0.38816748  0.24133199  0.26096330  1
  O  O375  1  0.37321086  0.24389462  0.74517370  1
  O  O376  1  0.37440153  0.73324483  0.25119300  1
  O  O377  1  0.38027929  0.73707047  0.74371418  1
  O  O378  1  0.88745121  0.24080733  0.25345941  1
  O  O379  1  0.87965179  0.26083517  0.73440659  1
  O  O380  1  0.86589476  0.75571441  0.23797268  1
  O  O381  1  0.88238433  0.73672767  0.75581001  1
  O  O382  1  0.38237404  0.49599308  0.49264180  1
  O  O383  1  0.35689514  0.48705864  1.00794966  1
  O  O384  1  0.37670286  0.98758300  0.48113027  1
  O  O385  1  0.37394800  0.99485864  0.98277236  1
  O  O386  1  0.87105087  0.47908022  0.50987049  1
  O  O387  1  0.88140771  0.49393341  0.99653303  1
  O  O388  1  0.86073848  0.99042248  0.50588782  1
  O  O389  1  0.87081091  0.98020395  1.01133765  1
  O  O390  1  0.12859040  0.00721082  0.01117571  1
  O  O391  1  0.14334713  -0.05422574  0.52471470  1
  O  O392  1  0.13017978  0.51200251  0.00999689  1
  O  O393  1  0.12443982  0.51524667  0.50096314  1
  O  O394  1  0.62658314  -0.00902528  0.01545336  1
  O  O395  1  0.62123763  0.00458678  0.51955377  1
  O  O396  1  0.63659633  0.49557331  0.01886774  1
  O  O397  1  0.62198052  0.50458796  0.50690049  1
  O  O398  1  0.36371476  0.37047074  0.13814588  1
  O  O399  1  0.36845310  0.37151301  0.61897419  1
  O  O400  1  0.36239508  0.89225583  0.10325326  1
  O  O401  1  0.39463781  0.86863051  0.60264689  1
  O  O402  1  0.86617322  0.38297496  0.11531400  1
  O  O403  1  0.87315288  0.36304153  0.61363499  1
  O  O404  1  0.86936461  0.86494626  0.12195872  1
  O  O405  1  0.83872567  0.87822928  0.61919792  1
  O  O406  1  0.13825935  0.14001770  0.35825290  1
  O  O407  1  0.13037062  0.13929238  0.87916604  1
  O  O408  1  0.13405196  0.63102406  0.38094782  1
  O  O409  1  0.11755209  0.62210507  0.89232708  1
  O  O410  1  0.62786224  0.13021779  0.36602579  1
  O  O411  1  0.64338317  0.13881429  0.86568200  1
  O  O412  1  0.62962890  0.63224378  0.38682507  1
  O  O413  1  0.64005014  0.62242988  0.86858352  1
