# generated using pymatgen
data_V79Zn79O256
_symmetry_space_group_name_H-M   'P 1'
_cell_length_a   16.91941995
_cell_length_b   16.94127815
_cell_length_c   16.91801582
_cell_angle_alpha   89.93442284
_cell_angle_beta   89.98333442
_cell_angle_gamma   90.10784683
_symmetry_Int_Tables_number   1
_chemical_formula_structural   V79Zn79O256
_chemical_formula_sum   'V79 Zn79 O256'
_cell_volume   4849.31055165
_cell_formula_units_Z   1
loop_
 _symmetry_equiv_pos_site_id
 _symmetry_equiv_pos_as_xyz
  1  'x, y, z'
loop_
 _atom_site_type_symbol
 _atom_site_label
 _atom_site_symmetry_multiplicity
 _atom_site_fract_x
 _atom_site_fract_y
 _atom_site_fract_z
 _atom_site_occupancy
  V  V0  1  0.00111360  -0.00138554  0.00012066  1
  V  V1  1  0.87537913  0.75175421  0.61072102  1
  V  V2  1  0.50417232  0.50696434  0.50001723  1
  V  V3  1  0.37725029  0.37064138  0.00191105  1
  V  V4  1  0.01769650  0.10949172  0.62193749  1
  V  V5  1  0.24814240  0.51003492  0.75842783  1
  V  V6  1  0.74422791  0.73596445  -0.00598118  1
  V  V7  1  0.37418062  0.49892335  0.37904875  1
  V  V8  1  0.74880424  0.87081412  0.13190997  1
  V  V9  1  0.25768554  0.87396706  0.11135177  1
  V  V10  1  0.75260820  0.50375741  0.26381737  1
  V  V11  1  0.37314224  0.84960022  0.49828975  1
  V  V12  1  0.75794665  0.25308061  -0.00175613  1
  V  V13  1  0.12518173  0.37591293  0.25095683  1
  V  V14  1  0.62646563  0.50950866  0.12317066  1
  V  V15  1  0.23549354  0.87151506  0.61385247  1
  V  V16  1  0.37994714  0.12076392  0.75189875  1
  V  V17  1  0.00701637  0.75045352  0.25100383  1
  V  V18  1  0.12868099  0.63044466  -0.00943206  1
  V  V19  1  0.75305230  -0.00092365  0.74988264  1
  V  V20  1  0.87361438  0.75074173  0.12882160  1
  V  V21  1  0.37724649  0.49789066  0.86943207  1
  V  V22  1  0.24327771  0.37148754  0.63797613  1
  V  V23  1  0.12257920  0.24631123  0.37857288  1
  V  V24  1  0.75859082  0.12591941  0.87038912  1
  V  V25  1  -0.00185010  0.62093972  0.11800357  1
  V  V26  1  0.49585546  0.37434754  0.38140646  1
  V  V27  1  0.49359025  -0.00520739  -0.01367363  1
  V  V28  1  0.62945095  -0.00355924  0.12294379  1
  V  V29  1  0.62616629  0.87547726  0.25178762  1
  V  V30  1  0.11327657  0.89149416  0.75502346  1
  V  V31  1  0.25258294  0.25628014  0.49747992  1
  V  V32  1  0.74780408  0.48908324  0.75968442  1
  V  V33  1  0.62842507  0.37556397  0.24920835  1
  V  V34  1  0.49752688  0.62404816  0.11856328  1
  V  V35  1  0.13099045  0.00094643  0.12817151  1
  V  V36  1  0.51516212  0.73605889  0.26722919  1
  V  V37  1  0.87294827  0.62119765  0.26287279  1
  V  V38  1  0.86975942  0.38031358  0.50531553  1
  V  V39  1  0.50046783  0.13105888  0.62198517  1
  V  V40  1  0.13673159  0.74042745  0.38783277  1
  V  V41  1  0.61206758  -0.00682601  0.62570762  1
  V  V42  1  0.74809353  0.25163718  0.50787513  1
  V  V43  1  0.49894498  0.12636117  0.12735414  1
  V  V44  1  0.50708390  0.37271663  0.86684201  1
  V  V45  1  0.75449842  0.37541931  0.12365001  1
  V  V46  1  0.25006811  0.12441987  0.37606437  1
  V  V47  1  0.50703152  0.49630530  0.00006342  1
  V  V48  1  0.50083834  0.87949080  0.37632834  1
  V  V49  1  -0.00558712  0.13320249  0.12707008  1
  V  V50  1  0.73037339  0.73646820  0.49376863  1
  V  V51  1  -0.00496818  0.37975590  0.37748933  1
  V  V52  1  0.12089337  0.26049142  0.86917962  1
  V  V53  1  0.63430419  0.49346779  0.62496360  1
  V  V54  1  0.74678726  0.87254263  0.61803370  1
  V  V55  1  0.62983188  0.24908107  0.37654456  1
  V  V56  1  0.49251139  0.62469360  0.63888186  1
  V  V57  1  0.13163904  0.12664254  -0.00143095  1
  V  V58  1  0.89301245  0.50692181  0.87310291  1
  V  V59  1  0.37172572  0.75121577  0.10920552  1
  V  V60  1  0.87641937  0.23432101  0.62678917  1
  V  V61  1  0.37862184  0.00454140  0.39559829  1
  V  V62  1  0.88800661  0.38476944  -0.00291789  1
  V  V63  1  0.63101291  0.12590722  -0.00138930  1
  V  V64  1  -0.00224685  0.88620594  0.38413545  1
  V  V65  1  0.27055964  0.00248182  0.24611491  1
  V  V66  1  0.12023952  0.50054074  0.11779171  1
  V  V67  1  0.49806986  0.24626801  0.24785750  1
  V  V68  1  0.37650936  0.25480346  0.61947791  1
  V  V69  1  0.87792999  0.88043024  -0.00658233  1
  V  V70  1  -0.00255545  0.75536542  0.76114795  1
  V  V71  1  0.36893580  0.62739380  0.25207653  1
  V  V72  1  0.25213023  0.37338501  0.12345508  1
  V  V73  1  0.62389273  0.12334095  0.49957762  1
  V  V74  1  -0.00765232  0.25103718  0.24534575  1
  V  V75  1  0.86051257  0.63919854  0.75553504  1
  V  V76  1  0.63070958  0.25537948  0.86602359  1
  V  V77  1  0.24987535  0.50321528  0.25372549  1
  V  V78  1  0.25717274  0.11866026  0.87235627  1
  Zn  Zn79  1  0.12368162  0.76392042  0.88564820  1
  Zn  Zn80  1  0.88729916  0.00537159  0.86065250  1
  Zn  Zn81  1  0.13331658  0.87195098  0.24934914  1
  Zn  Zn82  1  0.37326288  0.24383004  0.12969245  1
  Zn  Zn83  1  0.27973387  0.65661679  0.88976910  1
  Zn  Zn84  1  0.99300948  0.50821691  0.49879302  1
  Zn  Zn85  1  0.81364667  0.07195066  0.30709378  1
  Zn  Zn86  1  0.12146895  0.49812036  0.63324927  1
  Zn  Zn87  1  0.00852268  0.62725226  0.62050550  1
  Zn  Zn88  1  0.24810085  0.00515437  0.74085615  1
  Zn  Zn89  1  0.00394782  0.25353560  0.74794494  1
  Zn  Zn90  1  0.58405045  0.76314012  0.85023215  1
  Zn  Zn91  1  0.25393682  0.24923899  -0.00328446  1
  Zn  Zn92  1  0.50526315  0.25459452  0.74664453  1
  Zn  Zn93  1  0.37486917  0.74168709  0.64161840  1
  Zn  Zn94  1  0.18906965  0.18646827  0.19366384  1
  Zn  Zn95  1  0.18835217  0.19027992  0.69199832  1
  Zn  Zn96  1  0.18766599  0.68672613  0.18163191  1
  Zn  Zn97  1  0.18672599  0.69248324  0.68764477  1
  Zn  Zn98  1  0.69874125  0.18914463  0.18394023  1
  Zn  Zn99  1  0.69187297  0.18550662  0.68776007  1
  Zn  Zn100  1  0.68646933  0.68514235  0.31081413  1
  Zn  Zn101  1  0.67742203  0.68015922  0.67919656  1
  Zn  Zn102  1  0.31309894  0.31332322  0.31074421  1
  Zn  Zn103  1  0.31653158  0.30359155  0.81392493  1
  Zn  Zn104  1  0.31498018  0.81312923  0.30475494  1
  Zn  Zn105  1  0.29550034  0.82309017  0.80806275  1
  Zn  Zn106  1  0.84371086  0.26083362  0.34585988  1
  Zn  Zn107  1  0.85241805  0.33045937  0.79468184  1
  Zn  Zn108  1  0.81473454  0.81140172  0.32141575  1
  Zn  Zn109  1  0.72478677  0.81043070  0.81032980  1
  Zn  Zn110  1  0.18936071  0.43342283  0.43907131  1
  Zn  Zn111  1  0.18582454  0.44160583  0.93713398  1
  Zn  Zn112  1  0.18802629  0.92537122  0.42667008  1
  Zn  Zn113  1  0.18856328  0.94078294  0.93385055  1
  Zn  Zn114  1  0.68522626  0.43504359  0.44230258  1
  Zn  Zn115  1  0.69237804  0.44017657  0.93529235  1
  Zn  Zn116  1  0.68825014  0.93636875  0.44137327  1
  Zn  Zn117  1  0.68527311  0.93336292  0.94006328  1
  Zn  Zn118  1  0.31841889  0.05986576  0.05813293  1
  Zn  Zn119  1  0.18670106  0.05552668  0.55366816  1
  Zn  Zn120  1  0.31210409  0.56103580  0.05884582  1
  Zn  Zn121  1  0.31075528  0.55671062  0.56439497  1
  Zn  Zn122  1  0.83849460  0.03879538  0.11623015  1
  Zn  Zn123  1  0.80331253  0.05981145  0.55538369  1
  Zn  Zn124  1  0.81479435  0.56007593  0.06581104  1
  Zn  Zn125  1  0.81270796  0.56707721  0.56450428  1
  Zn  Zn126  1  0.43798456  0.43596395  0.19059119  1
  Zn  Zn127  1  0.43447885  0.43787469  0.68362445  1
  Zn  Zn128  1  0.44833033  0.93143782  0.18043497  1
  Zn  Zn129  1  0.38515145  0.98756787  0.61751926  1
  Zn  Zn130  1  0.93502609  0.43712380  0.19123205  1
  Zn  Zn131  1  0.94545697  0.43221515  0.68287869  1
  Zn  Zn132  1  0.91964398  0.92499372  0.23009184  1
  Zn  Zn133  1  0.93096988  0.93527131  0.67956221  1
  Zn  Zn134  1  0.06544842  0.06478079  0.30808359  1
  Zn  Zn135  1  0.05649178  0.07808933  0.81124655  1
  Zn  Zn136  1  0.06197162  0.56492689  0.31265126  1
  Zn  Zn137  1  0.07132153  0.57525226  0.78693323  1
  Zn  Zn138  1  0.61150429  0.08211456  0.29205826  1
  Zn  Zn139  1  0.56696434  0.06311022  0.80780637  1
  Zn  Zn140  1  0.55784464  0.55698641  0.30715438  1
  Zn  Zn141  1  0.57225709  0.56576163  0.80706430  1
  Zn  Zn142  1  0.43919882  0.18661459  0.43676604  1
  Zn  Zn143  1  0.44331372  0.18557390  0.93756154  1
  Zn  Zn144  1  0.44610244  0.68103848  0.43432050  1
  Zn  Zn145  1  0.46743555  0.66813572  0.91050354  1
  Zn  Zn146  1  0.93249064  0.14066418  0.44915084  1
  Zn  Zn147  1  0.93923887  0.18915704  0.94336670  1
  Zn  Zn148  1  0.94937323  0.69011804  0.43819376  1
  Zn  Zn149  1  0.93207583  0.69007685  0.93826748  1
  Zn  Zn150  1  0.06826373  0.31233239  0.05757247  1
  Zn  Zn151  1  0.05827750  0.30823905  0.55965920  1
  Zn  Zn152  1  0.06243505  0.81358829  0.06828940  1
  Zn  Zn153  1  0.05768437  0.81957595  0.55547670  1
  Zn  Zn154  1  0.56866314  0.31223766  0.06055447  1
  Zn  Zn155  1  0.56463176  0.31852689  0.56433678  1
  Zn  Zn156  1  0.54139476  0.79272509  0.02459637  1
  Zn  Zn157  1  0.55529150  0.80772246  0.56486857  1
  O  O158  1  0.13422672  0.11830323  0.11455230  1
  O  O159  1  0.12514595  0.11883575  0.62830643  1
  O  O160  1  0.11875322  0.61829388  0.11518152  1
  O  O161  1  0.11295536  0.61119563  0.66954604  1
  O  O162  1  0.62300386  0.11895926  0.11456061  1
  O  O163  1  0.61718606  0.12202703  0.61930885  1
  O  O164  1  0.61052054  0.61099093  0.13001647  1
  O  O165  1  0.60558933  0.60516635  0.62957965  1
  O  O166  1  0.38693102  0.38586503  0.36378273  1
  O  O167  1  0.38473634  0.37576836  0.88432857  1
  O  O168  1  0.37330147  0.88279687  0.38583319  1
  O  O169  1  0.40203359  0.88535800  0.81735750  1
  O  O170  1  0.88649529  0.36141105  0.38908069  1
  O  O171  1  0.87119520  0.39508250  0.88914145  1
  O  O172  1  0.89902982  0.87963444  0.34544226  1
  O  O173  1  0.87699191  0.88945351  0.89525562  1
  O  O174  1  0.26394847  0.00288347  0.36745160  1
  O  O175  1  0.24822050  0.01453993  0.86779413  1
  O  O176  1  0.25930302  0.48924734  0.36103930  1
  O  O177  1  0.26194759  0.49259047  0.86821288  1
  O  O178  1  0.78018352  0.00062087  0.40267177  1
  O  O179  1  0.74687835  0.00620645  0.86093150  1
  O  O180  1  0.73981070  0.49547187  0.36231739  1
  O  O181  1  0.75214208  0.50464677  0.86279994  1
  O  O182  1  0.24384475  0.49130876  0.13150544  1
  O  O183  1  0.25826960  0.48298218  0.64368493  1
  O  O184  1  0.25136425  0.99587636  0.12820736  1
  O  O185  1  0.25935378  0.98074331  0.62184768  1
  O  O186  1  0.74103834  0.49372415  0.12900349  1
  O  O187  1  0.73855850  0.50489876  0.63286904  1
  O  O188  1  0.73715814  0.98660249  0.11937310  1
  O  O189  1  0.74139985  0.99460189  0.62919404  1
  O  O190  1  0.00681510  0.37162781  0.25492929  1
  O  O191  1  -0.03869750  0.35750708  0.76157037  1
  O  O192  1  0.01075404  0.85851491  0.23843296  1
  O  O193  1  0.00401840  0.86909254  0.74266664  1
  O  O194  1  0.51184939  0.37079295  0.25519641  1
  O  O195  1  0.49537152  0.37509082  0.76398411  1
  O  O196  1  0.50691664  0.86194690  0.25697965  1
  O  O197  1  0.44173678  0.83451614  0.77430944  1
  O  O198  1  0.51788870  0.13730873  0.23881450  1
  O  O199  1  0.49829753  0.13114354  0.74065930  1
  O  O200  1  0.48492893  0.62316064  0.23253408  1
  O  O201  1  0.48693117  0.60848463  0.73665123  1
  O  O202  1  1.00895768  0.13492617  0.23412435  1
  O  O203  1  1.00245379  0.13529397  0.73002740  1
  O  O204  1  0.99362218  0.63062223  0.23980289  1
  O  O205  1  0.98313120  0.64575254  0.74790385  1
  O  O206  1  0.37695961  0.26079690  0.00347806  1
  O  O207  1  0.36575773  0.24296391  0.50819081  1
  O  O208  1  0.36831204  0.74016694  0.01374789  1
  O  O209  1  0.37165133  0.74986660  0.49467034  1
  O  O210  1  0.86638631  0.26979563  -0.01035862  1
  O  O211  1  0.86046708  0.25268650  0.50573251  1
  O  O212  1  0.88179268  0.76613070  0.01181145  1
  O  O213  1  0.86787319  0.74599488  0.50993009  1
  O  O214  1  0.13446599  0.25628406  0.48591377  1
  O  O215  1  0.13124364  0.23907000  0.99361858  1
  O  O216  1  0.12332262  0.75328557  0.48774965  1
  O  O217  1  0.11782823  0.73561718  1.00155671  1
  O  O218  1  0.62896825  0.24957858  0.49584383  1
  O  O219  1  0.63567937  0.24524282  0.99133707  1
  O  O220  1  0.63150735  0.74512176  0.50440733  1
  O  O221  1  0.64637221  0.75191706  1.00665548  1
  O  O222  1  0.50563348  0.24465764  0.13147268  1
  O  O223  1  0.49489321  0.24879206  0.62506772  1
  O  O224  1  0.48858072  0.73809801  0.12273397  1
  O  O225  1  0.49845775  0.72965363  0.62557201  1
  O  O226  1  1.01760896  0.23934717  0.13089173  1
  O  O227  1  0.98677083  0.24327831  0.62376254  1
  O  O228  1  0.99308020  0.74071022  0.13161366  1
  O  O229  1  0.98197534  0.75723899  0.62937177  1
  O  O230  1  0.01159474  0.25968260  0.36323989  1
  O  O231  1  0.01784950  0.23752801  0.87578950  1
  O  O232  1  0.00804733  0.75889298  0.36441909  1
  O  O233  1  -0.00311266  0.75487183  0.86417487  1
  O  O234  1  0.50563232  0.25779946  0.36908660  1
  O  O235  1  0.51277163  0.25710402  0.87536780  1
  O  O236  1  0.48546590  0.76823467  0.36860211  1
  O  O237  1  0.49474728  0.77505013  0.91917391  1
  O  O238  1  0.24370421  0.13560410  0.48371429  1
  O  O239  1  0.24717211  0.12517492  0.99220430  1
  O  O240  1  0.21095744  0.58186158  0.50884248  1
  O  O241  1  0.23476232  0.62006613  0.99532199  1
  O  O242  1  0.73258167  0.13866385  0.50241106  1
  O  O243  1  0.74220883  0.13684249  0.99369951  1
  O  O244  1  0.74797986  0.63768793  0.50273502  1
  O  O245  1  0.76087170  0.63708792  1.00435870  1
  O  O246  1  0.25967146  0.37652212  0.00893490  1
  O  O247  1  0.25275395  0.36185444  0.50761778  1
  O  O248  1  0.25074990  0.88295847  0.01130959  1
  O  O249  1  0.25962900  0.86731342  0.50734886  1
  O  O250  1  0.75447496  0.37157601  0.00667109  1
  O  O251  1  0.76049746  0.36580597  0.49489574  1
  O  O252  1  0.76676062  0.87388488  0.01212882  1
  O  O253  1  0.74149185  0.86092037  0.51173536  1
  O  O254  1  0.13368030  0.49683846  0.24146493  1
  O  O255  1  0.14706532  0.48827011  0.76157732  1
  O  O256  1  0.13934594  1.00232126  0.23617376  1
  O  O257  1  0.11345493  0.99233001  0.75012301  1
  O  O258  1  0.63035045  0.49309590  0.24258036  1
  O  O259  1  0.63957162  0.50093296  0.74428301  1
  O  O260  1  0.61405821  0.98426927  0.23514373  1
  O  O261  1  0.63337132  1.00670254  0.73063668  1
  O  O262  1  0.37191598  -0.00586818  0.24933143  1
  O  O263  1  0.37543153  0.01958132  0.73259096  1
  O  O264  1  0.36853229  0.50666116  0.25326676  1
  O  O265  1  0.36464603  0.48624202  0.76259461  1
  O  O266  1  0.86959481  0.02022878  0.22377812  1
  O  O267  1  0.85859117  -0.00206128  0.74722376  1
  O  O268  1  0.86340505  0.50904841  0.24429367  1
  O  O269  1  0.86619351  0.51326794  0.75890005  1
  O  O270  1  0.12034639  0.36797708  0.37072572  1
  O  O271  1  0.12705232  0.35823085  0.88904735  1
  O  O272  1  0.11302317  0.86100028  0.36566748  1
  O  O273  1  0.12259773  0.88032956  0.85960520  1
  O  O274  1  0.61578697  0.36934099  0.36785458  1
  O  O275  1  0.61809366  0.36674845  0.88249044  1
  O  O276  1  0.61424875  0.88937067  0.36597325  1
  O  O277  1  0.63816162  0.86559836  0.86824853  1
  O  O278  1  0.39370468  0.12737659  0.11947353  1
  O  O279  1  0.38886878  0.13576944  0.63040955  1
  O  O280  1  0.37537083  0.63158424  0.13026001  1
  O  O281  1  0.38485994  0.62489979  0.61605915  1
  O  O282  1  0.89676310  0.13890346  0.10924158  1
  O  O283  1  0.87779906  0.13163947  0.60921582  1
  O  O284  1  0.88272779  0.63149541  0.13085314  1
  O  O285  1  0.87241396  0.63979724  0.63734173  1
  O  O286  1  0.25221245  0.26272101  0.12655505  1
  O  O287  1  0.25499977  0.25540663  0.61778870  1
  O  O288  1  0.26367129  0.75886758  0.13293488  1
  O  O289  1  0.25805360  0.76785267  0.64053931  1
  O  O290  1  0.74466351  0.26401140  0.11301291  1
  O  O291  1  0.75535396  0.24738690  0.61479119  1
  O  O292  1  0.76458658  0.75765169  0.11355136  1
  O  O293  1  0.75428839  0.75293318  0.61471500  1
  O  O294  1  0.24702905  0.24570994  0.37737505  1
  O  O295  1  0.24089518  0.23941891  0.87657742  1
  O  O296  1  0.23526890  0.75816777  0.36635591  1
  O  O297  1  0.23449556  0.75158530  0.86376475  1
  O  O298  1  0.73277057  0.25669450  0.38384776  1
  O  O299  1  0.74643686  0.24451370  0.88196829  1
  O  O300  1  0.74521561  0.75154310  0.38683856  1
  O  O301  1  0.76991414  0.75349806  0.89653215  1
  O  O302  1  0.01450726  0.12422887  0.01064793  1
  O  O303  1  0.01235966  0.13056980  0.51939156  1
  O  O304  1  0.00397129  0.62736740  0.01239074  1
  O  O305  1  -0.00212792  0.62019050  0.50759043  1
  O  O306  1  0.51459863  0.12289869  0.00632776  1
  O  O307  1  0.50911646  0.13314685  0.51281844  1
  O  O308  1  0.48769063  0.60545665  0.01271564  1
  O  O309  1  0.50300555  0.61013360  0.50241062  1
  O  O310  1  0.50347444  0.38347011  0.48672856  1
  O  O311  1  0.49524412  0.37958756  0.99535801  1
  O  O312  1  0.48452756  0.86557193  0.48991395  1
  O  O313  1  0.50884612  0.89998984  1.01378473  1
  O  O314  1  0.98993589  0.37659816  0.49337565  1
  O  O315  1  0.98607676  0.37422100  1.00707051  1
  O  O316  1  0.98819265  0.87438309  0.48301272  1
  O  O317  1  0.99154712  0.88656260  1.01205467  1
  O  O318  1  0.49566395  0.49226191  0.37912234  1
  O  O319  1  0.49711846  0.48926861  0.88305660  1
  O  O320  1  0.48051448  0.98831975  0.37028518  1
  O  O321  1  0.51359513  1.00553136  0.88755467  1
  O  O322  1  1.01005265  0.48436442  0.37865782  1
  O  O323  1  0.98988820  0.50870944  0.85983524  1
  O  O324  1  1.01180099  0.98521306  0.36489478  1
  O  O325  1  0.99905605  1.01656049  0.89507245  1
  O  O326  1  0.01645236  0.01909052  0.11754016  1
  O  O327  1  -0.00603862  0.01198651  0.62561567  1
  O  O328  1  0.01121919  0.50809176  0.13449143  1
  O  O329  1  0.00529639  0.49933921  0.61868016  1
  O  O330  1  0.51132776  0.01051153  0.11817823  1
  O  O331  1  0.50827363  0.01077995  0.62455674  1
  O  O332  1  0.50561514  0.50068768  0.11952985  1
  O  O333  1  0.49935437  0.50340268  0.61515205  1
  O  O334  1  0.24679666  0.38296305  0.24100432  1
  O  O335  1  0.25029068  0.36553657  0.73917463  1
  O  O336  1  0.25202261  0.88702441  0.23721839  1
  O  O337  1  0.22852522  0.88636558  0.73853639  1
  O  O338  1  0.73929119  0.38320030  0.23963505  1
  O  O339  1  0.76173395  0.39126986  0.75153611  1
  O  O340  1  0.74017944  0.86496389  0.24314824  1
  O  O341  1  0.74534128  0.89173404  0.73249146  1
  O  O342  1  0.25285045  0.11659007  0.26252663  1
  O  O343  1  0.25996095  0.12468262  0.75498121  1
  O  O344  1  0.25795087  0.61319191  0.24045583  1
  O  O345  1  0.25346681  0.61032557  0.75585178  1
  O  O346  1  0.71800868  0.11622441  0.26261999  1
  O  O347  1  0.74618223  0.11251296  0.75828120  1
  O  O348  1  0.75870458  0.61697252  0.25302968  1
  O  O349  1  0.75995649  0.62084271  0.74604546  1
  O  O350  1  0.36969493  0.11046302  0.38300470  1
  O  O351  1  0.36918346  0.13705808  0.86393192  1
  O  O352  1  0.38299794  0.61256115  0.36098410  1
  O  O353  1  0.37872395  0.60374430  0.88321119  1
  O  O354  1  0.87088761  0.15216617  0.36351802  1
  O  O355  1  0.86217959  0.12063098  0.88743490  1
  O  O356  1  0.88568233  0.62913117  0.36083654  1
  O  O357  1  0.87606884  0.61848322  0.86554029  1
  O  O358  1  0.13286769  0.38255542  0.12718101  1
  O  O359  1  0.14057140  0.37360710  0.61954172  1
  O  O360  1  0.13701172  0.88648885  0.12282731  1
  O  O361  1  0.13163821  0.86951443  0.63062782  1
  O  O362  1  0.63141057  0.38392036  0.13148944  1
  O  O363  1  0.61621495  0.39346619  0.63190958  1
  O  O364  1  0.63368436  0.88125370  0.13075322  1
  O  O365  1  0.62231795  0.88963665  0.61772517  1
  O  O366  1  0.12357967  0.25921066  0.25797817  1
  O  O367  1  0.12630855  0.25307276  0.76479373  1
  O  O368  1  0.11613179  0.74691027  0.24743277  1
  O  O369  1  0.10322037  0.76020129  0.74973878  1
  O  O370  1  0.61932280  0.26091495  0.25686041  1
  O  O371  1  0.62797867  0.24687826  0.76237146  1
  O  O372  1  0.61737715  0.76446229  0.24106923  1
  O  O373  1  0.64137012  0.75445406  0.75234337  1
  O  O374  1  0.39301080  0.25577683  0.24870959  1
  O  O375  1  0.37908984  0.24064258  0.73746146  1
  O  O376  1  0.38816815  0.73802777  0.24865414  1
  O  O377  1  0.39095528  0.76534655  0.75992217  1
  O  O378  1  0.89348082  0.26377978  0.23901023  1
  O  O379  1  0.85798913  0.23772460  0.72664718  1
  O  O380  1  0.88151148  0.74072072  0.24317023  1
  O  O381  1  0.87493514  0.74448548  0.74739332  1
  O  O382  1  0.38229929  0.50297455  0.48475910  1
  O  O383  1  0.38289494  0.48607979  0.99478485  1
  O  O384  1  0.37667716  0.99194899  0.49509277  1
  O  O385  1  0.39336289  1.00801562  0.99346838  1
  O  O386  1  0.86821532  0.48299101  0.50696594  1
  O  O387  1  0.87696790  0.49758411  0.98659239  1
  O  O388  1  0.84086912  1.00385098  0.46083424  1
  O  O389  1  0.88550166  0.98864302  1.01795656  1
  O  O390  1  0.12213704  0.00793782  0.00653005  1
  O  O391  1  0.12845689  -0.02091317  0.50134017  1
  O  O392  1  0.12606746  0.50872017  0.01103500  1
  O  O393  1  0.15834257  0.51722400  0.51445819  1
  O  O394  1  0.62517493  0.01103438  0.00547128  1
  O  O395  1  0.63130988  0.01235932  0.51365807  1
  O  O396  1  0.61520232  0.49241619  0.00852450  1
  O  O397  1  0.61907333  0.49572757  0.51321380  1
  O  O398  1  0.36858660  0.37588021  0.11882526  1
  O  O399  1  0.36523391  0.36159117  0.62719832  1
  O  O400  1  0.37389776  0.85901304  0.12629842  1
  O  O401  1  0.37232834  0.86765208  0.60507622  1
  O  O402  1  0.86376472  0.39086010  0.10952246  1
  O  O403  1  0.87900473  0.35790578  0.60722484  1
  O  O404  1  0.86649428  0.86496881  0.13445029  1
  O  O405  1  0.86079008  0.85959311  0.62742465  1
  O  O406  1  0.13417597  0.13786712  0.36630673  1
  O  O407  1  0.13626644  0.13007290  0.88338722  1
  O  O408  1  0.12146188  0.64099941  0.36987863  1
  O  O409  1  0.11374754  0.62219552  0.89020683  1
  O  O410  1  0.60804542  0.13915055  0.39038553  1
  O  O411  1  0.63569599  0.13412676  0.88150593  1
  O  O412  1  0.57875740  0.66135549  0.33893789  1
  O  O413  1  0.57720974  0.64901291  0.87704355  1
