# generated using pymatgen
data_V79Zn79O256
_symmetry_space_group_name_H-M   'P 1'
_cell_length_a   16.90868804
_cell_length_b   16.88314495
_cell_length_c   16.89543699
_cell_angle_alpha   90.00811283
_cell_angle_beta   90.10642923
_cell_angle_gamma   89.95821246
_symmetry_Int_Tables_number   1
_chemical_formula_structural   V79Zn79O256
_chemical_formula_sum   'V79 Zn79 O256'
_cell_volume   4823.16168500
_cell_formula_units_Z   1
loop_
 _symmetry_equiv_pos_site_id
 _symmetry_equiv_pos_as_xyz
  1  'x, y, z'
loop_
 _atom_site_type_symbol
 _atom_site_label
 _atom_site_symmetry_multiplicity
 _atom_site_fract_x
 _atom_site_fract_y
 _atom_site_fract_z
 _atom_site_occupancy
  V  V0  1  0.88898469  0.62983154  0.74697335  1
  V  V1  1  0.12130997  0.24958328  0.37141247  1
  V  V2  1  0.88313795  -0.00888330  0.88548506  1
  V  V3  1  0.74957428  0.62496134  0.87260278  1
  V  V4  1  0.51443249  0.11747108  0.63134510  1
  V  V5  1  0.10820567  0.50393617  0.12318277  1
  V  V6  1  0.75362658  0.13545379  0.88071652  1
  V  V7  1  0.12653956  0.12405683  0.50051193  1
  V  V8  1  0.13023364  -0.01161954  0.62608760  1
  V  V9  1  0.74425796  0.74769457  0.50027038  1
  V  V10  1  0.75021592  0.49428330  0.24554591  1
  V  V11  1  0.25098780  0.50270262  0.25590116  1
  V  V12  1  0.88575491  0.75267316  0.12935925  1
  V  V13  1  0.24763860  0.49600599  0.75031028  1
  V  V14  1  0.11489807  0.50465432  0.62516303  1
  V  V15  1  0.62109087  0.22789389  0.38204275  1
  V  V16  1  0.00296422  0.86445532  0.37170183  1
  V  V17  1  0.75702198  0.37161040  0.61308924  1
  V  V18  1  0.37331043  0.62433120  0.25528133  1
  V  V19  1  0.62730741  0.62344205  0.00081027  1
  V  V20  1  0.11370604  0.62309335  -0.00117354  1
  V  V21  1  0.50017594  0.50382680  0.49918264  1
  V  V22  1  0.50129446  0.49834798  -0.00197245  1
  V  V23  1  0.37084928  0.12356556  0.25400338  1
  V  V24  1  0.75348587  0.23622909  0.49787151  1
  V  V25  1  0.11097315  0.61966681  0.49667229  1
  V  V26  1  0.61767835  0.75302161  0.35177319  1
  V  V27  1  0.88945823  0.62717331  0.24706132  1
  V  V28  1  0.74418750  0.88631288  0.14268346  1
  V  V29  1  0.24893502  0.87643313  0.12273394  1
  V  V30  1  0.37815846  0.00528461  0.87188916  1
  V  V31  1  0.50164980  0.37687514  0.37623794  1
  V  V32  1  0.61209641  0.11231639  0.00722178  1
  V  V33  1  -0.00316053  0.13134220  0.14122109  1
  V  V34  1  0.11452614  0.37145298  0.24845275  1
  V  V35  1  0.37936172  0.37529936  -0.00094203  1
  V  V36  1  0.37759201  0.24456689  0.12379766  1
  V  V37  1  0.11406204  0.86424169  0.76629123  1
  V  V38  1  0.11804398  0.86787968  0.24676316  1
  V  V39  1  0.61348350  0.36955649  0.75162906  1
  V  V40  1  0.24967014  -0.00589039  0.74906659  1
  V  V41  1  0.11458388  0.00032910  0.11720700  1
  V  V42  1  0.74724627  0.62501975  0.37634970  1
  V  V43  1  0.24975084  0.73881261  0.49115983  1
  V  V44  1  -0.00589199  0.13136878  0.62817429  1
  V  V45  1  0.37966513  0.88224663  0.00050603  1
  V  V46  1  0.75045348  0.50004183  0.74900067  1
  V  V47  1  0.37224209  0.62564085  0.75073042  1
  V  V48  1  0.50332532  0.88053012  0.87851861  1
  V  V49  1  0.62322863  0.50737925  0.62246417  1
  V  V50  1  0.49922162  0.75240501  0.75327135  1
  V  V51  1  0.50013313  0.62886259  0.62139190  1
  V  V52  1  0.38241893  0.24251259  0.64156697  1
  V  V53  1  0.61161826  0.25387791  0.88018282  1
  V  V54  1  -0.00315237  0.37718559  0.39571988  1
  V  V55  1  0.36453731  0.88539624  0.48275186  1
  V  V56  1  0.24885088  0.00072560  0.25422588  1
  V  V57  1  0.87619687  0.87115444  0.50581827  1
  V  V58  1  0.24700902  0.37430086  0.62901336  1
  V  V59  1  0.24969479  0.37590779  0.12546572  1
  V  V60  1  0.88142063  0.49424402  0.88395906  1
  V  V61  1  0.00199264  -0.00381257  0.50106950  1
  V  V62  1  0.74679785  -0.00603013  0.74722706  1
  V  V63  1  0.38187665  0.75115987  0.12965543  1
  V  V64  1  0.25039139  0.74543549  -0.00576685  1
  V  V65  1  0.75441860  0.75888947  0.00470425  1
  V  V66  1  0.87025755  0.00911495  0.36599233  1
  V  V67  1  0.86853383  0.24518969  0.14992324  1
  V  V68  1  0.88849099  0.74659307  0.62591969  1
  V  V69  1  0.49663658  0.24978591  0.24883868  1
  V  V70  1  0.87898849  0.49785697  0.38897717  1
  V  V71  1  0.50325894  0.62685084  0.13055665  1
  V  V72  1  0.86962833  0.35516336  0.00958840  1
  V  V73  1  -0.00179268  0.26293597  0.75197540  1
  V  V74  1  0.11320042  0.13069595  -0.00729776  1
  V  V75  1  0.37857599  0.49882223  0.87525284  1
  V  V76  1  0.25134180  0.12507113  0.87252178  1
  V  V77  1  0.36689997  0.76277790  0.62505551  1
  V  V78  1  0.25391464  0.25092368  0.50107604  1
  Zn  Zn79  1  0.24375435  0.62951383  0.87280552  1
  Zn  Zn80  1  0.37632202  0.37428050  0.50060237  1
  Zn  Zn81  1  0.25381075  0.11843125  0.37921111  1
  Zn  Zn82  1  0.13703738  0.27253122  0.85387070  1
  Zn  Zn83  1  0.61777963  0.88600927  0.74058480  1
  Zn  Zn84  1  0.86875302  0.12752358  0.74574153  1
  Zn  Zn85  1  0.62857213  0.75568924  0.87653300  1
  Zn  Zn86  1  0.63730211  0.48535738  0.11740831  1
  Zn  Zn87  1  0.69454708  0.92457702  0.58436078  1
  Zn  Zn88  1  0.12511126  0.73277376  0.35756530  1
  Zn  Zn89  1  0.24701612  0.25245776  -0.00421284  1
  Zn  Zn90  1  0.37075310  0.50434422  0.37950390  1
  Zn  Zn91  1  0.01244517  0.38125668  0.88811037  1
  Zn  Zn92  1  0.51632105  -0.00066891  0.50559911  1
  Zn  Zn93  1  0.63369984  0.36838351  0.24748118  1
  Zn  Zn94  1  0.18661089  0.18702339  0.18444357  1
  Zn  Zn95  1  0.18487125  0.18404677  0.68757686  1
  Zn  Zn96  1  0.19131746  0.68520492  0.17841729  1
  Zn  Zn97  1  0.18412367  0.68900646  0.68257193  1
  Zn  Zn98  1  0.67895763  0.19715656  0.18047498  1
  Zn  Zn99  1  0.68821408  0.18674762  0.68844458  1
  Zn  Zn100  1  0.69630299  0.68172790  0.18622516  1
  Zn  Zn101  1  0.66607341  0.72833331  0.66071765  1
  Zn  Zn102  1  0.31072642  0.31498190  0.31428808  1
  Zn  Zn103  1  0.31627978  0.31355811  0.81517642  1
  Zn  Zn104  1  0.30485862  0.80880819  0.30966030  1
  Zn  Zn105  1  0.30975709  0.81791524  0.81181283  1
  Zn  Zn106  1  0.81186528  0.30909124  0.32649356  1
  Zn  Zn107  1  0.81433104  0.31197278  0.80567298  1
  Zn  Zn108  1  0.81552559  0.81480486  0.31467406  1
  Zn  Zn109  1  0.81791225  0.81399627  0.81249385  1
  Zn  Zn110  1  0.18465959  0.43657345  0.44036884  1
  Zn  Zn111  1  0.19050583  0.44382301  0.94021107  1
  Zn  Zn112  1  0.18996226  0.92745020  0.43826047  1
  Zn  Zn113  1  0.18722137  0.93913738  0.93778522  1
  Zn  Zn114  1  0.68452722  0.43920160  0.43376190  1
  Zn  Zn115  1  0.69301780  0.43133579  0.93785199  1
  Zn  Zn116  1  0.68697644  0.93491601  0.41151038  1
  Zn  Zn117  1  0.69290407  0.94436075  0.93471178  1
  Zn  Zn118  1  0.30480323  0.06389237  0.06085214  1
  Zn  Zn119  1  0.31684715  0.06471934  0.56736081  1
  Zn  Zn120  1  0.31102681  0.56279439  0.06684908  1
  Zn  Zn121  1  0.31233787  0.56366418  0.56361478  1
  Zn  Zn122  1  0.81144155  0.06668491  0.06133641  1
  Zn  Zn123  1  0.81383101  0.06055237  0.55754414  1
  Zn  Zn124  1  0.81805630  0.56550747  0.06427371  1
  Zn  Zn125  1  0.81154083  0.56761049  0.56617802  1
  Zn  Zn126  1  0.44016606  0.43839322  0.18607976  1
  Zn  Zn127  1  0.43330772  0.43417672  0.68402723  1
  Zn  Zn128  1  0.43812530  0.94593822  0.18134579  1
  Zn  Zn129  1  0.43647577  0.94213647  0.68731469  1
  Zn  Zn130  1  0.92994335  0.43305912  0.19182994  1
  Zn  Zn131  1  0.93295746  0.44049972  0.68488755  1
  Zn  Zn132  1  0.93234223  0.93828651  0.18310058  1
  Zn  Zn133  1  0.93492811  0.93824190  0.69594232  1
  Zn  Zn134  1  0.06247212  0.05493907  0.31409809  1
  Zn  Zn135  1  0.06320864  0.05775983  0.81019426  1
  Zn  Zn136  1  0.06420232  0.55461230  0.31502044  1
  Zn  Zn137  1  0.06541514  0.56035764  0.81352207  1
  Zn  Zn138  1  0.56841668  0.05966346  0.25720187  1
  Zn  Zn139  1  0.56318700  0.06977370  0.81032257  1
  Zn  Zn140  1  0.56598900  0.56583920  0.31384601  1
  Zn  Zn141  1  0.56315386  0.56340791  0.81088140  1
  Zn  Zn142  1  0.44154513  0.17862829  0.44168538  1
  Zn  Zn143  1  0.43887015  0.18868265  0.93522214  1
  Zn  Zn144  1  0.43920868  0.69559519  0.43741415  1
  Zn  Zn145  1  0.43613380  0.68906438  0.93968620  1
  Zn  Zn146  1  0.93770466  0.18996525  0.43779398  1
  Zn  Zn147  1  0.93914633  0.18878912  0.93194528  1
  Zn  Zn148  1  0.93618574  0.68484042  0.43569360  1
  Zn  Zn149  1  0.93170581  0.68241258  0.94096316  1
  Zn  Zn150  1  0.05378443  0.31278218  0.06079221  1
  Zn  Zn151  1  0.06678205  0.31309152  0.56895173  1
  Zn  Zn152  1  0.06512844  0.80727693  0.05787510  1
  Zn  Zn153  1  0.06709534  0.80697078  0.56400911  1
  Zn  Zn154  1  0.56620853  0.31041180  0.06425052  1
  Zn  Zn155  1  0.56496712  0.31107561  0.56328974  1
  Zn  Zn156  1  0.56624055  0.81729863  0.06684555  1
  Zn  Zn157  1  0.56492414  0.83675270  0.53817949  1
  O  O158  1  0.11469989  0.12172035  0.11628649  1
  O  O159  1  0.11743130  0.11589754  0.61452208  1
  O  O160  1  0.12495151  0.61026200  0.12040473  1
  O  O161  1  0.13025930  0.61234983  0.61389800  1
  O  O162  1  0.62475330  0.13175274  0.10715289  1
  O  O163  1  0.61291211  0.13362118  0.62073217  1
  O  O164  1  0.62134391  0.61912869  0.11378163  1
  O  O165  1  0.61206913  0.61975047  0.63384544  1
  O  O166  1  0.38763937  0.37682964  0.37824637  1
  O  O167  1  0.37099821  0.38668887  0.88656435  1
  O  O168  1  0.36402583  0.87288032  0.38237919  1
  O  O169  1  0.38161250  0.88390123  0.88273382  1
  O  O170  1  0.89097091  0.38029398  0.37502090  1
  O  O171  1  0.87074146  0.38652907  0.88149116  1
  O  O172  1  0.88622521  0.87831763  0.38604073  1
  O  O173  1  0.87192469  0.89048094  0.87337395  1
  O  O174  1  0.23597878  0.00025153  0.35824903  1
  O  O175  1  0.25787906  0.00605127  0.87025514  1
  O  O176  1  0.25037904  0.49033590  0.36054179  1
  O  O177  1  0.26219964  0.50419343  0.86639134  1
  O  O178  1  0.77149652  0.00145807  0.38838971  1
  O  O179  1  0.75777294  0.01282435  0.86513699  1
  O  O180  1  0.75839888  0.50666902  0.37070537  1
  O  O181  1  0.75918139  0.50566874  0.86794995  1
  O  O182  1  0.24667280  0.48900587  0.13389111  1
  O  O183  1  0.25112705  0.49200905  0.63337134  1
  O  O184  1  0.23731744  0.99546553  0.13100695  1
  O  O185  1  0.24001555  1.01086901  0.63828968  1
  O  O186  1  0.75677065  0.50470664  0.14136461  1
  O  O187  1  0.74069830  0.49691646  0.62873364  1
  O  O188  1  0.76417089  0.98381258  0.12314633  1
  O  O189  1  0.75626401  1.00197461  0.63908539  1
  O  O190  1  0.01264766  0.37651759  0.25442388  1
  O  O191  1  -0.00546334  0.36412825  0.74496209  1
  O  O192  1  0.00912525  0.88000132  0.25725087  1
  O  O193  1  0.01475340  0.87602546  0.74734320  1
  O  O194  1  0.49473037  0.36466388  0.25912840  1
  O  O195  1  0.51481674  0.38417242  0.74825878  1
  O  O196  1  0.49420493  0.92561788  0.33010908  1
  O  O197  1  0.49692643  0.86723856  0.75951155  1
  O  O198  1  0.48677368  0.14179286  0.25071303  1
  O  O199  1  0.50036261  0.12570653  0.73298264  1
  O  O200  1  0.49232616  0.61375394  0.23629335  1
  O  O201  1  0.48963102  0.63057577  0.74567833  1
  O  O202  1  1.00794143  0.12459837  0.23988956  1
  O  O203  1  1.00109555  0.12521435  0.73367231  1
  O  O204  1  0.98858358  0.62043978  0.25646540  1
  O  O205  1  0.98725324  0.62779315  0.75938363  1
  O  O206  1  0.37525340  0.25954767  0.00606915  1
  O  O207  1  0.36093384  0.24773808  0.50430261  1
  O  O208  1  0.37016706  0.75821928  0.00983558  1
  O  O209  1  0.36492952  0.75589017  0.50435739  1
  O  O210  1  0.86876190  0.25419921  -0.00045971  1
  O  O211  1  0.85296338  0.25017258  0.48627915  1
  O  O212  1  0.86119720  0.73544403  0.01605859  1
  O  O213  1  0.87335297  0.75466930  0.50453443  1
  O  O214  1  0.13325986  0.24296886  0.49663367  1
  O  O215  1  0.12603972  0.23794123  1.00168317  1
  O  O216  1  0.13656605  0.73368902  0.50636500  1
  O  O217  1  0.13789792  0.73147841  1.01197206  1
  O  O218  1  0.62678893  0.24916495  0.48681563  1
  O  O219  1  0.62281586  0.25113773  0.98347414  1
  O  O220  1  0.64271786  0.75353374  0.49506333  1
  O  O221  1  0.63697976  0.73950443  0.99931350  1
  O  O222  1  0.48623088  0.25808955  0.13494148  1
  O  O223  1  0.48557265  0.24210168  0.61559207  1
  O  O224  1  0.49223317  0.74045841  0.11782583  1
  O  O225  1  0.48736440  0.74229577  0.63529076  1
  O  O226  1  0.99419880  0.23673889  0.12794916  1
  O  O227  1  1.00388312  0.23754139  0.62846518  1
  O  O228  1  0.98457836  0.75510882  0.11984228  1
  O  O229  1  0.98832186  0.74608905  0.62095989  1
  O  O230  1  0.01178955  0.26271562  0.38418279  1
  O  O231  1  0.00462336  0.25445013  0.86056256  1
  O  O232  1  0.00677387  0.75987245  0.37998517  1
  O  O233  1  -0.00634774  0.78024011  0.90589021  1
  O  O234  1  0.50642893  0.25588659  0.37272525  1
  O  O235  1  0.51236099  0.25093251  0.86949702  1
  O  O236  1  0.52046078  0.74524268  0.37936223  1
  O  O237  1  0.49533742  0.75995649  0.86876365  1
  O  O238  1  0.24055167  0.13169611  0.49971613  1
  O  O239  1  0.23876535  0.12825334  0.98971163  1
  O  O240  1  0.25115175  0.63370609  0.49711769  1
  O  O241  1  0.24750010  0.63109849  1.00053665  1
  O  O242  1  0.74545919  0.13722716  0.50939736  1
  O  O243  1  0.73806244  0.12462308  0.98397907  1
  O  O244  1  0.76013585  0.63687876  0.48835267  1
  O  O245  1  0.74350216  0.62609582  0.99261505  1
  O  O246  1  0.26134083  0.37762469  0.00953852  1
  O  O247  1  0.25016432  0.36673795  0.50908663  1
  O  O248  1  0.25815707  0.86816148  0.00430634  1
  O  O249  1  0.25409468  0.85528075  0.50103070  1
  O  O250  1  0.77265955  0.38767417  0.00484924  1
  O  O251  1  0.74109260  0.37370560  0.51033923  1
  O  O252  1  0.74970595  0.85905633  -0.00319116  1
  O  O253  1  0.76392376  0.86079918  0.49625161  1
  O  O254  1  0.13118113  0.49326697  0.23914912  1
  O  O255  1  0.13790617  0.51141081  0.73674657  1
  O  O256  1  0.12894199  0.99077238  0.23756561  1
  O  O257  1  0.12975781  0.98996917  0.74368641  1
  O  O258  1  0.64354633  0.50374195  0.25031298  1
  O  O259  1  0.63204719  0.49426835  0.74462622  1
  O  O260  1  0.68983541  1.04569717  0.25743279  1
  O  O261  1  0.64048131  1.00139473  0.75566937  1
  O  O262  1  0.36002364  0.01168452  0.23807267  1
  O  O263  1  0.36337490  -0.00569988  0.76228203  1
  O  O264  1  0.36768632  0.50661898  0.24969299  1
  O  O265  1  0.37064558  0.50581033  0.75570452  1
  O  O266  1  0.87962034  -0.00678742  0.26716523  1
  O  O267  1  0.86346049  0.00596378  0.75715421  1
  O  O268  1  0.86948932  0.50808110  0.25862645  1
  O  O269  1  0.86709824  0.51075511  0.75499829  1
  O  O270  1  0.11451947  0.37100269  0.37053637  1
  O  O271  1  0.12437482  0.38173984  0.87741443  1
  O  O272  1  0.11810101  0.87178452  0.36319978  1
  O  O273  1  0.12441814  0.87765922  0.86684524  1
  O  O274  1  0.61144361  0.37445371  0.36884496  1
  O  O275  1  0.63276532  0.36644251  0.86278287  1
  O  O276  1  0.63694370  0.85195507  0.35606091  1
  O  O277  1  0.61280704  0.87520518  0.87528850  1
  O  O278  1  0.36395879  0.13796035  0.13136590  1
  O  O279  1  0.36947476  0.14053245  0.63252581  1
  O  O280  1  0.38400830  0.63213306  0.13015630  1
  O  O281  1  0.38220689  0.62858279  0.63628847  1
  O  O282  1  0.88829198  0.13317997  0.12389261  1
  O  O283  1  0.89249404  0.12044713  0.61967842  1
  O  O284  1  0.87445815  0.63255747  0.13967973  1
  O  O285  1  0.87618235  0.62597836  0.64104154  1
  O  O286  1  0.25618683  0.26194836  0.12365067  1
  O  O287  1  0.25413063  0.25589829  0.62215325  1
  O  O288  1  0.26183772  0.75634510  0.11501082  1
  O  O289  1  0.26181996  0.74001181  0.61293326  1
  O  O290  1  0.76991256  0.24033121  0.13235606  1
  O  O291  1  0.74171809  0.26339115  0.61246740  1
  O  O292  1  0.75587732  0.75404136  0.11586829  1
  O  O293  1  0.76537758  0.73903016  0.60583379  1
  O  O294  1  0.23820005  0.25233662  0.38498868  1
  O  O295  1  0.24920979  0.24107094  0.87426014  1
  O  O296  1  0.24226720  0.74676205  0.38589938  1
  O  O297  1  0.25961692  0.74845822  0.88937522  1
  O  O298  1  0.73144319  0.24938385  0.38429296  1
  O  O299  1  0.74372654  0.23908052  0.86445834  1
  O  O300  1  0.75002647  0.74215095  0.38139411  1
  O  O301  1  0.75399872  0.74023465  0.88604222  1
  O  O302  1  0.01125637  0.12856029  0.00332471  1
  O  O303  1  0.00892653  0.11845585  0.50732582  1
  O  O304  1  0.01442911  0.62951167  -0.00048030  1
  O  O305  1  0.01209021  0.62597058  0.50136913  1
  O  O306  1  0.51205733  0.12507163  -0.00662454  1
  O  O307  1  0.48364769  0.10877918  0.51721708  1
  O  O308  1  0.50807123  0.61978887  0.00598472  1
  O  O309  1  0.49147584  0.61868791  0.51246990  1
  O  O310  1  0.50037350  0.38550506  0.49481014  1
  O  O311  1  0.48863709  0.38577982  1.00703648  1
  O  O312  1  0.46882341  0.88300066  0.50287942  1
  O  O313  1  0.48958886  0.86876963  0.99235509  1
  O  O314  1  1.00467873  0.37647936  0.49453474  1
  O  O315  1  0.97819855  0.37263584  0.99846365  1
  O  O316  1  0.99948392  0.87932336  0.49432533  1
  O  O317  1  0.99870723  0.83525458  0.95994675  1
  O  O318  1  0.50177296  0.49673253  0.38402251  1
  O  O319  1  0.49092914  0.50741616  0.88582482  1
  O  O320  1  0.51749349  0.98893831  0.36249493  1
  O  O321  1  0.48987311  0.99206127  0.86559006  1
  O  O322  1  0.99541212  0.48466084  0.37561364  1
  O  O323  1  0.98341726  0.49603014  0.86288376  1
  O  O324  1  0.99878699  0.98844993  0.38682063  1
  O  O325  1  0.98187947  1.01142473  0.87052245  1
  O  O326  1  0.00616999  0.01122231  0.12648930  1
  O  O327  1  0.00898766  0.00670241  0.61578939  1
  O  O328  1  0.01003220  0.49480068  0.12949837  1
  O  O329  1  0.01648532  0.49665519  0.63071585  1
  O  O330  1  0.54005586  -0.02253053  0.18812493  1
  O  O331  1  0.50446052  0.00889124  0.62844284  1
  O  O332  1  0.49905043  0.51005764  0.11195331  1
  O  O333  1  0.50422760  0.50776228  0.62056104  1
  O  O334  1  0.24085355  0.38104262  0.24228906  1
  O  O335  1  0.25574566  0.38570474  0.74293822  1
  O  O336  1  0.24084128  0.88185568  0.24120320  1
  O  O337  1  0.23845670  0.88803293  0.75539204  1
  O  O338  1  0.75515948  0.39128605  0.26236168  1
  O  O339  1  0.74521758  0.38583944  0.73925601  1
  O  O340  1  0.75168374  0.87447401  0.24288638  1
  O  O341  1  0.74633648  0.88893788  0.75726440  1
  O  O342  1  0.25188826  0.11832872  0.25131863  1
  O  O343  1  0.23706391  0.11349556  0.76544120  1
  O  O344  1  0.26021249  0.61424715  0.24025538  1
  O  O345  1  0.25944526  0.61762122  0.74923784  1
  O  O346  1  0.73408681  0.10702702  0.24966468  1
  O  O347  1  0.74905930  0.11817339  0.75809141  1
  O  O348  1  0.76282894  0.61507432  0.25936351  1
  O  O349  1  0.75295747  0.61434588  0.76119559  1
  O  O350  1  0.37012742  0.13226363  0.35960999  1
  O  O351  1  0.36479670  0.11542308  0.88354767  1
  O  O352  1  0.38362455  0.62690797  0.35878587  1
  O  O353  1  0.37520364  0.61771133  0.86586834  1
  O  O354  1  0.89081624  0.10762559  0.37769083  1
  O  O355  1  0.86098787  0.12453192  0.87435176  1
  O  O356  1  0.87133895  0.61863105  0.36518769  1
  O  O357  1  0.86893498  0.61810117  0.86590217  1
  O  O358  1  0.12921574  0.38205527  0.12841351  1
  O  O359  1  0.13775594  0.39011022  0.61987072  1
  O  O360  1  0.12473193  0.88151793  0.12459487  1
  O  O361  1  0.12369806  0.88599538  0.62682848  1
  O  O362  1  0.62249551  0.37532537  0.13483576  1
  O  O363  1  0.63037328  0.38538978  0.63572562  1
  O  O364  1  0.64593588  0.87181668  0.12069070  1
  O  O365  1  0.63067469  0.84154352  0.63446262  1
  O  O366  1  0.13317114  0.25855260  0.26118787  1
  O  O367  1  0.10729782  0.24566152  0.74448406  1
  O  O368  1  0.13330882  0.76214994  0.24246926  1
  O  O369  1  0.13392219  0.76541874  0.74702276  1
  O  O370  1  0.61459919  0.24840006  0.26267874  1
  O  O371  1  0.62730393  0.26579809  0.75337342  1
  O  O372  1  0.62039542  0.73352229  0.25222703  1
  O  O373  1  0.60704664  0.74376630  0.75915996  1
  O  O374  1  0.37573588  0.24582911  0.24272662  1
  O  O375  1  0.37946839  0.25688321  0.74050568  1
  O  O376  1  0.36742763  0.74268354  0.23650440  1
  O  O377  1  0.37744931  0.74462038  0.74601437  1
  O  O378  1  0.87530347  0.25076153  0.24943295  1
  O  O379  1  0.89097396  0.24386122  0.74972431  1
  O  O380  1  0.87310767  0.73684450  0.24303215  1
  O  O381  1  0.86787751  0.73659828  0.74301365  1
  O  O382  1  0.38596732  0.49839388  0.49965891  1
  O  O383  1  0.38089550  0.49664759  0.99480295  1
  O  O384  1  0.34858746  0.98560093  0.49493370  1
  O  O385  1  0.36796920  0.98919404  0.99358833  1
  O  O386  1  0.87244025  0.50818289  0.48797356  1
  O  O387  1  0.87806447  0.50942555  0.98441075  1
  O  O388  1  0.88728808  0.98961591  0.49833803  1
  O  O389  1  0.87032948  1.00559582  0.98489520  1
  O  O390  1  0.12992945  0.01292345  0.00968262  1
  O  O391  1  0.12172861  0.00374312  0.50417714  1
  O  O392  1  0.12866953  0.50854247  0.01595367  1
  O  O393  1  0.13095441  0.51036929  0.51125052  1
  O  O394  1  0.62459327  0.01270911  -0.00550344  1
  O  O395  1  0.61884212  -0.05301562  0.50073426  1
  O  O396  1  0.61905653  0.50476874  -0.00323971  1
  O  O397  1  0.61465059  0.49881831  0.51240566  1
  O  O398  1  0.36761705  0.36929025  0.11938922  1
  O  O399  1  0.36586674  0.36304914  0.62153641  1
  O  O400  1  0.37380420  0.87168947  0.12047304  1
  O  O401  1  0.37162858  0.86537536  0.62640670  1
  O  O402  1  0.88282690  0.35447100  0.12082471  1
  O  O403  1  0.85576521  0.38364243  0.62305214  1
  O  O404  1  0.86503357  0.85749631  0.13142351  1
  O  O405  1  0.88225374  0.86662892  0.61392053  1
  O  O406  1  0.12167875  0.13178798  0.38524990  1
  O  O407  1  0.12912329  0.12164662  0.88637181  1
  O  O408  1  0.12299581  0.61971462  0.38951430  1
  O  O409  1  0.12898460  0.61234312  0.89356474  1
  O  O410  1  0.61065837  0.13086391  0.37144906  1
  O  O411  1  0.63065016  0.13905991  0.87789832  1
  O  O412  1  0.64057372  0.63234015  0.37337119  1
  O  O413  1  0.63275023  0.62463456  0.88383627  1
