# generated using pymatgen
data_V79Zn79O256
_symmetry_space_group_name_H-M   'P 1'
_cell_length_a   16.84307953
_cell_length_b   16.83880458
_cell_length_c   16.84891699
_cell_angle_alpha   90.02439635
_cell_angle_beta   90.02358600
_cell_angle_gamma   90.02225757
_symmetry_Int_Tables_number   1
_chemical_formula_structural   V79Zn79O256
_chemical_formula_sum   'V79 Zn79 O256'
_cell_volume   4778.64356121
_cell_formula_units_Z   1
loop_
 _symmetry_equiv_pos_site_id
 _symmetry_equiv_pos_as_xyz
  1  'x, y, z'
loop_
 _atom_site_type_symbol
 _atom_site_label
 _atom_site_symmetry_multiplicity
 _atom_site_fract_x
 _atom_site_fract_y
 _atom_site_fract_z
 _atom_site_occupancy
  V  V0  1  0.74651447  0.13691746  0.87514155  1
  V  V1  1  0.88640212  0.74422914  0.62305354  1
  V  V2  1  0.11623589  0.25412988  0.36233004  1
  V  V3  1  0.37952738  -0.00340983  0.38397345  1
  V  V4  1  0.88017957  0.87709940  0.49797976  1
  V  V5  1  0.74532108  0.88122985  0.12547600  1
  V  V6  1  0.50088774  0.24992526  0.25141162  1
  V  V7  1  0.37562932  0.24401886  0.12597179  1
  V  V8  1  0.62072341  0.12272691  0.50234331  1
  V  V9  1  0.87728552  0.87566418  -0.00554710  1
  V  V10  1  0.49814976  0.74699573  0.75478927  1
  V  V11  1  0.75588590  -0.00391642  0.75362211  1
  V  V12  1  0.63518888  0.38393238  0.72711266  1
  V  V13  1  0.11676068  0.26106920  0.87193041  1
  V  V14  1  0.51628740  0.61870993  0.62856398  1
  V  V15  1  0.50051806  0.24728613  0.75578153  1
  V  V16  1  0.50615902  0.10000033  0.12686236  1
  V  V17  1  0.88348091  0.13002647  0.73733833  1
  V  V18  1  0.49286638  0.38109623  0.37519694  1
  V  V19  1  -0.00387553  0.12504789  0.13367760  1
  V  V20  1  0.49360120  0.74732878  0.23867525  1
  V  V21  1  0.50277943  0.87577511  0.38489557  1
  V  V22  1  0.26153934  0.12494574  0.86686463  1
  V  V23  1  0.37659242  0.50571620  0.86699868  1
  V  V24  1  0.51406610  0.50527945  0.49982640  1
  V  V25  1  0.24063568  0.12070100  0.38408413  1
  V  V26  1  0.08841733  0.53156622  0.12131833  1
  V  V27  1  0.37346260  0.73575176  0.63080802  1
  V  V28  1  0.10847930  0.11813446  -0.00826743  1
  V  V29  1  0.75201079  0.74358785  0.50022708  1
  V  V30  1  0.12931648  0.87365805  0.75684392  1
  V  V31  1  0.37393610  0.11240682  0.25490886  1
  V  V32  1  0.12302333  0.01253752  0.61990248  1
  V  V33  1  0.62348016  0.87920774  0.24822117  1
  V  V34  1  0.51588270  0.37268044  0.87562093  1
  V  V35  1  0.74836544  0.62044949  0.38060474  1
  V  V36  1  0.37311307  0.86851980  -0.00170450  1
  V  V37  1  0.86713065  0.25859594  0.12173590  1
  V  V38  1  0.49587293  -0.00693048  -0.03028580  1
  V  V39  1  0.00096291  0.49514303  0.50192041  1
  V  V40  1  0.50153107  0.50226712  0.01177088  1
  V  V41  1  0.87608138  0.48840086  0.37427822  1
  V  V42  1  0.88463854  0.62580186  0.24877441  1
  V  V43  1  0.12514001  0.61585584  0.50399478  1
  V  V44  1  0.25132715  0.74778298  0.49796692  1
  V  V45  1  0.25131873  0.87326268  0.62491746  1
  V  V46  1  0.00653830  0.74831252  0.75141166  1
  V  V47  1  0.37789016  0.61420240  0.23998847  1
  V  V48  1  0.62446551  0.74411678  0.37910835  1
  V  V49  1  0.00345432  0.01175316  0.50252039  1
  V  V50  1  0.00005197  0.87892709  0.87739542  1
  V  V51  1  0.23922105  0.75066284  0.01478632  1
  V  V52  1  0.00205473  0.87089146  0.36515388  1
  V  V53  1  0.75221283  0.12636698  0.37211757  1
  V  V54  1  0.74340465  0.49784265  0.23756395  1
  V  V55  1  0.62378353  0.86917570  0.75879820  1
  V  V56  1  0.74574964  0.74507931  0.00056950  1
  V  V57  1  0.49330135  0.12596281  0.62733487  1
  V  V58  1  0.37540311  0.37401653  -0.00338461  1
  V  V59  1  0.75220177  0.87050125  0.62578443  1
  V  V60  1  0.25967792  0.60762869  0.37198265  1
  V  V61  1  0.62215378  0.73758570  0.87489097  1
  V  V62  1  0.23480137  0.37996623  0.62811614  1
  V  V63  1  0.12290027  0.74887190  0.36725163  1
  V  V64  1  0.62026828  -0.00302525  0.62283270  1
  V  V65  1  -0.00125385  0.25949390  0.73750054  1
  V  V66  1  0.24620687  0.38062532  0.13648273  1
  V  V67  1  0.87247890  0.38921042  -0.01011790  1
  V  V68  1  0.26257966  0.00512863  0.75035051  1
  V  V69  1  0.62368725  0.38065302  0.23769796  1
  V  V70  1  0.81728619  0.57646145  0.80082460  1
  V  V71  1  0.24147377  0.63455593  0.87613628  1
  V  V72  1  0.37377031  0.38207708  0.50499674  1
  V  V73  1  0.23220946  0.49756948  0.75169202  1
  V  V74  1  0.75027085  0.25422560  0.51606540  1
  V  V75  1  0.61769456  0.62272400  0.02152771  1
  V  V76  1  0.24755417  0.24716647  -0.00083823  1
  V  V77  1  0.88552171  0.74628881  0.12969800  1
  V  V78  1  0.87206925  0.37270139  0.51710998  1
  Zn  Zn79  1  0.09893062  0.38039328  0.24344714  1
  Zn  Zn80  1  -0.00225259  0.38534577  0.87934667  1
  Zn  Zn81  1  0.62641368  0.25343333  0.37531173  1
  Zn  Zn82  1  0.38524885  0.87444214  0.50563246  1
  Zn  Zn83  1  0.62763476  0.12073588  0.00349850  1
  Zn  Zn84  1  0.37113544  0.25014075  0.62886108  1
  Zn  Zn85  1  0.24437517  0.24722038  0.50501404  1
  Zn  Zn86  1  0.88303187  0.00687109  0.87948995  1
  Zn  Zn87  1  0.87761526  0.13054393  0.25042076  1
  Zn  Zn88  1  0.87871086  0.00100750  0.36885709  1
  Zn  Zn89  1  0.12827471  -0.00601886  0.12110975  1
  Zn  Zn90  1  0.13884164  0.88329038  0.24376328  1
  Zn  Zn91  1  0.00765998  0.61290867  0.63116551  1
  Zn  Zn92  1  0.73357495  0.26924460  -0.00158146  1
  Zn  Zn93  1  0.74932969  0.00331937  0.24566889  1
  Zn  Zn94  1  0.18934849  0.15202886  0.18756298  1
  Zn  Zn95  1  0.18478357  0.19395440  0.68876230  1
  Zn  Zn96  1  0.19009247  0.68235476  0.18950579  1
  Zn  Zn97  1  0.18907479  0.68213512  0.69182501  1
  Zn  Zn98  1  0.68417511  0.19139643  0.18261326  1
  Zn  Zn99  1  0.68296379  0.18968755  0.69726530  1
  Zn  Zn100  1  0.69185494  0.69037891  0.19151819  1
  Zn  Zn101  1  0.70923668  0.65204962  0.67900794  1
  Zn  Zn102  1  0.31070280  0.30472424  0.31701626  1
  Zn  Zn103  1  0.31329868  0.31314063  0.80906815  1
  Zn  Zn104  1  0.31632001  0.80901664  0.31204227  1
  Zn  Zn105  1  0.32061818  0.81873604  0.81726646  1
  Zn  Zn106  1  0.81256037  0.31114417  0.30911690  1
  Zn  Zn107  1  0.81396399  0.32005907  0.80879156  1
  Zn  Zn108  1  0.81337314  0.81268647  0.31148315  1
  Zn  Zn109  1  0.80895706  0.78322716  0.80693151  1
  Zn  Zn110  1  0.18302359  0.42683019  0.43277074  1
  Zn  Zn111  1  0.18294742  0.44492905  0.94901328  1
  Zn  Zn112  1  0.18879531  0.93715182  0.43266028  1
  Zn  Zn113  1  0.19457771  0.93705888  0.93718025  1
  Zn  Zn114  1  0.68569481  0.43328215  0.43392939  1
  Zn  Zn115  1  0.69975131  0.45663360  0.93008790  1
  Zn  Zn116  1  0.68920449  0.93629848  0.43709108  1
  Zn  Zn117  1  0.68587419  0.93847671  0.94012262  1
  Zn  Zn118  1  0.31759465  0.06002876  0.05384396  1
  Zn  Zn119  1  0.31332098  0.05862351  0.56115091  1
  Zn  Zn120  1  0.30845857  0.56349366  0.05889339  1
  Zn  Zn121  1  0.31358259  0.55571071  0.56294092  1
  Zn  Zn122  1  0.81591479  0.06275210  0.05964706  1
  Zn  Zn123  1  0.81038840  0.06186122  0.56168533  1
  Zn  Zn124  1  0.81255459  0.56694083  0.05818669  1
  Zn  Zn125  1  0.81489182  0.55323658  0.57705031  1
  Zn  Zn126  1  0.42797504  0.43382555  0.18931211  1
  Zn  Zn127  1  0.44064783  0.43506290  0.68725286  1
  Zn  Zn128  1  0.29766068  0.94474060  0.17983533  1
  Zn  Zn129  1  0.43999270  0.93270952  0.69009096  1
  Zn  Zn130  1  0.93327933  0.43990577  0.17943842  1
  Zn  Zn131  1  0.93126179  0.44257600  0.69412178  1
  Zn  Zn132  1  0.93605172  0.94488396  0.18219072  1
  Zn  Zn133  1  0.94083357  0.93557485  0.68783728  1
  Zn  Zn134  1  0.06170121  0.05761247  0.31195360  1
  Zn  Zn135  1  0.06663651  0.06370336  0.80840579  1
  Zn  Zn136  1  0.06767652  0.55578274  0.31262100  1
  Zn  Zn137  1  0.06121949  0.56652787  0.81562210  1
  Zn  Zn138  1  0.56218888  0.06059123  0.31567677  1
  Zn  Zn139  1  0.56708089  0.06197071  0.80623564  1
  Zn  Zn140  1  0.55958054  0.56322724  0.31155048  1
  Zn  Zn141  1  0.56518184  0.55889733  0.81290283  1
  Zn  Zn142  1  0.43267264  0.19251000  0.44156162  1
  Zn  Zn143  1  0.44537897  0.18446130  0.93992925  1
  Zn  Zn144  1  0.43777455  0.68429038  0.44002195  1
  Zn  Zn145  1  0.43447283  0.68721831  0.94210774  1
  Zn  Zn146  1  0.93715509  0.19600002  0.43842970  1
  Zn  Zn147  1  0.92545075  0.19576296  0.93457394  1
  Zn  Zn148  1  0.93982816  0.68225400  0.43453805  1
  Zn  Zn149  1  0.93943325  0.68817201  0.93426692  1
  Zn  Zn150  1  0.05347664  0.31599416  0.06682117  1
  Zn  Zn151  1  0.06222180  0.30786470  0.54920685  1
  Zn  Zn152  1  0.06646641  0.80943811  0.06292174  1
  Zn  Zn153  1  0.06830848  0.81554807  0.55814070  1
  Zn  Zn154  1  0.56439721  0.30756382  0.05867863  1
  Zn  Zn155  1  0.56104681  0.31046773  0.56333174  1
  Zn  Zn156  1  0.55766435  0.82087660  0.06066774  1
  Zn  Zn157  1  0.56674332  0.80416959  0.56810191  1
  O  O158  1  0.10740698  0.13675787  0.10430053  1
  O  O159  1  0.13108160  0.11164621  0.62648504  1
  O  O160  1  0.11282298  0.63001864  0.12522932  1
  O  O161  1  0.12881934  0.62477841  0.60874060  1
  O  O162  1  0.60904385  0.12058989  0.12936157  1
  O  O163  1  0.62016195  0.11637751  0.62175775  1
  O  O164  1  0.61946345  0.62918584  0.12064677  1
  O  O165  1  0.61421386  0.63247622  0.61963119  1
  O  O166  1  0.38622861  0.36982395  0.38313686  1
  O  O167  1  0.37860216  0.37964359  0.88521074  1
  O  O168  1  0.38617220  0.87850150  0.38023259  1
  O  O169  1  0.36557945  0.88610206  0.89345263  1
  O  O170  1  0.86516181  0.38491008  0.38226421  1
  O  O171  1  0.87983796  0.37674628  0.88275348  1
  O  O172  1  0.88110366  0.87354806  0.38426483  1
  O  O173  1  0.88148504  0.86561486  0.88072296  1
  O  O174  1  0.26146104  0.01170103  0.38164994  1
  O  O175  1  0.24547326  0.01740955  0.86583701  1
  O  O176  1  0.24812660  0.50907019  0.37700361  1
  O  O177  1  0.25811793  0.50004930  0.87025405  1
  O  O178  1  0.75305880  0.01577140  0.38088905  1
  O  O179  1  0.75388535  -0.00151893  0.86092652  1
  O  O180  1  0.75562909  0.50714879  0.37442947  1
  O  O181  1  0.74996448  0.51812961  0.84975117  1
  O  O182  1  0.25734921  0.47993217  0.12101676  1
  O  O183  1  0.25109090  0.49392096  0.64193001  1
  O  O184  1  0.24139658  1.03598765  0.13161906  1
  O  O185  1  0.24287073  0.99304953  0.62842259  1
  O  O186  1  0.75028715  0.50501559  0.13961955  1
  O  O187  1  0.76670722  0.55032441  0.67689948  1
  O  O188  1  0.75359468  0.98560087  0.12323537  1
  O  O189  1  0.74357563  0.99292796  0.63417036  1
  O  O190  1  -0.01155650  0.36568746  0.23942153  1
  O  O191  1  -0.00913231  0.36293404  0.75807981  1
  O  O192  1  -0.00782230  0.87970884  0.26487429  1
  O  O193  1  0.01181481  0.86968637  0.75486547  1
  O  O194  1  0.50102051  0.37004907  0.25610813  1
  O  O195  1  0.50884332  0.36776351  0.75726238  1
  O  O196  1  0.51011443  0.85578316  0.26732903  1
  O  O197  1  0.51255582  0.85987572  0.73992724  1
  O  O198  1  0.49672018  0.12991566  0.24376637  1
  O  O199  1  0.50794448  0.13920671  0.74299925  1
  O  O200  1  0.49201870  0.63614992  0.25471535  1
  O  O201  1  0.50480226  0.63060131  0.73687117  1
  O  O202  1  1.00003763  0.12830285  0.23653491  1
  O  O203  1  0.98970345  0.13323935  0.75243177  1
  O  O204  1  0.98301942  0.62217372  0.26196919  1
  O  O205  1  1.01849873  0.64412724  0.74421877  1
  O  O206  1  0.37095198  0.25413242  0.00459481  1
  O  O207  1  0.37075043  0.26611242  0.50560848  1
  O  O208  1  0.37201176  0.76189301  0.00028412  1
  O  O209  1  0.36560189  0.74912939  0.51054054  1
  O  O210  1  0.86224501  0.25988947  0.00420410  1
  O  O211  1  0.86401722  0.26180069  0.50118844  1
  O  O212  1  0.86619824  0.75121696  0.00960992  1
  O  O213  1  0.87263414  0.75894548  0.50177687  1
  O  O214  1  0.13203802  0.26011398  0.47684442  1
  O  O215  1  0.13019774  0.24224581  0.98788518  1
  O  O216  1  0.13534092  0.73948701  0.49398304  1
  O  O217  1  0.13975946  0.74960344  0.99746985  1
  O  O218  1  0.63639492  0.24343409  0.49972338  1
  O  O219  1  0.62463892  0.23618302  0.99961808  1
  O  O220  1  0.64149604  0.75348975  0.49256620  1
  O  O221  1  0.62240125  0.74076111  0.99671496  1
  O  O222  1  0.48830020  0.25064370  0.13392692  1
  O  O223  1  0.49834953  0.24199068  0.63409996  1
  O  O224  1  0.50190535  0.75561035  0.14023113  1
  O  O225  1  0.49350743  0.73638131  0.62915320  1
  O  O226  1  0.98125087  0.23634109  0.11154609  1
  O  O227  1  1.01039745  0.25594000  0.63876208  1
  O  O228  1  0.98353007  0.74770386  0.11927778  1
  O  O229  1  1.00120859  0.75621225  0.63153136  1
  O  O230  1  0.01570377  0.24113474  0.37212801  1
  O  O231  1  0.01085262  0.25083524  0.87091548  1
  O  O232  1  0.01139488  0.75797436  0.38417207  1
  O  O233  1  0.00103515  0.75759457  0.85854307  1
  O  O234  1  0.50012900  0.25648248  0.36452506  1
  O  O235  1  0.49761226  0.25683928  0.86491227  1
  O  O236  1  0.51181714  0.75065170  0.37803931  1
  O  O237  1  0.50436888  0.74229497  0.86354943  1
  O  O238  1  0.25780160  0.12757902  0.48916373  1
  O  O239  1  0.24492405  0.13532683  0.98562884  1
  O  O240  1  0.24666662  0.62630382  0.49218872  1
  O  O241  1  0.26178284  0.63941223  0.98652583  1
  O  O242  1  0.74412074  0.13521101  0.49505301  1
  O  O243  1  0.75026685  0.11363918  0.97963830  1
  O  O244  1  0.76192452  0.63338333  0.49281111  1
  O  O245  1  0.73097595  0.63413930  1.00858691  1
  O  O246  1  0.25670413  0.36206734  0.00576988  1
  O  O247  1  0.25694137  0.38570338  0.51497089  1
  O  O248  1  0.25413533  0.85840468  -0.00712359  1
  O  O249  1  0.24827248  0.86330375  0.50908736  1
  O  O250  1  0.76119258  0.38055602  -0.01174081  1
  O  O251  1  0.75484025  0.36258723  0.49840260  1
  O  O252  1  0.75372166  0.86704932  0.00731260  1
  O  O253  1  0.76048939  0.86635422  0.50332617  1
  O  O254  1  0.11370900  0.49846988  0.22325650  1
  O  O255  1  0.13233155  0.49402872  0.75940249  1
  O  O256  1  0.12509413  1.00227146  0.24025131  1
  O  O257  1  0.13427280  0.99384808  0.73735667  1
  O  O258  1  0.63526120  0.49736154  0.25425074  1
  O  O259  1  0.61593656  0.48258712  0.74920192  1
  O  O260  1  0.62830765  0.98352253  0.25865434  1
  O  O261  1  0.63527602  0.98913697  0.74213188  1
  O  O262  1  0.37690634  0.00794228  0.26261507  1
  O  O263  1  0.36203996  -0.00135585  0.74190291  1
  O  O264  1  0.38761991  0.51489991  0.25728247  1
  O  O265  1  0.37195465  0.49176006  0.76553170  1
  O  O266  1  0.86743155  0.01022713  0.25215496  1
  O  O267  1  0.87040196  0.00801812  0.74783615  1
  O  O268  1  0.86055190  0.50529875  0.25666519  1
  O  O269  1  0.90200904  0.52381402  0.76426606  1
  O  O270  1  0.13473200  0.36113850  0.35330608  1
  O  O271  1  0.12166052  0.36495580  0.88403557  1
  O  O272  1  0.11772721  0.86624165  0.37499757  1
  O  O273  1  0.12032714  0.88219085  0.86349654  1
  O  O274  1  0.61029701  0.37354748  0.36547820  1
  O  O275  1  0.61509009  0.38237237  0.88092934  1
  O  O276  1  0.62388361  0.86451138  0.37072732  1
  O  O277  1  0.62692445  0.86579356  0.86343020  1
  O  O278  1  0.38808069  0.12800824  0.13354669  1
  O  O279  1  0.38946213  0.12436079  0.61867898  1
  O  O280  1  0.36735840  0.62033962  0.14073137  1
  O  O281  1  0.37770516  0.63269227  0.62505405  1
  O  O282  1  0.88364639  0.13130355  0.12069252  1
  O  O283  1  0.87230469  0.12318918  0.63788017  1
  O  O284  1  0.86517225  0.63936983  0.13262780  1
  O  O285  1  0.89146490  0.64233174  0.61117115  1
  O  O286  1  0.26294463  0.24279102  0.11602217  1
  O  O287  1  0.25024789  0.26594874  0.62758002  1
  O  O288  1  0.24997578  0.74505628  0.11399438  1
  O  O289  1  0.25510139  0.75285375  0.62152140  1
  O  O290  1  0.76108983  0.23720160  0.11415903  1
  O  O291  1  0.74803353  0.24327159  0.61432402  1
  O  O292  1  0.75336254  0.75958466  0.11700442  1
  O  O293  1  0.76310456  0.75075579  0.61498722  1
  O  O294  1  0.24810426  0.23439823  0.38033234  1
  O  O295  1  0.23918570  0.24534389  0.87591821  1
  O  O296  1  0.24528182  0.74389592  0.38712970  1
  O  O297  1  0.25488555  0.73509816  0.86557898  1
  O  O298  1  0.74723517  0.23966096  0.38276157  1
  O  O299  1  0.75514589  0.23819170  0.87269012  1
  O  O300  1  0.74615748  0.74162370  0.38051583  1
  O  O301  1  0.73577517  0.75946534  0.89504798  1
  O  O302  1  0.00724891  0.12456069  -0.01213771  1
  O  O303  1  -0.00952509  0.11064996  0.49789588  1
  O  O304  1  0.00230466  0.58634718  -0.03597576  1
  O  O305  1  0.01046324  0.61522230  0.49852923  1
  O  O306  1  0.49722092  0.11007680  0.01204832  1
  O  O307  1  0.51382975  0.13536020  0.50966605  1
  O  O308  1  0.50871820  0.61852395  0.00024245  1
  O  O309  1  0.49783575  0.61305733  0.51038752  1
  O  O310  1  0.49613678  0.38417121  0.49560621  1
  O  O311  1  0.49256220  0.37894311  0.99366550  1
  O  O312  1  0.50552044  0.86553666  0.49089509  1
  O  O313  1  0.49094665  0.88546927  0.99422067  1
  O  O314  1  0.98015646  0.37784162  0.50192333  1
  O  O315  1  0.98329356  0.37382338  0.99747133  1
  O  O316  1  0.99445714  0.88202795  0.49349697  1
  O  O317  1  0.99063006  0.86066564  0.98670836  1
  O  O318  1  0.50300319  0.49532427  0.38933915  1
  O  O319  1  0.48875509  0.49259330  0.88254961  1
  O  O320  1  0.49478465  0.98655184  0.37346804  1
  O  O321  1  0.49479662  1.00204712  0.86966938  1
  O  O322  1  0.98560398  0.50358972  0.38606301  1
  O  O323  1  0.99878850  0.53198188  0.90677883  1
  O  O324  1  0.99941828  0.99087863  0.38599350  1
  O  O325  1  0.99859585  0.98488221  0.86499380  1
  O  O326  1  -0.00286832  0.02094732  0.11733839  1
  O  O327  1  0.01644107  -0.00633706  0.62018138  1
  O  O328  1  -0.01322293  0.52098934  0.11938361  1
  O  O329  1  -0.00703246  0.49819650  0.60805806  1
  O  O330  1  0.50008935  0.00405489  0.13251020  1
  O  O331  1  0.51276174  0.00735143  0.63555393  1
  O  O332  1  0.49143848  0.49158749  0.11015197  1
  O  O333  1  0.49819856  0.51210503  0.61822743  1
  O  O334  1  0.26468757  0.36956288  0.23536323  1
  O  O335  1  0.25031616  0.38488728  0.74106821  1
  O  O336  1  0.25232555  0.87976237  0.25819568  1
  O  O337  1  0.24696820  0.88300212  0.74466526  1
  O  O338  1  0.73936573  0.38980552  0.25625158  1
  O  O339  1  0.73390568  0.36702781  0.74626120  1
  O  O340  1  0.74126223  0.87259944  0.24336581  1
  O  O341  1  0.74556786  0.87522207  0.74501545  1
  O  O342  1  0.26786986  0.12936777  0.27035325  1
  O  O343  1  0.24600949  0.12254199  0.75940839  1
  O  O344  1  0.26407677  0.62869964  0.26403181  1
  O  O345  1  0.24783624  0.60763744  0.76042768  1
  O  O346  1  0.73968273  0.12636562  0.26606331  1
  O  O347  1  0.76015586  0.11839281  0.75479414  1
  O  O348  1  0.75436603  0.61519325  0.25993017  1
  O  O349  1  0.77149842  0.67318621  0.76931977  1
  O  O350  1  0.38043808  0.11492835  0.37198588  1
  O  O351  1  0.35984792  0.13598641  0.87516908  1
  O  O352  1  0.36296323  0.62452212  0.37598389  1
  O  O353  1  0.37083112  0.60877450  0.87716712  1
  O  O354  1  0.86102968  0.12931465  0.37525624  1
  O  O355  1  0.86531378  0.12208972  0.86285838  1
  O  O356  1  0.86471011  0.61824764  0.36880647  1
  O  O357  1  0.86426675  0.62762332  0.87697975  1
  O  O358  1  0.14310169  0.35561689  0.13096596  1
  O  O359  1  0.13647454  0.37645063  0.61817013  1
  O  O360  1  0.11484102  0.88068064  0.13127648  1
  O  O361  1  0.13887780  0.87994494  0.63232762  1
  O  O362  1  0.61641651  0.37485344  0.13818064  1
  O  O363  1  0.62465597  0.38009012  0.62645952  1
  O  O364  1  0.63322956  0.86726051  0.13571321  1
  O  O365  1  0.63222740  0.87787964  0.63175219  1
  O  O366  1  0.13576230  0.23098904  0.26278563  1
  O  O367  1  0.11226850  0.24703561  0.76282492  1
  O  O368  1  0.13188132  0.74832457  0.26613335  1
  O  O369  1  0.12017795  0.76359472  0.74128706  1
  O  O370  1  0.61419753  0.25921586  0.24984052  1
  O  O371  1  0.60994255  0.26553630  0.74471549  1
  O  O372  1  0.61892056  0.75264520  0.26164736  1
  O  O373  1  0.61783848  0.75296022  0.75777289  1
  O  O374  1  0.38463262  0.24030184  0.24467901  1
  O  O375  1  0.39309710  0.25839914  0.74638324  1
  O  O376  1  0.38985439  0.74006736  0.25684980  1
  O  O377  1  0.38581659  0.75672526  0.74155306  1
  O  O378  1  0.86473792  0.24750362  0.23026071  1
  O  O379  1  0.88679032  0.24044217  0.75124649  1
  O  O380  1  0.86875818  0.74314004  0.23796915  1
  O  O381  1  0.89901641  0.76241178  0.73547423  1
  O  O382  1  0.38757280  0.48925738  0.50383793  1
  O  O383  1  0.37890923  0.49101433  0.99128395  1
  O  O384  1  0.37770928  0.99346452  0.49043511  1
  O  O385  1  0.39142427  1.00183166  0.99184158  1
  O  O386  1  0.87333207  0.48900859  0.49570612  1
  O  O387  1  0.86992004  0.48963553  1.00325969  1
  O  O388  1  0.88198631  0.98945677  0.50252130  1
  O  O389  1  0.87117701  0.97988866  0.99631511  1
  O  O390  1  0.13013634  0.01680729  -0.00373719  1
  O  O391  1  0.12071393  -0.00571408  0.51280875  1
  O  O392  1  0.12532836  0.49215207  0.03247546  1
  O  O393  1  0.11313771  0.50280641  0.48833579  1
  O  O394  1  0.60438256  0.00229497  -0.01030852  1
  O  O395  1  0.63387503  0.00781683  0.51298217  1
  O  O396  1  0.61828930  0.51662524  -0.00283526  1
  O  O397  1  0.61375402  0.49645990  0.50142751  1
  O  O398  1  0.36757676  0.36324677  0.11486831  1
  O  O399  1  0.36835522  0.37595578  0.61892236  1
  O  O400  1  0.36112952  0.89458407  0.09773277  1
  O  O401  1  0.36483373  0.86587546  0.62455234  1
  O  O402  1  0.87036866  0.36392703  0.11162938  1
  O  O403  1  0.86671298  0.38158506  0.61601914  1
  O  O404  1  0.86910936  0.86364452  0.11824630  1
  O  O405  1  0.87346578  0.86816073  0.61525792  1
  O  O406  1  0.13832718  0.12304088  0.37789294  1
  O  O407  1  0.13040943  0.13518170  0.88076678  1
  O  O408  1  0.13714956  0.62827460  0.38094650  1
  O  O409  1  0.14280750  0.62102172  0.87981065  1
  O  O410  1  0.63162682  0.12521743  0.38679341  1
  O  O411  1  0.64452881  0.12250961  0.86407654  1
  O  O412  1  0.63630488  0.63232731  0.37236334  1
  O  O413  1  0.62195184  0.63493965  0.88037630  1
