# generated using pymatgen
data_V79Zn79O256
_symmetry_space_group_name_H-M   'P 1'
_cell_length_a   16.88636448
_cell_length_b   16.88754269
_cell_length_c   16.90272956
_cell_angle_alpha   90.12502730
_cell_angle_beta   90.01573309
_cell_angle_gamma   90.13153165
_symmetry_Int_Tables_number   1
_chemical_formula_structural   V79Zn79O256
_chemical_formula_sum   'V79 Zn79 O256'
_cell_volume   4820.11351561
_cell_formula_units_Z   1
loop_
 _symmetry_equiv_pos_site_id
 _symmetry_equiv_pos_as_xyz
  1  'x, y, z'
loop_
 _atom_site_type_symbol
 _atom_site_label
 _atom_site_symmetry_multiplicity
 _atom_site_fract_x
 _atom_site_fract_y
 _atom_site_fract_z
 _atom_site_occupancy
  V  V0  1  0.37187698  0.00811358  0.87550543  1
  V  V1  1  0.62974162  0.12739809  -0.01596721  1
  V  V2  1  0.62531109  0.87911969  0.73317734  1
  V  V3  1  0.13136120  0.64622956  -0.00340214  1
  V  V4  1  0.24914142  0.00785023  0.75225862  1
  V  V5  1  0.37140213  0.75063884  0.62217240  1
  V  V6  1  0.87684913  0.49364591  0.87961192  1
  V  V7  1  0.36952814  0.87464789  0.49905773  1
  V  V8  1  0.63604123  0.62834077  0.49416883  1
  V  V9  1  0.00630513  0.87009506  0.87872537  1
  V  V10  1  0.22402613  0.74525696  0.49337004  1
  V  V11  1  0.51778540  0.12275029  0.62584133  1
  V  V12  1  0.61890157  0.62120854  0.00363132  1
  V  V13  1  0.38375151  0.75004841  0.13129023  1
  V  V14  1  -0.01519077  0.87952956  0.37202371  1
  V  V15  1  0.87928199  0.49849555  0.38105459  1
  V  V16  1  0.88718632  0.38292542  0.49996893  1
  V  V17  1  0.75462757  0.12651932  0.35848854  1
  V  V18  1  0.37110882  0.00049481  0.37554536  1
  V  V19  1  0.23718967  0.38113403  0.11996834  1
  V  V20  1  0.50153564  0.87462786  0.87636537  1
  V  V21  1  0.87160668  0.74829759  0.12057267  1
  V  V22  1  0.37678173  0.37639028  0.49074738  1
  V  V23  1  0.76341620  0.00218692  0.25000570  1
  V  V24  1  0.12562795  0.87209497  0.75209443  1
  V  V25  1  0.01316747  0.48858116  -0.00257873  1
  V  V26  1  0.62295409  0.49864893  0.62900385  1
  V  V27  1  0.51276810  0.00124617  0.50631899  1
  V  V28  1  -0.00987031  0.12605000  0.63075164  1
  V  V29  1  0.24951483  0.25064201  0.50168108  1
  V  V30  1  0.00389351  0.12097641  0.13838323  1
  V  V31  1  0.25268106  0.64014531  0.87436859  1
  V  V32  1  0.74916223  0.63328170  0.88025155  1
  V  V33  1  0.00690118  0.74369573  0.75910957  1
  V  V34  1  0.74792071  0.87312131  0.11970980  1
  V  V35  1  0.74221462  0.24503082  0.50080445  1
  V  V36  1  0.24648194  0.12542437  0.36937315  1
  V  V37  1  0.86594221  0.00162635  0.87611798  1
  V  V38  1  0.24641685  0.23558873  -0.00352738  1
  V  V39  1  0.37698924  0.24627118  0.63100486  1
  V  V40  1  0.38917995  0.12741664  0.24289123  1
  V  V41  1  0.12847511  0.88527996  0.25281846  1
  V  V42  1  0.01489893  0.00798281  0.00191891  1
  V  V43  1  0.38171106  0.25360498  0.12395788  1
  V  V44  1  0.10648052  0.37020751  0.76090363  1
  V  V45  1  0.86786615  0.62186347  0.25393183  1
  V  V46  1  0.49668746  0.60659243  0.12431512  1
  V  V47  1  0.11669886  0.26059793  0.37046622  1
  V  V48  1  0.88013574  0.62218836  0.74981555  1
  V  V49  1  0.37151248  0.86777070  0.00133295  1
  V  V50  1  0.51378342  0.37905537  0.88825802  1
  V  V51  1  0.00591516  0.62210157  0.11996273  1
  V  V52  1  0.37189281  0.61933073  0.26427145  1
  V  V53  1  0.49441845  0.49646883  0.48816448  1
  V  V54  1  0.87191534  0.87095087  -0.00440837  1
  V  V55  1  -0.00716011  0.26891137  0.25180110  1
  V  V56  1  0.51768688  0.25637742  0.75633514  1
  V  V57  1  0.11091545  0.23812205  0.87686102  1
  V  V58  1  0.74672768  0.38372656  0.62052897  1
  V  V59  1  0.12280508  0.12052597  0.50074719  1
  V  V60  1  0.62461843  0.01174521  0.12822101  1
  V  V61  1  0.63152409  0.74791401  0.36777647  1
  V  V62  1  0.36935364  0.48808953  0.88400711  1
  V  V63  1  0.49927231  0.74942655  0.75041931  1
  V  V64  1  0.23837179  0.49799118  0.26201991  1
  V  V65  1  0.01099302  0.61489986  0.62738547  1
  V  V66  1  0.61762884  0.87749324  0.24966774  1
  V  V67  1  0.25548487  0.37684116  0.64086015  1
  V  V68  1  0.24597274  0.87156232  0.12224665  1
  V  V69  1  0.74413826  0.49766228  0.75175684  1
  V  V70  1  0.74877558  0.00056541  0.73703369  1
  V  V71  1  0.01044502  0.74880892  0.24993867  1
  V  V72  1  0.74675855  0.24689444  -0.01070323  1
  V  V73  1  0.87250986  0.37187995  0.00534826  1
  V  V74  1  0.50064003  0.00659242  0.00461843  1
  V  V75  1  0.49653174  0.62327312  0.62603108  1
  V  V76  1  0.60517310  0.37652677  0.25415751  1
  V  V77  1  -0.01458399  -0.00100872  0.49203178  1
  V  V78  1  0.13103356  0.49444633  0.62947381  1
  Zn  Zn79  1  0.49679925  0.87217605  0.37049403  1
  Zn  Zn80  1  0.24505147  0.00807636  0.23748804  1
  Zn  Zn81  1  0.87314583  0.13627217  0.76093674  1
  Zn  Zn82  1  0.12329201  -0.00151409  0.62542736  1
  Zn  Zn83  1  0.24129089  0.87478436  0.62483910  1
  Zn  Zn84  1  0.73769500  0.37846098  0.12678337  1
  Zn  Zn85  1  0.83036430  0.80297546  0.55400570  1
  Zn  Zn86  1  0.88039956  0.26084700  0.63059452  1
  Zn  Zn87  1  0.37571914  0.12726425  0.75476015  1
  Zn  Zn88  1  0.61038293  0.25998115  0.37803486  1
  Zn  Zn89  1  0.63862239  0.75680726  0.88341905  1
  Zn  Zn90  1  0.86136025  0.24050820  0.14079034  1
  Zn  Zn91  1  0.12872992  0.60019806  0.47225078  1
  Zn  Zn92  1  0.35491975  0.60504813  0.74073221  1
  Zn  Zn93  1  0.74099487  0.49881112  0.24614332  1
  Zn  Zn94  1  0.18256053  0.19397595  0.18286018  1
  Zn  Zn95  1  0.18262433  0.18946873  0.69051726  1
  Zn  Zn96  1  0.19432676  0.68607964  0.18497757  1
  Zn  Zn97  1  0.18635831  0.69136454  0.68899034  1
  Zn  Zn98  1  0.67823122  0.20147544  0.18402023  1
  Zn  Zn99  1  0.70089292  0.19226684  0.69199740  1
  Zn  Zn100  1  0.68299664  0.68762543  0.18331889  1
  Zn  Zn101  1  0.68835384  0.68569207  0.67842732  1
  Zn  Zn102  1  0.30929467  0.31229121  0.30468868  1
  Zn  Zn103  1  0.31894276  0.30885215  0.82056430  1
  Zn  Zn104  1  0.30648008  0.80321646  0.31363059  1
  Zn  Zn105  1  0.31336921  0.81599943  0.81203260  1
  Zn  Zn106  1  0.80562114  0.31847425  0.31671341  1
  Zn  Zn107  1  0.80917806  0.31399717  0.81265680  1
  Zn  Zn108  1  0.81049349  0.80784134  0.31174791  1
  Zn  Zn109  1  0.79814370  0.79163404  0.74663977  1
  Zn  Zn110  1  0.19110409  0.43355012  0.44413238  1
  Zn  Zn111  1  0.19597575  0.42812027  0.93533145  1
  Zn  Zn112  1  0.18356361  0.93278276  0.43506777  1
  Zn  Zn113  1  0.19188515  0.93721437  0.93679906  1
  Zn  Zn114  1  0.69399512  0.44195469  0.42702469  1
  Zn  Zn115  1  0.68779067  0.43993391  0.94195487  1
  Zn  Zn116  1  0.69951316  0.93054736  0.43531861  1
  Zn  Zn117  1  0.68543934  0.93827253  0.93643955  1
  Zn  Zn118  1  0.30822111  0.05968589  0.06132400  1
  Zn  Zn119  1  0.31082457  0.06219514  0.56653329  1
  Zn  Zn120  1  0.31247177  0.55949665  0.05946533  1
  Zn  Zn121  1  0.30588461  0.56200049  0.55596504  1
  Zn  Zn122  1  0.81712701  0.06580502  0.06367131  1
  Zn  Zn123  1  0.80698387  0.05472583  0.55795602  1
  Zn  Zn124  1  0.80790085  0.56135199  0.06197450  1
  Zn  Zn125  1  0.84368079  0.61667676  0.53644419  1
  Zn  Zn126  1  0.42757340  0.43565623  0.19191513  1
  Zn  Zn127  1  0.43692190  0.43506099  0.69512710  1
  Zn  Zn128  1  0.43396944  0.94283240  0.18622287  1
  Zn  Zn129  1  0.43526712  0.93821164  0.68593713  1
  Zn  Zn130  1  0.93580122  0.44028545  0.18017024  1
  Zn  Zn131  1  0.93598209  0.43920509  0.68996996  1
  Zn  Zn132  1  0.94185658  0.93581024  0.18118976  1
  Zn  Zn133  1  0.93345581  0.93450108  0.68390960  1
  Zn  Zn134  1  0.06018502  0.06503497  0.31268751  1
  Zn  Zn135  1  0.06136190  0.05852113  0.81553948  1
  Zn  Zn136  1  0.05870251  0.55550827  0.30844524  1
  Zn  Zn137  1  0.07338754  0.55412015  0.81757242  1
  Zn  Zn138  1  0.55034942  0.10038565  0.34292174  1
  Zn  Zn139  1  0.56144831  0.06290548  0.80760022  1
  Zn  Zn140  1  0.55948926  0.56254330  0.30749936  1
  Zn  Zn141  1  0.55874702  0.56052914  0.81843449  1
  Zn  Zn142  1  0.43469694  0.18777599  0.44575862  1
  Zn  Zn143  1  0.44060413  0.19465561  0.94222297  1
  Zn  Zn144  1  0.44513284  0.69094391  0.43574986  1
  Zn  Zn145  1  0.43515029  0.68244314  0.93839448  1
  Zn  Zn146  1  0.93005394  0.19239256  0.43869791  1
  Zn  Zn147  1  0.93497816  0.18463607  0.94356166  1
  Zn  Zn148  1  0.97044234  0.68041040  0.43005095  1
  Zn  Zn149  1  0.93825394  0.68311357  0.93675002  1
  Zn  Zn150  1  0.06428179  0.30578213  0.06474171  1
  Zn  Zn151  1  0.06672188  0.31003455  0.56722452  1
  Zn  Zn152  1  0.06105108  0.81638451  0.06530627  1
  Zn  Zn153  1  0.02698550  0.81761605  0.57575858  1
  Zn  Zn154  1  0.56366347  0.31208024  0.06916640  1
  Zn  Zn155  1  0.56050730  0.31346289  0.56432940  1
  Zn  Zn156  1  0.56324470  0.80741141  0.06101925  1
  Zn  Zn157  1  0.56006638  0.81080991  0.55336451  1
  O  O158  1  0.10490867  0.13038767  0.12632846  1
  O  O159  1  0.11506317  0.12568770  0.61445408  1
  O  O160  1  0.11683773  0.63349244  0.10940859  1
  O  O161  1  0.12213473  0.60707017  0.64356700  1
  O  O162  1  0.62950274  0.11419240  0.11976688  1
  O  O163  1  0.61657895  0.12950536  0.62928486  1
  O  O164  1  0.60813980  0.63021932  0.11806333  1
  O  O165  1  0.61578395  0.61999657  0.61392780  1
  O  O166  1  0.36659987  0.36356349  0.39235354  1
  O  O167  1  0.38477546  0.38322545  0.87694915  1
  O  O168  1  0.37269538  0.88198880  0.38027888  1
  O  O169  1  0.38335109  0.88288405  0.88229035  1
  O  O170  1  0.87149583  0.38339590  0.39262628  1
  O  O171  1  0.86676963  0.38619319  0.88597579  1
  O  O172  1  0.88580434  0.88216488  0.36108956  1
  O  O173  1  0.88683794  0.88362634  0.88528940  1
  O  O174  1  0.25632615  0.00846924  0.37526292  1
  O  O175  1  0.26184119  -0.00582294  0.86637494  1
  O  O176  1  0.24151017  0.49649594  0.36356215  1
  O  O177  1  0.26349635  0.50167963  0.87872201  1
  O  O178  1  0.75084644  0.00659748  0.35533347  1
  O  O179  1  0.76298794  -0.00537777  0.87204499  1
  O  O180  1  0.77101386  0.50045396  0.36234467  1
  O  O181  1  0.75546805  0.50836782  0.86910177  1
  O  O182  1  0.25476307  0.48503590  0.12503342  1
  O  O183  1  0.24700350  0.48832222  0.62746819  1
  O  O184  1  0.25787648  0.97977344  0.12608584  1
  O  O185  1  0.24628987  0.99434762  0.63521547  1
  O  O186  1  0.75502169  0.49403822  0.13096464  1
  O  O187  1  0.73874466  0.49835567  0.63300556  1
  O  O188  1  0.74466643  0.99408525  0.12910622  1
  O  O189  1  0.75852035  0.99048175  0.63856862  1
  O  O190  1  0.00054463  0.36742518  0.24345019  1
  O  O191  1  0.00702519  0.36835497  0.74946523  1
  O  O192  1  0.00965252  0.87247141  0.25084283  1
  O  O193  1  0.00605568  0.86602850  0.76173034  1
  O  O194  1  0.50403224  0.37987192  0.25471052  1
  O  O195  1  0.50517821  0.35926196  0.75002034  1
  O  O196  1  0.51316114  0.88713730  0.25092178  1
  O  O197  1  0.50762058  0.87287788  0.75564813  1
  O  O198  1  0.48683823  0.11133941  0.24344501  1
  O  O199  1  0.49763547  0.13420743  0.74343624  1
  O  O200  1  0.48527496  0.61815443  0.23522359  1
  O  O201  1  0.50296926  0.63575579  0.73979354  1
  O  O202  1  0.99415782  0.12298754  0.24108997  1
  O  O203  1  0.99471876  0.11086573  0.73336350  1
  O  O204  1  0.99326197  0.63156960  0.23432610  1
  O  O205  1  0.99856413  0.62511695  0.76072537  1
  O  O206  1  0.36188399  0.23795900  0.01523524  1
  O  O207  1  0.37138426  0.25585208  0.51180320  1
  O  O208  1  0.38373422  0.76321696  0.00801469  1
  O  O209  1  0.37544473  0.75793904  0.50744013  1
  O  O210  1  0.86181655  0.25686666  -0.00584989  1
  O  O211  1  0.86440918  0.26833277  0.50507669  1
  O  O212  1  0.88212636  0.75881490  0.00853192  1
  O  O213  1  0.88503666  0.71521066  0.49837230  1
  O  O214  1  0.12704476  0.24017298  0.49135506  1
  O  O215  1  0.13377701  0.25400642  0.98687476  1
  O  O216  1  0.12656615  0.76040934  0.50968254  1
  O  O217  1  0.12197440  0.74494144  0.99516631  1
  O  O218  1  0.63896767  0.26241902  0.49727018  1
  O  O219  1  0.63149042  0.23456646  1.00400276  1
  O  O220  1  0.62619925  0.73435447  0.49748593  1
  O  O221  1  0.62468849  0.73684700  0.99688328  1
  O  O222  1  0.48062491  0.24627779  0.11754126  1
  O  O223  1  0.49706098  0.24370123  0.63360331  1
  O  O224  1  0.48797003  0.74973578  0.12857780  1
  O  O225  1  0.49224329  0.74235446  0.62785088  1
  O  O226  1  1.00037250  0.24316468  0.14226321  1
  O  O227  1  0.99758107  0.23116114  0.61773257  1
  O  O228  1  0.99103317  0.74481112  0.12959889  1
  O  O229  1  1.01524167  0.72332383  0.64772661  1
  O  O230  1  0.00766801  0.24510922  0.36658508  1
  O  O231  1  0.01128008  0.24702588  0.88371047  1
  O  O232  1  -0.00600203  0.77207864  0.35950188  1
  O  O233  1  -0.00111832  0.75953926  0.87338840  1
  O  O234  1  0.51178269  0.20661274  0.37152163  1
  O  O235  1  0.49518611  0.25981882  0.86280404  1
  O  O236  1  0.52031271  0.75944338  0.38545017  1
  O  O237  1  0.49194390  0.75978996  0.86400065  1
  O  O238  1  0.24334661  0.12987235  0.49214988  1
  O  O239  1  0.24232804  0.13540298  1.00805059  1
  O  O240  1  0.23441992  0.63776411  0.50708874  1
  O  O241  1  0.23667722  0.62533329  0.99619589  1
  O  O242  1  0.75125372  0.14525792  0.51467009  1
  O  O243  1  0.74120090  0.13311221  1.00055039  1
  O  O244  1  0.73280041  0.61235181  0.50283201  1
  O  O245  1  0.74271036  0.62706223  0.98958024  1
  O  O246  1  0.24999408  0.36371628  0.01454253  1
  O  O247  1  0.25868871  0.36822547  0.51424122  1
  O  O248  1  0.26288370  0.87834386  0.00558373  1
  O  O249  1  0.25442913  0.86518916  0.50288904  1
  O  O250  1  0.75315891  0.36465880  0.00272792  1
  O  O251  1  0.75717074  0.37776660  0.50798623  1
  O  O252  1  0.75791576  0.88049120  0.00908427  1
  O  O253  1  0.77254079  0.88742461  0.50415818  1
  O  O254  1  0.13938090  0.51063048  0.24364185  1
  O  O255  1  0.12744028  0.47761271  0.74855625  1
  O  O256  1  0.12538379  0.98905935  0.24842280  1
  O  O257  1  0.13271901  0.99171703  0.75145363  1
  O  O258  1  0.62489150  0.48757384  0.25693539  1
  O  O259  1  0.63244357  0.51246665  0.74008721  1
  O  O260  1  0.63741785  0.99233256  0.23824808  1
  O  O261  1  0.63389877  0.98897234  0.75227952  1
  O  O262  1  0.36854267  0.00933784  0.25878467  1
  O  O263  1  0.36831601  -0.00078223  0.75837141  1
  O  O264  1  0.36465822  0.51304843  0.25043192  1
  O  O265  1  0.38350069  0.50136212  0.76815143  1
  O  O266  1  0.86168928  -0.00397355  0.23774809  1
  O  O267  1  0.86453821  -0.01095143  0.76152483  1
  O  O268  1  0.87791581  0.51650295  0.24525730  1
  O  O269  1  0.86971865  0.50374496  0.76263438  1
  O  O270  1  0.12523603  0.35838511  0.38457840  1
  O  O271  1  0.12582909  0.36669500  0.86449804  1
  O  O272  1  0.11795356  0.87626405  0.35685270  1
  O  O273  1  0.11482199  0.88156286  0.86840669  1
  O  O274  1  0.62603665  0.37568481  0.36547544  1
  O  O275  1  0.61415811  0.38235710  0.87476226  1
  O  O276  1  0.62680110  0.86928073  0.36518139  1
  O  O277  1  0.61246708  0.87364986  0.87285112  1
  O  O278  1  0.36575110  0.12700785  0.13989311  1
  O  O279  1  0.38142721  0.13651096  0.62451744  1
  O  O280  1  0.38564586  0.63221656  0.12053926  1
  O  O281  1  0.37888900  0.63199075  0.62560290  1
  O  O282  1  0.89489442  0.13358092  0.11103479  1
  O  O283  1  0.88640091  0.12074272  0.62075176  1
  O  O284  1  0.88386920  0.63387337  0.12418564  1
  O  O285  1  0.89681340  0.60600251  0.64290597  1
  O  O286  1  0.25242266  0.25720634  0.11773115  1
  O  O287  1  0.25785096  0.25413176  0.62205886  1
  O  O288  1  0.26369601  0.76204954  0.12693546  1
  O  O289  1  0.25748650  0.75178936  0.61682649  1
  O  O290  1  0.75046327  0.25358895  0.11071400  1
  O  O291  1  0.74595099  0.26816398  0.61504145  1
  O  O292  1  0.76026709  0.76189855  0.13167089  1
  O  O293  1  0.76946123  0.75147353  0.64218680  1
  O  O294  1  0.23813939  0.24270390  0.37836840  1
  O  O295  1  0.25216894  0.25033012  0.89301855  1
  O  O296  1  0.24280228  0.75286403  0.39433078  1
  O  O297  1  0.25960641  0.73989608  0.88063092  1
  O  O298  1  0.75190523  0.24153567  0.38799368  1
  O  O299  1  0.74468204  0.25446552  0.88961621  1
  O  O300  1  0.73316750  0.75509610  0.37720656  1
  O  O301  1  0.75228828  0.73439126  0.85313320  1
  O  O302  1  0.00357974  0.11007469  -0.00025373  1
  O  O303  1  0.00409795  0.11519113  0.49941031  1
  O  O304  1  0.01389192  0.61830013  0.00101912  1
  O  O305  1  0.01170220  0.61819724  0.52866890  1
  O  O306  1  0.51427765  0.11577537  -0.00584506  1
  O  O307  1  0.49536968  0.10852271  0.51157638  1
  O  O308  1  0.50840090  0.62679790  0.00916364  1
  O  O309  1  0.50043790  0.61490454  0.51089731  1
  O  O310  1  0.49294369  0.38888315  0.50584887  1
  O  O311  1  0.50454578  0.36358409  0.98658312  1
  O  O312  1  0.48723417  0.88735455  0.49993130  1
  O  O313  1  0.49472173  0.88407248  0.99302083  1
  O  O314  1  0.98553835  0.37329314  0.51204434  1
  O  O315  1  0.99376366  0.38444470  1.00650575  1
  O  O316  1  1.00525907  0.88748933  0.47979511  1
  O  O317  1  0.99227362  0.88430867  0.99840688  1
  O  O318  1  0.49755285  0.50660439  0.39105484  1
  O  O319  1  0.49425245  0.48555558  0.87440575  1
  O  O320  1  0.48472042  1.00549977  0.39019041  1
  O  O321  1  0.49466262  0.99144390  0.88139416  1
  O  O322  1  0.97790035  0.49045302  0.35900879  1
  O  O323  1  0.99051145  0.50410568  0.89004336  1
  O  O324  1  1.00149987  0.99398040  0.38148215  1
  O  O325  1  0.99319374  0.99080016  0.88522318  1
  O  O326  1  -0.00387156  0.00872219  0.11176560  1
  O  O327  1  0.00212123  0.00834268  0.60783019  1
  O  O328  1  -0.00527423  0.51220425  0.10753176  1
  O  O329  1  0.01615489  0.50478051  0.64023173  1
  O  O330  1  0.50919233  -0.00585477  0.11182548  1
  O  O331  1  0.49674753  0.00600109  0.61543446  1
  O  O332  1  0.48982124  0.50869754  0.12019768  1
  O  O333  1  0.50550047  0.50852312  0.62593705  1
  O  O334  1  0.25402835  0.38952420  0.24066758  1
  O  O335  1  0.25344178  0.36625616  0.74162361  1
  O  O336  1  0.23782819  0.87320862  0.24619252  1
  O  O337  1  0.24075521  0.88100408  0.74987703  1
  O  O338  1  0.74492618  0.37742993  0.24524396  1
  O  O339  1  0.75502553  0.39104809  0.73929397  1
  O  O340  1  0.74472373  0.88499954  0.23961075  1
  O  O341  1  0.73116157  0.88268460  0.75611586  1
  O  O342  1  0.24563824  0.12569927  0.26032758  1
  O  O343  1  0.25217416  0.11213096  0.74436814  1
  O  O344  1  0.26155660  0.61290508  0.24277793  1
  O  O345  1  0.24462844  0.62990285  0.76830951  1
  O  O346  1  0.75157898  0.11781887  0.25113149  1
  O  O347  1  0.75167236  0.10447684  0.74686356  1
  O  O348  1  0.76598086  0.63000547  0.24180117  1
  O  O349  1  0.76036827  0.61319870  0.75436722  1
  O  O350  1  0.36379179  0.12003493  0.36567666  1
  O  O351  1  0.38450450  0.11110803  0.87727202  1
  O  O352  1  0.37962804  0.62983859  0.36318376  1
  O  O353  1  0.36225766  0.61908111  0.87477008  1
  O  O354  1  0.85255626  0.12479160  0.38925373  1
  O  O355  1  0.88305203  0.10526840  0.87403279  1
  O  O356  1  0.88344565  0.61818893  0.35762017  1
  O  O357  1  0.86842675  0.61400100  0.87263464  1
  O  O358  1  0.13737235  0.36971406  0.12785380  1
  O  O359  1  0.13399420  0.37352789  0.63921644  1
  O  O360  1  0.13333035  0.86843242  0.13675351  1
  O  O361  1  0.11625762  0.87617701  0.64139143  1
  O  O362  1  0.62043270  0.37134974  0.14386731  1
  O  O363  1  0.63123505  0.39068214  0.61868163  1
  O  O364  1  0.63258319  0.88026734  0.12825429  1
  O  O365  1  0.61649253  0.87349878  0.63487448  1
  O  O366  1  0.11410207  0.24786343  0.26495074  1
  O  O367  1  0.12956907  0.25996521  0.76365785  1
  O  O368  1  0.11443998  0.75440421  0.24249014  1
  O  O369  1  0.11954319  0.75968668  0.75673116  1
  O  O370  1  0.62644356  0.26514658  0.25925894  1
  O  O371  1  0.61656856  0.24516871  0.75161169  1
  O  O372  1  0.62822025  0.75866969  0.25948105  1
  O  O373  1  0.61298776  0.76198240  0.74991587  1
  O  O374  1  0.37038476  0.23493530  0.24149300  1
  O  O375  1  0.38266133  0.24771102  0.74168384  1
  O  O376  1  0.36714961  0.73366072  0.24276715  1
  O  O377  1  0.38454141  0.75612924  0.73653848  1
  O  O378  1  0.88865612  0.25643305  0.25752596  1
  O  O379  1  0.85279560  0.24372211  0.73892891  1
  O  O380  1  0.88388770  0.74210824  0.24023431  1
  O  O381  1  0.89370954  0.73143119  0.75970203  1
  O  O382  1  0.38573818  0.49296864  0.50689248  1
  O  O383  1  0.38093775  0.50754207  0.98353172  1
  O  O384  1  0.37042680  0.99021561  0.49374583  1
  O  O385  1  0.38329822  0.99387174  0.99521696  1
  O  O386  1  0.87607339  0.50050328  0.48878013  1
  O  O387  1  0.87983768  0.49182420  0.99468483  1
  O  O388  1  0.88722061  1.00154294  0.49533716  1
  O  O389  1  0.87830887  0.99157785  0.99002400  1
  O  O390  1  0.11332616  -0.00549519  -0.00221187  1
  O  O391  1  0.12118235  0.00986823  0.49883269  1
  O  O392  1  0.11321334  0.49421040  -0.00627230  1
  O  O393  1  0.13043942  0.49370399  0.52141088  1
  O  O394  1  0.62192120  0.00953340  0.00583919  1
  O  O395  1  0.60966672  -0.01022645  0.49338810  1
  O  O396  1  0.62932222  0.52089216  -0.00032333  1
  O  O397  1  0.61121872  0.50982571  0.50558696  1
  O  O398  1  0.36535819  0.35670795  0.13291234  1
  O  O399  1  0.37242003  0.36500989  0.62098969  1
  O  O400  1  0.37175203  0.86886884  0.12035629  1
  O  O401  1  0.37343391  0.86675554  0.61547977  1
  O  O402  1  0.87643667  0.36716695  0.11106956  1
  O  O403  1  0.86481483  0.38618616  0.61473319  1
  O  O404  1  0.86912122  0.86854033  0.11598207  1
  O  O405  1  0.91982446  0.85109684  0.61298752  1
  O  O406  1  0.12975100  0.12994132  0.38293969  1
  O  O407  1  0.12476183  0.13879795  0.86620838  1
  O  O408  1  0.07025539  0.63550143  0.38591808  1
  O  O409  1  0.13811512  0.62115654  0.88795674  1
  O  O410  1  0.65412312  0.12170265  0.38475844  1
  O  O411  1  0.62895611  0.11774690  0.88542955  1
  O  O412  1  0.61918890  0.63484505  0.38332705  1
  O  O413  1  0.62907343  0.62871475  0.88433803  1
