# generated using pymatgen
data_V79Zn79O256
_symmetry_space_group_name_H-M   'P 1'
_cell_length_a   16.89409960
_cell_length_b   16.95080112
_cell_length_c   16.90791245
_cell_angle_alpha   90.13662480
_cell_angle_beta   90.03190516
_cell_angle_gamma   89.97212507
_symmetry_Int_Tables_number   1
_chemical_formula_structural   V79Zn79O256
_chemical_formula_sum   'V79 Zn79 O256'
_cell_volume   4841.87881963
_cell_formula_units_Z   1
loop_
 _symmetry_equiv_pos_site_id
 _symmetry_equiv_pos_as_xyz
  1  'x, y, z'
loop_
 _atom_site_type_symbol
 _atom_site_label
 _atom_site_symmetry_multiplicity
 _atom_site_fract_x
 _atom_site_fract_y
 _atom_site_fract_z
 _atom_site_occupancy
  V  V0  1  0.62872945  0.37887020  0.73482570  1
  V  V1  1  0.37477738  0.74768197  0.12482366  1
  V  V2  1  -0.00022468  0.88371701  0.86874963  1
  V  V3  1  0.74797055  0.12138671  0.87514492  1
  V  V4  1  0.74443825  0.12288884  0.37247038  1
  V  V5  1  -0.01203493  0.37457015  0.38682360  1
  V  V6  1  0.74313872  0.37662345  0.13018925  1
  V  V7  1  0.87139624  0.11982838  0.75316094  1
  V  V8  1  -0.00205923  0.50156252  0.00190403  1
  V  V9  1  0.37596191  0.25665638  0.61966085  1
  V  V10  1  0.13353884  0.24600498  0.88343158  1
  V  V11  1  0.24816674  0.74570946  0.50233127  1
  V  V12  1  0.00609722  0.00025694  -0.00275128  1
  V  V13  1  0.37695353  0.38237034  0.00099791  1
  V  V14  1  0.25171391  0.12281140  0.37084773  1
  V  V15  1  0.24907262  0.36679307  0.12571236  1
  V  V16  1  0.12468884  0.88054479  0.24946675  1
  V  V17  1  0.49992974  0.38837400  0.87886858  1
  V  V18  1  0.24559322  0.62235928  0.37963868  1
  V  V19  1  0.61953761  0.74731861  0.38141230  1
  V  V20  1  0.74592303  -0.00100175  0.74919175  1
  V  V21  1  0.61020643  0.86811686  0.74682562  1
  V  V22  1  0.50168519  0.60402712  0.63030664  1
  V  V23  1  0.49587017  0.74444334  0.25525484  1
  V  V24  1  0.49578656  0.88639109  0.37759367  1
  V  V25  1  0.12832966  0.87453819  0.75031654  1
  V  V26  1  0.24581917  0.74210325  -0.00788967  1
  V  V27  1  0.23865809  0.38566705  0.63120984  1
  V  V28  1  0.12492037  0.74728937  0.37810564  1
  V  V29  1  0.12335300  0.25702245  0.36560862  1
  V  V30  1  0.86557276  0.50872832  0.87540060  1
  V  V31  1  0.24321166  0.50673029  0.77539798  1
  V  V32  1  0.62150080  0.24666039  0.87474060  1
  V  V33  1  0.38108459  0.48939737  0.39009998  1
  V  V34  1  0.37446376  0.02238586  0.86290550  1
  V  V35  1  0.87496965  0.74666106  0.62605518  1
  V  V36  1  0.86590768  0.11858080  0.24656117  1
  V  V37  1  0.24536046  0.87401595  0.62610147  1
  V  V38  1  0.64922021  -0.01517466  0.11644791  1
  V  V39  1  0.49314144  0.24633450  0.74685910  1
  V  V40  1  0.74407441  0.24897624  0.50057542  1
  V  V41  1  0.53610416  0.33505925  0.36072229  1
  V  V42  1  0.06174116  0.56279063  0.56350289  1
  V  V43  1  0.87177287  0.24759856  0.12467456  1
  V  V44  1  -0.00213517  0.74477547  0.24930065  1
  V  V45  1  -0.01016551  0.62230955  0.13524638  1
  V  V46  1  0.61366587  0.11923866  0.49200559  1
  V  V47  1  0.37507342  0.62164902  0.25075370  1
  V  V48  1  0.38852382  0.12638044  0.25076892  1
  V  V49  1  0.74421579  0.24349697  -0.00130896  1
  V  V50  1  0.64011481  0.75490092  0.88437026  1
  V  V51  1  0.87144863  0.87778160  0.50092187  1
  V  V52  1  -0.00303907  0.12128771  0.62367411  1
  V  V53  1  0.24830800  0.87619482  0.12081920  1
  V  V54  1  0.12449190  0.49959252  0.12871854  1
  V  V55  1  0.12369139  0.12236845  0.49551911  1
  V  V56  1  -0.00205271  0.25394733  0.75201135  1
  V  V57  1  0.75386873  0.62067901  0.37457463  1
  V  V58  1  0.61700786  0.60476802  0.50177717  1
  V  V59  1  0.00031194  0.37280297  0.87389122  1
  V  V60  1  0.63171989  0.62259847  0.00787906  1
  V  V61  1  0.00587061  0.11669248  0.12216232  1
  V  V62  1  0.00544280  0.74245998  0.74684244  1
  V  V63  1  0.86892944  0.25448167  0.62167825  1
  V  V64  1  0.75932580  0.49992504  0.25216313  1
  V  V65  1  0.60973348  0.50040622  0.13553542  1
  V  V66  1  0.49323172  0.87809609  0.89230888  1
  V  V67  1  0.25407787  0.26056616  0.49538783  1
  V  V68  1  0.00183920  0.25425696  0.24755640  1
  V  V69  1  0.86909010  0.37533871  -0.00087661  1
  V  V70  1  0.38464951  0.74546051  0.63267877  1
  V  V71  1  0.74233640  0.50556210  0.74428850  1
  V  V72  1  0.25787340  -0.00314127  0.25496827  1
  V  V73  1  0.87268119  -0.00089015  0.37218450  1
  V  V74  1  0.24499056  0.49599274  0.25073912  1
  V  V75  1  0.37739801  0.88522350  0.49871551  1
  V  V76  1  0.18309597  0.05450879  0.67832098  1
  V  V77  1  0.61371249  0.00159581  0.62169412  1
  V  V78  1  0.87722245  0.86402704  -0.00106810  1
  Zn  Zn79  1  0.74581282  0.74918922  0.50339363  1
  Zn  Zn80  1  0.87694456  0.49726300  0.39752041  1
  Zn  Zn81  1  0.00301003  -0.00315435  0.50068240  1
  Zn  Zn82  1  0.13605748  0.61961240  -0.01618951  1
  Zn  Zn83  1  0.15950182  0.11311419  -0.01268603  1
  Zn  Zn84  1  0.79807805  0.41280023  0.56689566  1
  Zn  Zn85  1  0.49007969  0.11858116  0.62335386  1
  Zn  Zn86  1  0.39585817  0.24684131  0.12963100  1
  Zn  Zn87  1  0.74692104  0.87624128  0.62493515  1
  Zn  Zn88  1  0.86514272  0.74841408  0.11905687  1
  Zn  Zn89  1  -0.00105642  0.87528147  0.37375482  1
  Zn  Zn90  1  0.51268608  0.09978251  0.10125813  1
  Zn  Zn91  1  0.86521780  0.63026948  0.75629595  1
  Zn  Zn92  1  0.36329825  0.62497589  0.78677647  1
  Zn  Zn93  1  0.64268977  0.86799168  0.24276475  1
  Zn  Zn94  1  0.21281177  0.15944277  0.15497708  1
  Zn  Zn95  1  0.18389993  0.22157512  0.69026157  1
  Zn  Zn96  1  0.18323001  0.68435290  0.18587845  1
  Zn  Zn97  1  0.18727470  0.67851715  0.69015298  1
  Zn  Zn98  1  0.67661537  0.18033429  0.17953492  1
  Zn  Zn99  1  0.68009821  0.18740003  0.68354170  1
  Zn  Zn100  1  0.68280991  0.68100414  0.19419392  1
  Zn  Zn101  1  0.68368687  0.68613470  0.68497593  1
  Zn  Zn102  1  0.31910134  0.31097493  0.30900938  1
  Zn  Zn103  1  0.31410112  0.32215113  0.81127961  1
  Zn  Zn104  1  0.31336185  0.81273983  0.31507389  1
  Zn  Zn105  1  0.31555997  0.81526092  0.81065690  1
  Zn  Zn106  1  0.80756149  0.30659310  0.31335763  1
  Zn  Zn107  1  0.81076671  0.31330069  0.80939532  1
  Zn  Zn108  1  0.81290848  0.80382780  0.31601798  1
  Zn  Zn109  1  0.81702865  0.81984653  0.81394395  1
  Zn  Zn110  1  0.18076735  0.43817030  0.43810388  1
  Zn  Zn111  1  0.18450071  0.42785271  0.94452254  1
  Zn  Zn112  1  0.18957285  0.93579166  0.43689856  1
  Zn  Zn113  1  0.19264984  0.93682458  0.93603078  1
  Zn  Zn114  1  0.67536113  0.42833744  0.42259134  1
  Zn  Zn115  1  0.68014997  0.44145860  0.93701259  1
  Zn  Zn116  1  0.68428855  0.93817768  0.43217883  1
  Zn  Zn117  1  0.68881400  0.93210186  0.93974843  1
  Zn  Zn118  1  0.32660252  0.05645200  0.06077664  1
  Zn  Zn119  1  0.31814901  0.07250105  0.55605103  1
  Zn  Zn120  1  0.31689621  0.56239400  0.06098787  1
  Zn  Zn121  1  0.31191048  0.56216396  0.56819760  1
  Zn  Zn122  1  0.82006558  0.05316818  0.05561778  1
  Zn  Zn123  1  0.80777406  0.06264009  0.56200417  1
  Zn  Zn124  1  0.80712852  0.56763900  0.06446916  1
  Zn  Zn125  1  0.81139883  0.57445817  0.56096494  1
  Zn  Zn126  1  0.43327525  0.42956711  0.20060577  1
  Zn  Zn127  1  0.42451473  0.43755451  0.69598983  1
  Zn  Zn128  1  0.43819354  0.92820149  0.18475204  1
  Zn  Zn129  1  0.42805542  0.93930970  0.69096474  1
  Zn  Zn130  1  0.93415885  0.43435256  0.19130145  1
  Zn  Zn131  1  0.93840736  0.44410123  0.68832460  1
  Zn  Zn132  1  0.93412325  0.93390796  0.18458712  1
  Zn  Zn133  1  0.93624542  0.93764762  0.68545115  1
  Zn  Zn134  1  0.06069640  0.06365943  0.30900246  1
  Zn  Zn135  1  0.06110037  0.06826095  0.81629688  1
  Zn  Zn136  1  0.06023549  0.55733273  0.31970002  1
  Zn  Zn137  1  0.06739104  0.56314518  0.81145431  1
  Zn  Zn138  1  0.56212915  0.03495449  0.26681380  1
  Zn  Zn139  1  0.55945905  0.06007835  0.81519063  1
  Zn  Zn140  1  0.56187490  0.55605267  0.31271831  1
  Zn  Zn141  1  0.52688269  0.59772480  0.84065010  1
  Zn  Zn142  1  0.43760255  0.19189872  0.43201744  1
  Zn  Zn143  1  0.41868187  0.19560344  0.93605269  1
  Zn  Zn144  1  0.43351658  0.68251267  0.44378942  1
  Zn  Zn145  1  0.45633022  0.70606894  0.95076983  1
  Zn  Zn146  1  0.93290752  0.19011214  0.43664784  1
  Zn  Zn147  1  0.93491878  0.18560624  0.93832780  1
  Zn  Zn148  1  0.94046150  0.68724668  0.44142233  1
  Zn  Zn149  1  0.96531186  0.68395484  0.92787897  1
  Zn  Zn150  1  0.06415468  0.30954814  0.06354249  1
  Zn  Zn151  1  0.06257556  0.31196562  0.56148327  1
  Zn  Zn152  1  0.06275331  0.80995889  0.06145429  1
  Zn  Zn153  1  0.06020712  0.81105251  0.56247023  1
  Zn  Zn154  1  0.56225608  0.31632544  0.05840607  1
  Zn  Zn155  1  0.55761184  0.31745623  0.55148128  1
  Zn  Zn156  1  0.56587695  0.80525029  0.06103259  1
  Zn  Zn157  1  0.56110780  0.81506692  0.56020958  1
  O  O158  1  0.10368243  0.13030484  0.12865151  1
  O  O159  1  0.12145002  0.12412785  0.61976973  1
  O  O160  1  0.11647785  0.61050242  0.12020580  1
  O  O161  1  0.12221926  0.62879509  0.61365912  1
  O  O162  1  0.62695456  0.09449724  0.12798411  1
  O  O163  1  0.61849589  0.11647107  0.61425149  1
  O  O164  1  0.62660207  0.60689781  0.12567547  1
  O  O165  1  0.61435940  0.62490988  0.61135865  1
  O  O166  1  0.36009632  0.39083769  0.37803154  1
  O  O167  1  0.38734853  0.37054705  0.88871643  1
  O  O168  1  0.38469954  0.87007879  0.38487079  1
  O  O169  1  0.39339242  0.86848206  0.87347868  1
  O  O170  1  0.88446694  0.36866020  0.37368185  1
  O  O171  1  0.87777475  0.37720387  0.88520389  1
  O  O172  1  0.87258688  0.88151298  0.38060520  1
  O  O173  1  0.89237067  0.87820310  0.87880586  1
  O  O174  1  0.24571893  0.01161651  0.36852153  1
  O  O175  1  0.28472499  -0.00485311  0.90731864  1
  O  O176  1  0.24968931  0.50675249  0.36903468  1
  O  O177  1  0.24765823  0.49236540  0.87534491  1
  O  O178  1  0.76257881  0.00939991  0.37948836  1
  O  O179  1  0.73839403  0.01404761  0.86429611  1
  O  O180  1  0.74747736  0.50351227  0.36743589  1
  O  O181  1  0.75715938  0.49154085  0.86626769  1
  O  O182  1  0.24253809  0.49706837  0.13209313  1
  O  O183  1  0.24470803  0.48551928  0.61734641  1
  O  O184  1  0.25958218  0.97986263  0.13281959  1
  O  O185  1  0.24867045  0.99569276  0.62161981  1
  O  O186  1  0.74748054  0.49241090  0.13319676  1
  O  O187  1  0.75529887  0.49524664  0.64224542  1
  O  O188  1  0.75146134  0.98851864  0.11684616  1
  O  O189  1  0.73672128  1.00196278  0.63391742  1
  O  O190  1  -0.00653962  0.35821443  0.25401710  1
  O  O191  1  -0.01444974  0.36392466  0.76306143  1
  O  O192  1  0.01048546  0.86743457  0.24971779  1
  O  O193  1  0.01025957  0.87876991  0.75040875  1
  O  O194  1  0.48556637  0.36844890  0.27663560  1
  O  O195  1  0.50784759  0.36924033  0.75918799  1
  O  O196  1  0.48981839  0.85734320  0.26902681  1
  O  O197  1  0.50990113  0.87613257  0.74807397  1
  O  O198  1  0.48428204  0.11730659  0.27326826  1
  O  O199  1  0.50979961  0.14467819  0.74509184  1
  O  O200  1  0.48709253  0.63275767  0.25788718  1
  O  O201  1  0.50871884  0.62348074  0.72891617  1
  O  O202  1  0.98823722  0.12971626  0.23910330  1
  O  O203  1  0.99009177  0.13174471  0.74444251  1
  O  O204  1  1.00969396  0.63047012  0.24428478  1
  O  O205  1  0.99523882  0.64231563  0.74971712  1
  O  O206  1  0.39298589  0.26897232  0.01687248  1
  O  O207  1  0.36317170  0.24956924  0.50150814  1
  O  O208  1  0.36790863  0.74533030  0.02073226  1
  O  O209  1  0.36524772  0.75791564  0.50860171  1
  O  O210  1  0.86491070  0.25812872  0.00304518  1
  O  O211  1  0.85879429  0.24204609  0.50951950  1
  O  O212  1  0.89589914  0.75988785  -0.00750031  1
  O  O213  1  0.87453892  0.75853532  0.51161744  1
  O  O214  1  0.13216029  0.23932473  0.49046255  1
  O  O215  1  0.12111476  0.24636921  0.98690168  1
  O  O216  1  0.13566063  0.75945941  0.48913210  1
  O  O217  1  0.14258269  0.74600616  1.00624439  1
  O  O218  1  0.63544841  0.22914276  0.50899119  1
  O  O219  1  0.63537026  0.25357585  0.98909693  1
  O  O220  1  0.62353769  0.74567630  0.49123367  1
  O  O221  1  0.65277136  0.78470235  0.97857924  1
  O  O222  1  0.52556997  0.23194874  0.12946801  1
  O  O223  1  0.49435025  0.25821918  0.63356070  1
  O  O224  1  0.47981909  0.76152534  0.14275715  1
  O  O225  1  0.48497527  0.75408490  0.62254036  1
  O  O226  1  0.99166012  0.24252334  0.12829992  1
  O  O227  1  0.99302825  0.24126505  0.63284920  1
  O  O228  1  1.00723285  0.73590032  0.13386121  1
  O  O229  1  0.98591268  0.76022659  0.63509231  1
  O  O230  1  0.00235631  0.25437213  0.36714302  1
  O  O231  1  -0.00192001  0.25505074  0.87027819  1
  O  O232  1  0.01052841  0.74837311  0.36963304  1
  O  O233  1  -0.00291882  0.76918105  0.85028498  1
  O  O234  1  0.51730669  0.23568699  0.36662583  1
  O  O235  1  0.50512828  0.25587925  0.86333015  1
  O  O236  1  0.50447701  0.74722070  0.37328921  1
  O  O237  1  0.52328206  0.77205454  0.87659388  1
  O  O238  1  0.24263940  0.13403263  0.48963485  1
  O  O239  1  0.24817557  0.13353598  1.04873901  1
  O  O240  1  0.25621529  0.63661237  0.49199370  1
  O  O241  1  0.25188533  0.63589042  1.00146727  1
  O  O242  1  0.74172781  0.12884160  0.49187485  1
  O  O243  1  0.76176545  0.13524227  0.98899534  1
  O  O244  1  0.73098176  0.62861306  0.49474970  1
  O  O245  1  0.73181644  0.64249927  1.01820972  1
  O  O246  1  0.26428418  0.37569564  0.01313393  1
  O  O247  1  0.24003328  0.36399258  0.50727002  1
  O  O248  1  0.24542096  0.86419815  0.01766895  1
  O  O249  1  0.25595883  0.86762676  0.50638689  1
  O  O250  1  0.75459778  0.36730800  0.00451778  1
  O  O251  1  0.73108601  0.35242351  0.49643419  1
  O  O252  1  0.77993517  0.87709959  -0.01630448  1
  O  O253  1  0.75957153  0.87276103  0.49911054  1
  O  O254  1  0.13452222  0.50299510  0.24274932  1
  O  O255  1  0.14114879  0.50139421  0.75527310  1
  O  O256  1  0.13414113  0.98823346  0.25557933  1
  O  O257  1  0.12587659  0.99751425  0.74309783  1
  O  O258  1  0.63378655  0.49921324  0.23962337  1
  O  O259  1  0.63579503  0.48591425  0.75445370  1
  O  O260  1  0.65592915  0.98120086  0.24509893  1
  O  O261  1  0.62844048  0.99419849  0.74085228  1
  O  O262  1  0.36317253  0.00738204  0.25160345  1
  O  O263  1  0.36441184  -0.00359876  0.76397485  1
  O  O264  1  0.36285500  0.50860958  0.25641008  1
  O  O265  1  0.35304668  0.50913537  0.74793002  1
  O  O266  1  0.87787314  0.00929657  0.25578711  1
  O  O267  1  0.86256878  0.01215703  0.74058473  1
  O  O268  1  0.86215050  0.49724540  0.25511806  1
  O  O269  1  0.86187279  0.50038096  0.75927765  1
  O  O270  1  0.11156421  0.36220663  0.37707681  1
  O  O271  1  0.10611738  0.36386463  0.88501412  1
  O  O272  1  0.12481922  0.86522296  0.36781124  1
  O  O273  1  0.12347670  0.88217705  0.85698745  1
  O  O274  1  0.63708281  0.35357115  0.34729132  1
  O  O275  1  0.61469512  0.36493389  0.87252015  1
  O  O276  1  0.61323782  0.86337435  0.37521277  1
  O  O277  1  0.62066941  0.87833331  0.85755600  1
  O  O278  1  0.39146046  0.12078588  0.14290410  1
  O  O279  1  0.37776361  0.14585148  0.61861657  1
  O  O280  1  0.36730031  0.63613127  0.13915939  1
  O  O281  1  0.38892413  0.63641577  0.61613280  1
  O  O282  1  0.87770365  0.12825715  0.13081746  1
  O  O283  1  0.87937819  0.13332290  0.63178151  1
  O  O284  1  0.88352560  0.63036068  0.12724979  1
  O  O285  1  0.86965962  0.64402358  0.63069174  1
  O  O286  1  0.24108470  0.27013548  0.13916466  1
  O  O287  1  0.25748489  0.25870440  0.61505115  1
  O  O288  1  0.25753489  0.75499441  0.12577429  1
  O  O289  1  0.25625577  0.75499502  0.61742149  1
  O  O290  1  0.74974940  0.25567811  0.11646788  1
  O  O291  1  0.75545485  0.24140553  0.61318569  1
  O  O292  1  0.75476708  0.76549240  0.16041038  1
  O  O293  1  0.76066259  0.75558705  0.62598035  1
  O  O294  1  0.24126067  0.24642608  0.37658961  1
  O  O295  1  0.23073177  0.26412114  0.86547016  1
  O  O296  1  0.24472562  0.74262551  0.38150163  1
  O  O297  1  0.26046611  0.75942587  0.89506761  1
  O  O298  1  0.75607102  0.23479684  0.38961899  1
  O  O299  1  0.74188009  0.24391349  0.87940725  1
  O  O300  1  0.73674665  0.73899789  0.37593664  1
  O  O301  1  0.73655503  0.75117009  0.85242116  1
  O  O302  1  -0.00866032  0.11847115  0.01263315  1
  O  O303  1  0.00734416  0.13199868  0.50815694  1
  O  O304  1  -0.01121570  0.60540945  0.01901488  1
  O  O305  1  -0.00140256  0.61656816  0.50311265  1
  O  O306  1  0.46780948  0.10166323  -0.00659909  1
  O  O307  1  0.51132020  0.12688684  0.49844974  1
  O  O308  1  0.54697610  0.68473329  0.02556441  1
  O  O309  1  0.51072796  0.62404488  0.50804504  1
  O  O310  1  0.51875820  0.36705030  0.45954557  1
  O  O311  1  0.49785794  0.37874373  0.98672549  1
  O  O312  1  0.49229458  0.87144572  0.48695786  1
  O  O313  1  0.49925367  0.87635158  0.99178339  1
  O  O314  1  0.99557777  0.36319723  0.48628935  1
  O  O315  1  0.98696711  0.38174942  0.99877328  1
  O  O316  1  0.98762625  0.87701390  0.49679895  1
  O  O317  1  1.00703768  0.88022773  0.98634722  1
  O  O318  1  0.48020281  0.50440780  0.37171349  1
  O  O319  1  0.50945442  0.48458527  0.86689508  1
  O  O320  1  0.50653205  0.98249230  0.36635310  1
  O  O321  1  0.48880947  0.98799853  0.86563935  1
  O  O322  1  0.99450874  0.47902812  0.36780530  1
  O  O323  1  0.98715158  0.48755627  0.88390453  1
  O  O324  1  0.98595953  1.00090613  0.37658789  1
  O  O325  1  1.00324939  0.99421235  0.87969943  1
  O  O326  1  -0.00067618  0.01208028  0.12119420  1
  O  O327  1  -0.00507125  0.01748927  0.62250686  1
  O  O328  1  0.00391890  0.50007722  0.12446867  1
  O  O329  1  0.00863106  0.50478103  0.62975307  1
  O  O330  1  0.51728683  -0.00134016  0.15834554  1
  O  O331  1  0.50808919  0.00065934  0.63134871  1
  O  O332  1  0.51100469  0.49091321  0.13762509  1
  O  O333  1  0.49040206  0.50592399  0.62566090  1
  O  O334  1  0.25760883  0.38739767  0.23785316  1
  O  O335  1  0.25318503  0.38888440  0.73878306  1
  O  O336  1  0.24399331  0.87975869  0.24987924  1
  O  O337  1  0.24149973  0.86821549  0.73818854  1
  O  O338  1  0.75555519  0.37731615  0.23556160  1
  O  O339  1  0.73489906  0.37649661  0.75082270  1
  O  O340  1  0.75569311  0.83064114  0.21783209  1
  O  O341  1  0.74396929  0.89019618  0.75031410  1
  O  O342  1  0.25315548  0.11360416  0.25319386  1
  O  O343  1  0.23391340  0.11990165  0.73202364  1
  O  O344  1  0.25436565  0.61761596  0.25878533  1
  O  O345  1  0.24806087  0.61642163  0.76299107  1
  O  O346  1  0.75717623  0.13844581  0.25823633  1
  O  O347  1  0.75239437  0.12116748  0.75472647  1
  O  O348  1  0.74369304  0.61285774  0.26449203  1
  O  O349  1  0.74368961  0.60990267  0.74888233  1
  O  O350  1  0.35767217  0.13249844  0.36743657  1
  O  O351  1  0.37586334  0.12345305  0.85992666  1
  O  O352  1  0.36217098  0.61863784  0.36982125  1
  O  O353  1  0.42319369  0.62704303  0.88050276  1
  O  O354  1  0.86804106  0.11835384  0.36634949  1
  O  O355  1  0.86280122  0.13118442  0.86267673  1
  O  O356  1  0.85660551  0.62346345  0.38909261  1
  O  O357  1  0.88156713  0.61148911  0.87530401  1
  O  O358  1  0.13734524  0.38691068  0.11544021  1
  O  O359  1  0.13964960  0.35835494  0.63060597  1
  O  O360  1  0.13890967  0.86541548  0.13815646  1
  O  O361  1  0.13654871  0.87432790  0.62892360  1
  O  O362  1  0.63528941  0.39207352  0.11030336  1
  O  O363  1  0.61879756  0.37215486  0.63633231  1
  O  O364  1  0.61901318  0.87830765  0.12903610  1
  O  O365  1  0.62515256  0.88233880  0.63204944  1
  O  O366  1  0.11123709  0.23983385  0.25961843  1
  O  O367  1  0.10482519  0.24762156  0.76481171  1
  O  O368  1  0.12183764  0.75699624  0.26017028  1
  O  O369  1  0.11173662  0.76006735  0.73766944  1
  O  O370  1  0.57901785  0.24549874  0.19521570  1
  O  O371  1  0.61751310  0.26189580  0.75428073  1
  O  O372  1  0.61089615  0.74593326  0.26271275  1
  O  O373  1  0.62545245  0.76668302  0.74606947  1
  O  O374  1  0.37058800  0.23196744  0.24486489  1
  O  O375  1  0.38845625  0.25858216  0.74374535  1
  O  O376  1  0.37517912  0.73810946  0.25051108  1
  O  O377  1  0.36702806  0.74145293  0.73447331  1
  O  O378  1  0.88066698  0.23817549  0.24419234  1
  O  O379  1  0.87763461  0.23939245  0.74370910  1
  O  O380  1  0.89686399  0.75318782  0.25366132  1
  O  O381  1  0.88233786  0.75516987  0.73950150  1
  O  O382  1  0.36984169  0.50570398  0.48822215  1
  O  O383  1  0.38137486  0.48256820  1.01234823  1
  O  O384  1  0.37137938  0.98470266  0.50834847  1
  O  O385  1  0.41273691  1.03564752  0.98734141  1
  O  O386  1  0.85621015  0.48867986  0.50783637  1
  O  O387  1  0.87393357  0.49186660  0.99650263  1
  O  O388  1  0.87591607  0.99403125  0.49350408  1
  O  O389  1  0.89755396  0.98435542  1.00193641  1
  O  O390  1  0.11454730  0.00389868  -0.00655938  1
  O  O391  1  0.12247697  0.01676480  0.49046450  1
  O  O392  1  0.11229248  0.49821635  0.00747626  1
  O  O393  1  0.11883702  0.50561663  0.50077794  1
  O  O394  1  0.62728985  -0.01281000  0.01546001  1
  O  O395  1  0.62974001  0.00954163  0.50865256  1
  O  O396  1  0.62258386  0.51647996  0.00768771  1
  O  O397  1  0.62600013  0.50659078  0.49478268  1
  O  O398  1  0.36578317  0.37218054  0.12237541  1
  O  O399  1  0.36137953  0.36411329  0.62643145  1
  O  O400  1  0.35846767  0.85838825  0.13962208  1
  O  O401  1  0.36558387  0.86465843  0.62150126  1
  O  O402  1  0.86552258  0.36968199  0.11528322  1
  O  O403  1  0.87516352  0.35779245  0.63452876  1
  O  O404  1  0.89093090  0.86447765  0.10585390  1
  O  O405  1  0.87051220  0.87122866  0.61676547  1
  O  O406  1  0.13022037  0.13445541  0.37760888  1
  O  O407  1  0.12583272  0.13902444  0.87789585  1
  O  O408  1  0.13561106  0.63450106  0.36972941  1
  O  O409  1  0.07092093  0.63523238  0.89524355  1
  O  O410  1  0.63425683  0.11213790  0.38729029  1
  O  O411  1  0.63238010  0.13820418  0.86669259  1
  O  O412  1  0.62637095  0.62713563  0.38619977  1
  O  O413  1  0.62089040  0.64416016  0.89542905  1
