# generated using pymatgen
data_V79Zn79O256
_symmetry_space_group_name_H-M   'P 1'
_cell_length_a   16.92334182
_cell_length_b   16.91997987
_cell_length_c   16.90663710
_cell_angle_alpha   90.20204017
_cell_angle_beta   89.99502527
_cell_angle_gamma   90.22750991
_symmetry_Int_Tables_number   1
_chemical_formula_structural   V79Zn79O256
_chemical_formula_sum   'V79 Zn79 O256'
_cell_volume   4841.02219683
_cell_formula_units_Z   1
loop_
 _symmetry_equiv_pos_site_id
 _symmetry_equiv_pos_as_xyz
  1  'x, y, z'
loop_
 _atom_site_type_symbol
 _atom_site_label
 _atom_site_symmetry_multiplicity
 _atom_site_fract_x
 _atom_site_fract_y
 _atom_site_fract_z
 _atom_site_occupancy
  V  V0  1  0.64645393  0.13319679  0.00150174  1
  V  V1  1  0.37259438  0.37631965  0.01619541  1
  V  V2  1  0.25287745  0.12796218  0.87212022  1
  V  V3  1  0.11770344  0.61395584  0.50020303  1
  V  V4  1  0.62421450  0.37610457  0.75234899  1
  V  V5  1  0.24832460  0.61977832  0.37349752  1
  V  V6  1  0.00240491  0.75273875  0.74662312  1
  V  V7  1  0.12778652  0.00136131  0.60563876  1
  V  V8  1  0.24582957  0.26355668  0.01156518  1
  V  V9  1  0.36580446  0.37189457  0.49374167  1
  V  V10  1  0.12958827  0.15846495  0.48788157  1
  V  V11  1  -0.00871110  0.25347139  0.74004220  1
  V  V12  1  0.49425666  0.49350883  0.49598503  1
  V  V13  1  0.36849104  0.49766361  0.87061666  1
  V  V14  1  0.37158227  0.62309898  0.75298264  1
  V  V15  1  0.87244397  0.36614681  0.50411703  1
  V  V16  1  0.37778415  0.87710412  0.50234622  1
  V  V17  1  0.61710537  0.74746880  0.36732537  1
  V  V18  1  0.86113338  0.87424800  -0.00107163  1
  V  V19  1  0.88283853  0.13707835  0.25502690  1
  V  V20  1  0.37431624  0.75306594  0.13406799  1
  V  V21  1  0.49464616  0.12004018  0.62565853  1
  V  V22  1  0.12193439  0.12886660  0.00061330  1
  V  V23  1  0.24955783  0.00858941  0.25420764  1
  V  V24  1  0.11907973  0.74923578  0.37258123  1
  V  V25  1  0.11891934  0.00824853  0.12854161  1
  V  V26  1  0.01151820  0.87327663  0.87324938  1
  V  V27  1  0.50182731  0.50393988  0.00024619  1
  V  V28  1  0.36143453  0.24471602  0.62992495  1
  V  V29  1  0.62751321  0.62993479  -0.00328507  1
  V  V30  1  0.87958569  0.38488228  -0.01078328  1
  V  V31  1  0.87592099  0.24561314  0.11046008  1
  V  V32  1  0.49946992  0.75181310  0.75078909  1
  V  V33  1  0.24362308  0.74911933  -0.00030968  1
  V  V34  1  0.49806358  0.63282737  0.12944624  1
  V  V35  1  0.00171944  0.36419208  0.37789908  1
  V  V36  1  0.51212525  -0.00222588  0.01409939  1
  V  V37  1  -0.00534975  0.61798379  0.62078579  1
  V  V38  1  0.62564008  0.88481367  0.75008258  1
  V  V39  1  0.24471062  0.87808397  0.12909383  1
  V  V40  1  0.87307578  0.00733250  0.85695754  1
  V  V41  1  0.87203790  0.74696469  0.63164501  1
  V  V42  1  0.37086663  0.87897624  0.00113373  1
  V  V43  1  0.24795500  0.62480605  0.88024782  1
  V  V44  1  0.62701780  0.49844223  0.62841028  1
  V  V45  1  0.75034619  0.61681369  0.37143389  1
  V  V46  1  0.49506511  0.24444557  0.75482009  1
  V  V47  1  0.88221321  0.50479004  0.38808668  1
  V  V48  1  0.11966117  0.36660962  0.24929897  1
  V  V49  1  -0.00222622  0.88223706  0.37474395  1
  V  V50  1  0.74247368  0.14333714  0.37759408  1
  V  V51  1  0.60238825  0.26235813  0.36954536  1
  V  V52  1  0.85798023  0.00032628  0.37468352  1
  V  V53  1  0.36576906  0.75409469  0.62737702  1
  V  V54  1  0.37310346  0.00906052  0.87427744  1
  V  V55  1  0.49580339  0.86949502  0.36804877  1
  V  V56  1  0.49804788  0.87565578  0.87590378  1
  V  V57  1  0.74776590  0.88136023  0.62670314  1
  V  V58  1  0.62128540  0.62225615  0.49961546  1
  V  V59  1  0.63644224  0.75443100  0.87628163  1
  V  V60  1  0.63506007  0.88405331  0.24359710  1
  V  V61  1  0.13553563  0.87809327  0.74135646  1
  V  V62  1  0.09947152  0.50259528  0.12568913  1
  V  V63  1  0.00127018  0.00130940  0.00023428  1
  V  V64  1  0.74763074  0.74608878  0.49734499  1
  V  V65  1  0.37759018  0.00597543  0.37675550  1
  V  V66  1  0.81939229  0.57019293  0.19278610  1
  V  V67  1  0.12170256  0.26540084  0.86501445  1
  V  V68  1  0.87894830  0.87719884  0.49931945  1
  V  V69  1  0.10864577  0.62556252  0.00621509  1
  V  V70  1  0.50033608  0.37089319  0.87469133  1
  V  V71  1  0.24663462  0.75140909  0.50489476  1
  V  V72  1  0.25153208  0.49639276  0.23738581  1
  V  V73  1  0.61724485  -0.00144193  0.61356100  1
  V  V74  1  -0.00757450  0.73890190  0.24109124  1
  V  V75  1  0.24661165  0.38845643  0.63939531  1
  V  V76  1  0.86237428  0.75176804  0.12016556  1
  V  V77  1  0.74079947  0.36391346  0.61275338  1
  V  V78  1  0.49737968  0.62432509  0.62651419  1
  Zn  Zn79  1  0.12771813  0.49719843  0.64887174  1
  Zn  Zn80  1  0.37369780  0.49184481  0.37124152  1
  Zn  Zn81  1  0.25642758  0.00446193  0.74066957  1
  Zn  Zn82  1  0.75192067  0.61322922  0.85051036  1
  Zn  Zn83  1  0.05524599  0.18633150  0.19428539  1
  Zn  Zn84  1  0.25341703  0.16457448  0.36917762  1
  Zn  Zn85  1  -0.00416220  0.12024975  0.61708618  1
  Zn  Zn86  1  0.87806372  0.50844845  0.86734626  1
  Zn  Zn87  1  0.86331384  0.23554291  0.62536430  1
  Zn  Zn88  1  0.63293446  0.38581444  0.24222785  1
  Zn  Zn89  1  0.74689251  0.36976519  0.12478085  1
  Zn  Zn90  1  0.62826599  0.13765676  0.50410148  1
  Zn  Zn91  1  0.11482808  0.87760604  0.24785576  1
  Zn  Zn92  1  0.37646504  0.62908241  0.25453830  1
  Zn  Zn93  1  0.49324840  0.14329807  0.13189105  1
  Zn  Zn94  1  0.30032389  0.20163097  0.19313162  1
  Zn  Zn95  1  0.18074103  0.18000077  0.68583522  1
  Zn  Zn96  1  0.18369508  0.68523224  0.18704917  1
  Zn  Zn97  1  0.17441213  0.66985401  0.69932654  1
  Zn  Zn98  1  0.68858291  0.18293701  0.19062144  1
  Zn  Zn99  1  0.67346971  0.19315927  0.68702110  1
  Zn  Zn100  1  0.68084923  0.69533842  0.18234677  1
  Zn  Zn101  1  0.68372963  0.69156681  0.68741055  1
  Zn  Zn102  1  0.42308992  0.18745488  0.29189860  1
  Zn  Zn103  1  0.30839836  0.31010225  0.81475000  1
  Zn  Zn104  1  0.30608124  0.81540166  0.31535459  1
  Zn  Zn105  1  0.31043393  0.81061624  0.81553508  1
  Zn  Zn106  1  0.80623725  0.31916369  0.30789005  1
  Zn  Zn107  1  0.83434720  0.36394346  0.78057852  1
  Zn  Zn108  1  0.81185957  0.80885978  0.30927963  1
  Zn  Zn109  1  0.81447024  0.82506825  0.81313873  1
  Zn  Zn110  1  0.18780082  0.42985268  0.43960390  1
  Zn  Zn111  1  0.18105077  0.44436539  0.94266775  1
  Zn  Zn112  1  0.19308141  0.93228016  0.43278321  1
  Zn  Zn113  1  0.18664721  0.94062854  0.93621006  1
  Zn  Zn114  1  0.68442928  0.43526302  0.43490897  1
  Zn  Zn115  1  0.69857125  0.43421001  0.94168579  1
  Zn  Zn116  1  0.68292406  0.93282526  0.43594002  1
  Zn  Zn117  1  0.68333469  0.97003438  0.92700578  1
  Zn  Zn118  1  0.31204231  0.06938131  0.06397871  1
  Zn  Zn119  1  0.30011469  0.06893236  0.55301803  1
  Zn  Zn120  1  0.31488877  0.56297836  0.06219637  1
  Zn  Zn121  1  0.30978890  0.56395032  0.56148318  1
  Zn  Zn122  1  0.81524943  0.05143391  0.08107565  1
  Zn  Zn123  1  0.80870690  0.06206145  0.55827903  1
  Zn  Zn124  1  0.83299843  0.58205998  0.01772112  1
  Zn  Zn125  1  0.81391428  0.54864818  0.68520201  1
  Zn  Zn126  1  0.45691782  0.45045506  0.19613353  1
  Zn  Zn127  1  0.43519275  0.43475927  0.68499375  1
  Zn  Zn128  1  0.43836454  0.94263437  0.19590693  1
  Zn  Zn129  1  0.43500353  0.93728631  0.69031504  1
  Zn  Zn130  1  0.93173717  0.42445475  0.18984369  1
  Zn  Zn131  1  0.98000956  0.45391725  0.74336230  1
  Zn  Zn132  1  0.92641835  0.93918382  0.18856681  1
  Zn  Zn133  1  0.94674572  0.93849971  0.67940654  1
  Zn  Zn134  1  0.06867170  0.06524053  0.32715546  1
  Zn  Zn135  1  0.06065560  0.06647672  0.80728134  1
  Zn  Zn136  1  0.05887866  0.55997718  0.31044289  1
  Zn  Zn137  1  0.06675575  0.57256061  0.81676131  1
  Zn  Zn138  1  0.56449779  0.06314065  0.30759063  1
  Zn  Zn139  1  0.56165180  0.06714292  0.82148606  1
  Zn  Zn140  1  0.56304762  0.55827250  0.31053588  1
  Zn  Zn141  1  0.56067286  0.56212420  0.81576315  1
  Zn  Zn142  1  0.44004693  0.19029126  0.45541672  1
  Zn  Zn143  1  0.44399319  0.19214784  0.96163134  1
  Zn  Zn144  1  0.43484414  0.68543546  0.43957331  1
  Zn  Zn145  1  0.43615999  0.69276325  0.94023386  1
  Zn  Zn146  1  0.94014267  0.18228465  0.44347228  1
  Zn  Zn147  1  0.93885622  0.19067328  0.92741828  1
  Zn  Zn148  1  0.93545471  0.68847180  0.43856900  1
  Zn  Zn149  1  0.93418238  0.69553814  0.92734591  1
  Zn  Zn150  1  0.05474723  0.31472760  0.06387816  1
  Zn  Zn151  1  0.05789830  0.32280780  0.56910059  1
  Zn  Zn152  1  0.05839778  0.81331490  0.06357490  1
  Zn  Zn153  1  0.06405086  0.81159796  0.56305615  1
  Zn  Zn154  1  0.58342236  0.29172030  0.05938088  1
  Zn  Zn155  1  0.55341709  0.30809020  0.56003433  1
  Zn  Zn156  1  0.56420976  0.81453588  0.06135774  1
  Zn  Zn157  1  0.55751218  0.81122861  0.55997701  1
  O  O158  1  0.12024115  0.11711332  0.11735871  1
  O  O159  1  0.13000718  0.11737790  0.60381013  1
  O  O160  1  0.12375376  0.61499871  0.11687296  1
  O  O161  1  0.10620488  0.64034456  0.60908283  1
  O  O162  1  0.61865831  0.13861453  0.10847530  1
  O  O163  1  0.61815123  0.11396881  0.62610390  1
  O  O164  1  0.60557754  0.64073989  0.11150122  1
  O  O165  1  0.61753717  0.61789832  0.62011917  1
  O  O166  1  0.36652208  0.37373014  0.39475762  1
  O  O167  1  0.37915507  0.38584462  0.87392568  1
  O  O168  1  0.37898437  0.87467641  0.38275940  1
  O  O169  1  0.37518599  0.88079013  0.88580166  1
  O  O170  1  0.88210658  0.38566561  0.37711554  1
  O  O171  1  0.86470727  0.36550245  0.88938155  1
  O  O172  1  0.87700139  0.88207287  0.37895879  1
  O  O173  1  0.88916087  0.87763216  0.88652019  1
  O  O174  1  0.26068590  -0.00626022  0.36637748  1
  O  O175  1  0.25766930  0.01136217  0.88037521  1
  O  O176  1  0.24544647  0.51032842  0.36879109  1
  O  O177  1  0.25880396  0.51217848  0.88380525  1
  O  O178  1  0.75713527  -0.00147127  0.37435703  1
  O  O179  1  0.77496560  -0.01703372  0.86543923  1
  O  O180  1  0.75579237  0.51123867  0.37707180  1
  O  O181  1  0.75748947  0.50101439  0.87403381  1
  O  O182  1  0.24777677  0.50360381  0.13605610  1
  O  O183  1  0.25400492  0.49197413  0.63000492  1
  O  O184  1  0.24067291  0.99420571  0.13039636  1
  O  O185  1  0.23621429  1.00604920  0.62659964  1
  O  O186  1  0.76972952  0.51473878  0.12919242  1
  O  O187  1  0.73145543  0.48620841  0.62192882  1
  O  O188  1  0.81866147  0.97063332  0.15508394  1
  O  O189  1  0.73811069  0.98659734  0.61771356  1
  O  O190  1  0.00916140  0.38082416  0.26386123  1
  O  O191  1  0.02248740  0.35098037  0.73771447  1
  O  O192  1  -0.00447650  0.86617620  0.25884781  1
  O  O193  1  0.01167868  0.87117654  0.75411643  1
  O  O194  1  0.47270421  0.34122721  0.24611719  1
  O  O195  1  0.50158344  0.36848503  0.75644675  1
  O  O196  1  0.50325331  0.87313893  0.26347760  1
  O  O197  1  0.50678462  0.87065923  0.75529798  1
  O  O198  1  0.49458482  0.11890580  0.24295346  1
  O  O199  1  0.50545207  0.13438672  0.74636421  1
  O  O200  1  0.49692767  0.62623945  0.23253792  1
  O  O201  1  0.48974175  0.63183651  0.74825520  1
  O  O202  1  0.99043865  0.12488052  0.26657649  1
  O  O203  1  1.01643003  0.14504899  0.73878319  1
  O  O204  1  0.99677164  0.64059577  0.25580165  1
  O  O205  1  1.00313954  0.64600903  0.73351425  1
  O  O206  1  0.35433080  0.26847751  -0.00569201  1
  O  O207  1  0.37753582  0.26322918  0.51749178  1
  O  O208  1  0.36415485  0.76185631  0.00915088  1
  O  O209  1  0.36620766  0.75307385  0.50924696  1
  O  O210  1  0.87241237  0.23510294  0.01006276  1
  O  O211  1  0.87413347  0.26509177  0.49269314  1
  O  O212  1  0.87935839  0.76177718  0.00852346  1
  O  O213  1  0.86404644  0.75572800  0.50688451  1
  O  O214  1  0.12823176  0.25714121  0.50038743  1
  O  O215  1  0.12996010  0.24883531  0.99328604  1
  O  O216  1  0.12881268  0.74443220  0.48984043  1
  O  O217  1  0.13406310  0.73707278  1.01392210  1
  O  O218  1  0.61400182  0.25165497  0.48086557  1
  O  O219  1  0.64422257  0.22990490  0.97662911  1
  O  O220  1  0.63007392  0.74539159  0.49211948  1
  O  O221  1  0.61489255  0.74164876  0.98699651  1
  O  O222  1  0.48896209  0.23469980  0.06060873  1
  O  O223  1  0.48954626  0.24117000  0.63601038  1
  O  O224  1  0.48445470  0.74213744  0.11463584  1
  O  O225  1  0.48954278  0.74373679  0.62961895  1
  O  O226  1  0.98587818  0.24546801  0.12744557  1
  O  O227  1  0.99632180  0.24679419  0.62917278  1
  O  O228  1  0.99704028  0.75035153  0.13760138  1
  O  O229  1  0.98713839  0.75077535  0.62719813  1
  O  O230  1  -0.00360170  0.26640229  0.37613863  1
  O  O231  1  0.01538979  0.24564485  0.86087207  1
  O  O232  1  0.00180732  0.75569037  0.36613641  1
  O  O233  1  -0.00266338  0.76143770  0.86013452  1
  O  O234  1  0.49969098  0.24178409  0.37080173  1
  O  O235  1  0.48461585  0.26193008  0.86901499  1
  O  O236  1  0.50725635  0.75355842  0.38118496  1
  O  O237  1  0.50316627  0.75836385  0.86973973  1
  O  O238  1  0.23885592  0.13727719  0.48623320  1
  O  O239  1  0.23924518  0.13950237  0.99570804  1
  O  O240  1  0.24089856  0.63305774  0.49261271  1
  O  O241  1  0.25010680  0.63362307  0.99709499  1
  O  O242  1  0.74335251  0.11818836  0.48222350  1
  O  O243  1  0.74304490  0.10261421  1.01581186  1
  O  O244  1  0.73951034  0.63618349  0.48953575  1
  O  O245  1  0.72422720  0.62535182  1.01171810  1
  O  O246  1  0.25745477  0.37363239  0.00120475  1
  O  O247  1  0.26083974  0.37918240  0.51331504  1
  O  O248  1  0.25150120  0.86997000  0.00778630  1
  O  O249  1  0.25841469  0.85663488  0.49371321  1
  O  O250  1  0.76705053  0.37789584  0.01200220  1
  O  O251  1  0.75895092  0.37854532  0.50200667  1
  O  O252  1  0.76460551  0.88138335  -0.00509148  1
  O  O253  1  0.75487077  0.86401958  0.50392496  1
  O  O254  1  0.12880281  0.50522860  0.23605045  1
  O  O255  1  0.14584358  0.56130697  0.73926799  1
  O  O256  1  0.12776423  0.99794397  0.24388012  1
  O  O257  1  0.12956549  0.98839102  0.74530991  1
  O  O258  1  0.56025524  0.47127381  0.24357449  1
  O  O259  1  0.60955093  0.48994033  0.73829624  1
  O  O260  1  0.62404804  0.98367837  0.25450104  1
  O  O261  1  0.61973968  0.98753671  0.74320186  1
  O  O262  1  0.36427370  -0.00524791  0.26689694  1
  O  O263  1  0.37146109  -0.00642737  0.76851555  1
  O  O264  1  0.36109050  0.50070749  0.25236203  1
  O  O265  1  0.38060521  0.51266490  0.75843621  1
  O  O266  1  0.88564054  0.01198381  0.27598113  1
  O  O267  1  0.88812775  -0.00618258  0.75796061  1
  O  O268  1  0.87627408  0.50827719  0.25279860  1
  O  O269  1  0.86712815  0.47088453  0.74646093  1
  O  O270  1  0.11061025  0.38392934  0.36636195  1
  O  O271  1  0.13026309  0.36429148  0.88016108  1
  O  O272  1  0.11678482  0.86231625  0.37455354  1
  O  O273  1  0.11930306  0.88042642  0.86190673  1
  O  O274  1  0.61883886  0.36592905  0.37053116  1
  O  O275  1  0.60829919  0.38582747  0.86784527  1
  O  O276  1  0.61406070  0.86539016  0.37158988  1
  O  O277  1  0.61930078  0.87304952  0.86695144  1
  O  O278  1  0.37048775  0.13826117  0.12808603  1
  O  O279  1  0.37634304  0.13749287  0.61849752  1
  O  O280  1  0.37987794  0.63711859  0.12516135  1
  O  O281  1  0.37672678  0.63294523  0.63441648  1
  O  O282  1  0.87792081  0.13157823  0.14886351  1
  O  O283  1  0.88159044  0.12686806  0.60792192  1
  O  O284  1  0.87003362  0.63684031  0.12183805  1
  O  O285  1  0.88611587  0.63435481  0.62313698  1
  O  O286  1  0.24017571  0.25546900  0.11000991  1
  O  O287  1  0.25969301  0.25406670  0.63284944  1
  O  O288  1  0.25312551  0.75867329  0.11993028  1
  O  O289  1  0.25762660  0.73768724  0.61729888  1
  O  O290  1  0.77496831  0.24407153  0.13891579  1
  O  O291  1  0.74325321  0.25868154  0.62188132  1
  O  O292  1  0.76360413  0.75319782  0.12662967  1
  O  O293  1  0.75328052  0.75840658  0.61453682  1
  O  O294  1  0.31923414  0.22987371  0.30224570  1
  O  O295  1  0.24069455  0.24584349  0.88515352  1
  O  O296  1  0.23785549  0.74076425  0.37923790  1
  O  O297  1  0.25513712  0.74143131  0.89111052  1
  O  O298  1  0.74495652  0.24439307  0.37949832  1
  O  O299  1  0.75140319  0.19718333  0.83926326  1
  O  O300  1  0.74375948  0.74011923  0.38033260  1
  O  O301  1  0.73732673  0.75498335  0.86819839  1
  O  O302  1  0.01145030  0.11256571  -0.00908276  1
  O  O303  1  0.02560695  0.13024959  0.49502307  1
  O  O304  1  0.01187319  0.63604044  -0.00314072  1
  O  O305  1  0.00243877  0.62823505  0.51017954  1
  O  O306  1  0.51792111  0.09978230  -0.00633450  1
  O  O307  1  0.50586344  0.12574563  0.52182273  1
  O  O308  1  0.50198374  0.62195766  0.00242060  1
  O  O309  1  0.50225008  0.61863662  0.50801392  1
  O  O310  1  0.48197791  0.38540526  0.51113098  1
  O  O311  1  0.48466939  0.38588836  0.99045817  1
  O  O312  1  0.48527885  0.86927333  0.49056001  1
  O  O313  1  0.48552488  0.87808368  0.99743768  1
  O  O314  1  0.98657365  0.37783836  0.48920966  1
  O  O315  1  0.97925449  0.35851780  0.99606731  1
  O  O316  1  0.98537933  0.86044434  0.49008595  1
  O  O317  1  1.00830186  0.88374930  0.98842145  1
  O  O318  1  0.49082416  0.51068083  0.39309672  1
  O  O319  1  0.48698340  0.49551033  0.88138941  1
  O  O320  1  0.48252959  0.98765200  0.37447654  1
  O  O321  1  0.48959123  0.99149868  0.88593079  1
  O  O322  1  0.98541057  0.49949245  0.37396209  1
  O  O323  1  0.99149757  0.50058393  0.84827426  1
  O  O324  1  1.00148578  0.98412035  0.37962062  1
  O  O325  1  0.99715725  0.99126936  0.88060442  1
  O  O326  1  0.01085016  -0.01007064  0.11509147  1
  O  O327  1  0.02228348  0.00378990  0.62547294  1
  O  O328  1  0.00193358  0.50520774  0.13221386  1
  O  O329  1  0.00398399  0.51824490  0.63726905  1
  O  O330  1  0.48664802  0.00088706  0.11253971  1
  O  O331  1  0.50410109  0.00879991  0.63437864  1
  O  O332  1  0.48480285  0.52304851  0.10781293  1
  O  O333  1  0.50383662  0.50550395  0.61793676  1
  O  O334  1  0.22722418  0.39624461  0.25554653  1
  O  O335  1  0.25372480  0.37686463  0.73883977  1
  O  O336  1  0.24350129  0.88121636  0.24024240  1
  O  O337  1  0.23783113  0.87343736  0.75380609  1
  O  O338  1  0.74828761  0.38534782  0.24132107  1
  O  O339  1  0.72844518  0.36778535  0.73478298  1
  O  O340  1  0.73388439  0.86981679  0.25909612  1
  O  O341  1  0.73863122  0.86751829  0.73494165  1
  O  O342  1  0.23966566  0.10771442  0.24921730  1
  O  O343  1  0.24658764  0.12449402  0.76804345  1
  O  O344  1  0.24683186  0.61529010  0.25706290  1
  O  O345  1  0.26820614  0.64522105  0.76779430  1
  O  O346  1  0.76589426  0.12596681  0.27076301  1
  O  O347  1  0.74814701  0.15315121  0.77964426  1
  O  O348  1  0.74899875  0.62466812  0.25285517  1
  O  O349  1  0.75864663  0.63029506  0.73929629  1
  O  O350  1  0.37928892  0.10737090  0.39142329  1
  O  O351  1  0.36774274  0.11803237  0.89440208  1
  O  O352  1  0.36034731  0.62554745  0.37381800  1
  O  O353  1  0.37037479  0.61830442  0.87340104  1
  O  O354  1  0.86535850  0.11486107  0.38126936  1
  O  O355  1  0.88262506  0.10582552  0.87544581  1
  O  O356  1  0.86525515  0.61508569  0.38101808  1
  O  O357  1  0.85530329  0.62069011  0.90768372  1
  O  O358  1  0.11168367  0.39101307  0.13741583  1
  O  O359  1  0.14110379  0.38375878  0.62068993  1
  O  O360  1  0.13304598  0.88428435  0.12338324  1
  O  O361  1  0.12390330  0.88521624  0.63204288  1
  O  O362  1  0.63048307  0.36417601  0.12532119  1
  O  O363  1  0.62226946  0.37950861  0.62769971  1
  O  O364  1  0.61910350  0.86020249  0.14617176  1
  O  O365  1  0.62630830  0.87854252  0.62956261  1
  O  O366  1  0.12670792  0.26821291  0.24166372  1
  O  O367  1  0.13695249  0.25103776  0.76522488  1
  O  O368  1  0.11333765  0.75070377  0.25698362  1
  O  O369  1  0.11562866  0.76633685  0.73762420  1
  O  O370  1  0.62679653  0.24748403  0.26926856  1
  O  O371  1  0.60583247  0.26320451  0.74855199  1
  O  O372  1  0.62480420  0.75233521  0.26480064  1
  O  O373  1  0.61686237  0.76005153  0.75607142  1
  O  O374  1  0.44880132  0.28159126  0.20615434  1
  O  O375  1  0.38134431  0.25363554  0.73876584  1
  O  O376  1  0.36522742  0.75157215  0.23818764  1
  O  O377  1  0.38058489  0.74762213  0.74479551  1
  O  O378  1  0.88011685  0.23763306  0.26531069  1
  O  O379  1  0.88753337  0.26227145  0.74557205  1
  O  O380  1  0.88256934  0.75405733  0.23539616  1
  O  O381  1  0.88380089  0.76549682  0.73716431  1
  O  O382  1  0.37782725  0.49095011  0.50272885  1
  O  O383  1  0.37665585  0.49163080  0.99093291  1
  O  O384  1  0.35990030  0.98520484  0.48945570  1
  O  O385  1  0.37431563  0.99029571  0.99569249  1
  O  O386  1  0.87426812  0.48836471  0.48614603  1
  O  O387  1  0.89015527  0.48631414  0.99777303  1
  O  O388  1  0.87028779  0.98485860  0.48916539  1
  O  O389  1  0.88857779  0.98646536  0.99694712  1
  O  O390  1  0.12220674  0.00915198  0.00765913  1
  O  O391  1  0.12949045  -0.00945258  0.50584802  1
  O  O392  1  0.12210404  0.51085105  0.01643580  1
  O  O393  1  0.13027445  0.51372950  0.50387007  1
  O  O394  1  0.60908918  -0.02986310  0.01584066  1
  O  O395  1  0.61982298  -0.00529303  0.51177768  1
  O  O396  1  0.60935764  0.51646525  -0.01001073  1
  O  O397  1  0.61430129  0.50224628  0.50692935  1
  O  O398  1  0.38156481  0.38708684  0.11293455  1
  O  O399  1  0.36324664  0.36573693  0.62378395  1
  O  O400  1  0.36349051  0.87323133  0.12023468  1
  O  O401  1  0.37850667  0.86313935  0.61896202  1
  O  O402  1  0.87601612  0.35766206  0.11619297  1
  O  O403  1  0.86049115  0.36909805  0.60850143  1
  O  O404  1  0.88483552  0.85973291  0.10806838  1
  O  O405  1  0.86702837  0.87100022  0.61664599  1
  O  O406  1  0.13418852  0.14150168  0.38058569  1
  O  O407  1  0.13346989  0.13077785  0.88604646  1
  O  O408  1  0.12651307  0.63165995  0.38070159  1
  O  O409  1  0.13706577  0.62084416  0.89869531  1
  O  O410  1  0.63363025  0.13170228  0.37449025  1
  O  O411  1  0.63836636  0.08076255  0.90259576  1
  O  O412  1  0.62933002  0.62752821  0.37658469  1
  O  O413  1  0.62526278  0.63541281  0.88146386  1
