# generated using pymatgen
data_V79Zn79O256
_symmetry_space_group_name_H-M   'P 1'
_cell_length_a   16.90664469
_cell_length_b   16.88861975
_cell_length_c   16.90106874
_cell_angle_alpha   89.98308670
_cell_angle_beta   90.05451967
_cell_angle_gamma   90.03406475
_symmetry_Int_Tables_number   1
_chemical_formula_structural   V79Zn79O256
_chemical_formula_sum   'V79 Zn79 O256'
_cell_volume   4825.75710975
_cell_formula_units_Z   1
loop_
 _symmetry_equiv_pos_site_id
 _symmetry_equiv_pos_as_xyz
  1  'x, y, z'
loop_
 _atom_site_type_symbol
 _atom_site_label
 _atom_site_symmetry_multiplicity
 _atom_site_fract_x
 _atom_site_fract_y
 _atom_site_fract_z
 _atom_site_occupancy
  V  V0  1  -0.00654233  0.88427884  0.87914283  1
  V  V1  1  0.12796064  0.74548164  0.38645053  1
  V  V2  1  0.51063230  0.51088772  0.00286896  1
  V  V3  1  0.75483373  0.24636175  0.00747298  1
  V  V4  1  0.50531737  0.13226123  0.63090056  1
  V  V5  1  0.25287717  0.00108465  0.25677638  1
  V  V6  1  0.11840574  0.25392381  0.37291651  1
  V  V7  1  -0.00329252  0.73808414  0.24370300  1
  V  V8  1  0.75187587  0.75097248  0.49902325  1
  V  V9  1  0.25560268  0.50948505  0.24811803  1
  V  V10  1  0.85732194  0.62209864  0.74762652  1
  V  V11  1  0.49949932  0.00319552  0.00854120  1
  V  V12  1  0.36604372  0.00816114  0.87379867  1
  V  V13  1  -0.00324423  0.88200277  0.37479510  1
  V  V14  1  0.62152988  0.00353257  0.62160172  1
  V  V15  1  0.37445610  0.86606279  0.49329629  1
  V  V16  1  0.37547382  0.50732683  0.37135702  1
  V  V17  1  -0.01068930  0.12221552  0.11522306  1
  V  V18  1  0.62691439  0.73818185  0.87759554  1
  V  V19  1  0.62635658  0.88398467  0.74975664  1
  V  V20  1  0.37809254  0.25312985  0.63090821  1
  V  V21  1  0.37323951  0.87347183  -0.00136288  1
  V  V22  1  0.25172476  0.37921266  0.12754109  1
  V  V23  1  0.86969281  0.11111327  0.75863216  1
  V  V24  1  0.24886169  0.87368433  0.12425825  1
  V  V25  1  0.25101592  0.74940371  -0.00215214  1
  V  V26  1  0.49049469  0.00351168  0.48970034  1
  V  V27  1  0.61628021  0.26039925  0.86804698  1
  V  V28  1  0.25324142  0.13279057  0.37663559  1
  V  V29  1  0.11344655  0.62235893  -0.00081886  1
  V  V30  1  0.87845079  0.73564779  0.11963883  1
  V  V31  1  0.37809303  0.12387143  0.25341613  1
  V  V32  1  0.62762312  0.62614642  0.50336527  1
  V  V33  1  0.12261041  0.87471879  0.24959656  1
  V  V34  1  0.25266213  0.85958544  0.62232292  1
  V  V35  1  0.12911210  0.37863502  0.75098568  1
  V  V36  1  0.74493013  0.40473418  0.65164525  1
  V  V37  1  0.12142064  0.50563235  0.62035560  1
  V  V38  1  0.76252128  0.25483298  0.50202919  1
  V  V39  1  0.25021414  0.37656915  0.62660048  1
  V  V40  1  0.37268008  0.37081896  0.49983941  1
  V  V41  1  0.51063809  0.62633831  0.13646515  1
  V  V42  1  0.74388832  0.38956242  0.12652619  1
  V  V43  1  0.37618048  0.74157150  0.14048086  1
  V  V44  1  0.37650203  0.49923249  0.87469229  1
  V  V45  1  0.62646719  0.24779945  0.38144923  1
  V  V46  1  0.87656434  0.88333327  0.49672266  1
  V  V47  1  0.50528955  0.50162990  0.50248716  1
  V  V48  1  0.88050639  0.38025806  0.00407191  1
  V  V49  1  0.24708849  0.62695352  0.38847109  1
  V  V50  1  0.38300364  0.37695472  -0.00313425  1
  V  V51  1  0.74543957  0.87341953  0.13001112  1
  V  V52  1  0.86946852  0.50554594  0.87399277  1
  V  V53  1  0.50126409  0.37562345  0.37407853  1
  V  V54  1  -0.00864244  0.12225341  0.62539221  1
  V  V55  1  0.73761620  0.11512832  0.37857354  1
  V  V56  1  0.49254362  0.75509123  0.74281572  1
  V  V57  1  0.00121334  0.74297498  0.74863605  1
  V  V58  1  0.62153194  0.12295409  0.00739677  1
  V  V59  1  0.75155552  0.88259209  0.62844399  1
  V  V60  1  0.37206197  0.62573817  0.74676387  1
  V  V61  1  0.88051262  0.11569086  0.26873958  1
  V  V62  1  0.12433815  0.75227597  0.87143641  1
  V  V63  1  0.61624968  0.76021299  0.36304877  1
  V  V64  1  0.13596524  0.12492297  0.50940973  1
  V  V65  1  0.12827673  0.12710379  -0.00391093  1
  V  V66  1  0.38007209  0.24669723  0.12664517  1
  V  V67  1  0.11275045  0.50621614  0.12019672  1
  V  V68  1  0.11978421  -0.00000123  0.11830553  1
  V  V69  1  -0.00505791  0.49644572  0.48322813  1
  V  V70  1  0.76070490  0.61539187  0.36322502  1
  V  V71  1  0.49876194  0.87933071  0.87388600  1
  V  V72  1  0.49593301  0.63049877  0.62105935  1
  V  V73  1  0.24614859  0.01373732  0.74051918  1
  V  V74  1  0.24897189  0.61949742  0.87055956  1
  V  V75  1  0.24896502  0.24773153  -0.00476199  1
  V  V76  1  0.50363339  0.24311021  0.24742009  1
  V  V77  1  0.62655757  0.38658203  0.24636834  1
  V  V78  1  -0.01260411  0.25859836  0.74671532  1
  Zn  Zn79  1  0.74527018  0.73922404  -0.00164699  1
  Zn  Zn80  1  0.87060845  0.88063056  -0.00417021  1
  Zn  Zn81  1  0.12696475  0.24976949  0.87255458  1
  Zn  Zn82  1  0.74816542  -0.01369249  0.26134473  1
  Zn  Zn83  1  0.00061295  0.62668830  0.61458400  1
  Zn  Zn84  1  0.11837285  0.38085345  0.26018167  1
  Zn  Zn85  1  0.87940087  0.37602612  0.51327424  1
  Zn  Zn86  1  0.87700857  0.74997918  0.62546973  1
  Zn  Zn87  1  0.00526352  -0.00226342  0.50714959  1
  Zn  Zn88  1  0.00606358  0.37897995  0.88771180  1
  Zn  Zn89  1  0.37479501  0.13728311  0.75858447  1
  Zn  Zn90  1  -0.01167543  0.25507233  0.24904567  1
  Zn  Zn91  1  0.12081820  0.88641925  0.73746919  1
  Zn  Zn92  1  0.61667680  -0.00309160  0.13994194  1
  Zn  Zn93  1  0.75131665  0.11852789  0.87386386  1
  Zn  Zn94  1  0.18718994  0.18698963  0.18547174  1
  Zn  Zn95  1  0.18935731  0.19705645  0.68690508  1
  Zn  Zn96  1  0.18752245  0.68646186  0.18879731  1
  Zn  Zn97  1  0.18830331  0.68718890  0.68571298  1
  Zn  Zn98  1  0.69080083  0.18383809  0.19117802  1
  Zn  Zn99  1  0.69114762  0.19381601  0.68809617  1
  Zn  Zn100  1  0.69276027  0.68566449  0.18720153  1
  Zn  Zn101  1  0.68050947  0.69531370  0.68571913  1
  Zn  Zn102  1  0.30992463  0.31529717  0.31271832  1
  Zn  Zn103  1  0.31302511  0.31663872  0.81205277  1
  Zn  Zn104  1  0.31294503  0.81438861  0.31768228  1
  Zn  Zn105  1  0.30900842  0.81729060  0.80793293  1
  Zn  Zn106  1  0.80653340  0.29838020  0.30002177  1
  Zn  Zn107  1  0.80305384  0.31441986  0.82111131  1
  Zn  Zn108  1  0.81406707  0.80304102  0.31308321  1
  Zn  Zn109  1  0.81113265  0.81125411  0.81047295  1
  Zn  Zn110  1  0.18779080  0.43919443  0.44129863  1
  Zn  Zn111  1  0.18990809  0.43640122  0.94035450  1
  Zn  Zn112  1  0.18871938  0.93943879  0.44303427  1
  Zn  Zn113  1  0.18489725  0.93834272  0.93314940  1
  Zn  Zn114  1  0.68977355  0.43576014  0.43603497  1
  Zn  Zn115  1  0.68919529  0.43804681  0.93400985  1
  Zn  Zn116  1  0.68331356  0.93728160  0.44638181  1
  Zn  Zn117  1  0.68629953  0.92850986  0.94915144  1
  Zn  Zn118  1  0.31086025  0.06145673  0.06508033  1
  Zn  Zn119  1  0.31825677  0.06308526  0.56436851  1
  Zn  Zn120  1  0.31290834  0.56560759  0.05825711  1
  Zn  Zn121  1  0.31186072  0.55879592  0.56452929  1
  Zn  Zn122  1  0.80704848  0.05565478  0.05900506  1
  Zn  Zn123  1  0.81180450  0.06667895  0.56151302  1
  Zn  Zn124  1  0.80863820  0.56393033  0.05830037  1
  Zn  Zn125  1  0.81594033  0.55776595  0.55984711  1
  Zn  Zn126  1  0.44258679  0.43900370  0.18556405  1
  Zn  Zn127  1  0.43733706  0.44452095  0.68500441  1
  Zn  Zn128  1  0.43216593  0.93225488  0.19073859  1
  Zn  Zn129  1  0.43021319  0.94284905  0.68236522  1
  Zn  Zn130  1  0.93730743  0.42983119  0.18463084  1
  Zn  Zn131  1  0.93161929  0.43980810  0.68314729  1
  Zn  Zn132  1  0.92990757  0.93572419  0.18607760  1
  Zn  Zn133  1  0.93980335  0.93648148  0.69075038  1
  Zn  Zn134  1  0.06723169  0.06518837  0.31328451  1
  Zn  Zn135  1  0.06169242  0.06707036  0.81073139  1
  Zn  Zn136  1  0.06671880  0.56155377  0.30969546  1
  Zn  Zn137  1  0.05490923  0.55654391  0.81410385  1
  Zn  Zn138  1  0.56434221  -0.06027460  0.30825381  1
  Zn  Zn139  1  0.56202736  0.07131835  0.81611931  1
  Zn  Zn140  1  0.56777331  0.57207130  0.31728707  1
  Zn  Zn141  1  0.55453862  0.55967874  0.81130696  1
  Zn  Zn142  1  0.44242505  0.18490561  0.43968761  1
  Zn  Zn143  1  0.44039559  0.18852980  0.93962367  1
  Zn  Zn144  1  0.43593559  0.69077958  0.43159440  1
  Zn  Zn145  1  0.44052199  0.68860013  0.93770031  1
  Zn  Zn146  1  0.94218995  0.18885139  0.43923610  1
  Zn  Zn147  1  0.94091636  0.19160162  0.93508930  1
  Zn  Zn148  1  0.94060893  0.68538438  0.43687832  1
  Zn  Zn149  1  0.93342017  0.68817181  0.93276771  1
  Zn  Zn150  1  0.05874279  0.31394130  0.08617399  1
  Zn  Zn151  1  0.06197625  0.31051769  0.56085709  1
  Zn  Zn152  1  0.05932471  0.81171966  0.05812780  1
  Zn  Zn153  1  0.06507718  0.81536948  0.56574392  1
  Zn  Zn154  1  0.56607370  0.31327092  0.05894913  1
  Zn  Zn155  1  0.57071294  0.31631959  0.56704424  1
  Zn  Zn156  1  0.55949478  0.80851189  0.06588342  1
  Zn  Zn157  1  0.56017753  0.81685801  0.55596063  1
  O  O158  1  0.11980109  0.11578977  0.11877182  1
  O  O159  1  0.12338551  0.13349309  0.61222096  1
  O  O160  1  0.13327163  0.61372819  0.11519581  1
  O  O161  1  0.12778923  0.60823171  0.63014539  1
  O  O162  1  0.63291663  0.11945879  0.11201316  1
  O  O163  1  0.61380192  0.11854577  0.63183273  1
  O  O164  1  0.60887488  0.63868562  0.12443167  1
  O  O165  1  0.61167540  0.63324593  0.61349362  1
  O  O166  1  0.37982872  0.38171062  0.38237426  1
  O  O167  1  0.37039635  0.38635152  0.88457303  1
  O  O168  1  0.36439149  0.88012024  0.39253813  1
  O  O169  1  0.38228537  0.88176120  0.87780260  1
  O  O170  1  0.88168702  0.38895935  0.33583349  1
  O  O171  1  0.87398181  0.38182783  0.89060202  1
  O  O172  1  0.88560945  0.86584963  0.38425026  1
  O  O173  1  0.89042739  0.86396066  0.87335663  1
  O  O174  1  0.24077658  0.01120742  0.36235081  1
  O  O175  1  0.26032369  -0.00858785  0.86386695  1
  O  O176  1  0.25449586  0.50636632  0.36877343  1
  O  O177  1  0.25993881  0.51141743  0.88028636  1
  O  O178  1  0.74449844  0.01187163  0.38406261  1
  O  O179  1  0.77286669  -0.00061139  0.90831734  1
  O  O180  1  0.74957024  0.51747653  0.38679522  1
  O  O181  1  0.76865152  0.49718307  0.87922735  1
  O  O182  1  0.25642369  0.49557949  0.13291144  1
  O  O183  1  0.23726419  0.48912049  0.62143607  1
  O  O184  1  0.24133032  0.99406574  0.13524299  1
  O  O185  1  0.25397542  1.00116616  0.63862423  1
  O  O186  1  0.74763255  0.48861060  0.12381888  1
  O  O187  1  0.74104845  0.50426076  0.62845396  1
  O  O188  1  0.74689203  0.97999415  0.12048920  1
  O  O189  1  0.73845198  0.99132342  0.61492384  1
  O  O190  1  0.01998735  0.35708665  0.20796113  1
  O  O191  1  0.00505704  0.36458253  0.74145541  1
  O  O192  1  0.00818338  0.87137875  0.25545722  1
  O  O193  1  0.00362297  0.86241337  0.75598471  1
  O  O194  1  0.50618450  0.36559554  0.25388885  1
  O  O195  1  0.53370205  0.40710851  0.74600373  1
  O  O196  1  0.50064320  0.87169711  0.24864918  1
  O  O197  1  0.50175424  0.87279046  0.75403213  1
  O  O198  1  0.48853298  0.13938607  0.25217404  1
  O  O199  1  0.49352141  0.12059522  0.73497304  1
  O  O200  1  0.49966726  0.61674020  0.23629169  1
  O  O201  1  0.49308991  0.63433815  0.73982609  1
  O  O202  1  0.98833610  0.11572766  0.24381380  1
  O  O203  1  0.99257046  0.13532323  0.74395005  1
  O  O204  1  1.00576298  0.63948106  0.25114594  1
  O  O205  1  0.99647197  0.63508920  0.74866655  1
  O  O206  1  0.37149926  0.25621755  0.00789179  1
  O  O207  1  0.38642322  0.26494225  0.50948822  1
  O  O208  1  0.36789972  0.75622498  0.00039294  1
  O  O209  1  0.38204619  0.76528474  0.49912499  1
  O  O210  1  0.86019040  0.25950733  -0.00536446  1
  O  O211  1  0.86755950  0.25824389  0.48848700  1
  O  O212  1  0.88112065  0.75010092  0.01316413  1
  O  O213  1  0.86713311  0.75898413  0.50366636  1
  O  O214  1  0.11938632  0.23589558  0.48723341  1
  O  O215  1  0.13425121  0.24540214  1.00654595  1
  O  O216  1  0.11950490  0.75124634  0.48432094  1
  O  O217  1  0.13070628  0.74302538  0.99148821  1
  O  O218  1  0.63441447  0.25548319  0.48533043  1
  O  O219  1  0.63053830  0.24123059  0.99577977  1
  O  O220  1  0.63306962  0.74638408  0.49543880  1
  O  O221  1  0.61354413  0.75135183  0.97917785  1
  O  O222  1  0.48926350  0.25788723  0.13312378  1
  O  O223  1  0.49906103  0.23946811  0.61951418  1
  O  O224  1  0.48367354  0.73940440  0.12047421  1
  O  O225  1  0.50192161  0.74530485  0.63305955  1
  O  O226  1  1.00545206  0.22243732  0.13179300  1
  O  O227  1  1.00513488  0.23804967  0.63812489  1
  O  O228  1  0.99390044  0.75393900  0.13489189  1
  O  O229  1  1.00075345  0.74732364  0.63413834  1
  O  O230  1  0.01370210  0.24615828  0.36853156  1
  O  O231  1  0.00475985  0.25731065  0.86068410  1
  O  O232  1  0.01122003  0.75656892  0.36285934  1
  O  O233  1  0.00930129  0.75353607  0.86705781  1
  O  O234  1  0.50700231  0.25491811  0.36868455  1
  O  O235  1  0.51487289  0.24584074  0.87925382  1
  O  O236  1  0.51715616  0.74443914  0.37538848  1
  O  O237  1  0.50439138  0.76108820  0.86471656  1
  O  O238  1  0.24258569  0.12101428  0.49369526  1
  O  O239  1  0.24211350  0.13711741  1.01015096  1
  O  O240  1  0.25011053  0.61921151  0.48818149  1
  O  O241  1  0.24335834  0.63108301  0.98736103  1
  O  O242  1  0.76233189  0.13640880  0.48284989  1
  O  O243  1  0.74518744  0.13727858  1.00143825  1
  O  O244  1  0.74357094  0.63599406  0.50275956  1
  O  O245  1  0.74642811  0.62930208  0.99660587  1
  O  O246  1  0.26271382  0.36981067  0.00845692  1
  O  O247  1  0.26529008  0.38212229  0.50856938  1
  O  O248  1  0.25206796  0.86915908  0.00418830  1
  O  O249  1  0.26004450  0.88254134  0.51189950  1
  O  O250  1  0.75221609  0.36751131  0.01175798  1
  O  O251  1  0.75640755  0.36145887  0.49126224  1
  O  O252  1  0.75152507  0.85569756  0.01140539  1
  O  O253  1  0.75783161  0.86962692  0.50681864  1
  O  O254  1  0.13520497  0.50013595  0.23486174  1
  O  O255  1  0.11572421  0.48638229  0.73789922  1
  O  O256  1  0.13213773  0.99181775  0.24200790  1
  O  O257  1  0.14223438  1.00253632  0.75797645  1
  O  O258  1  0.61875939  0.48504686  0.25847398  1
  O  O259  1  0.58694334  0.46407100  0.74946449  1
  O  O260  1  0.63601372  1.00432536  0.25045020  1
  O  O261  1  0.61695103  0.99077623  0.74136023  1
  O  O262  1  0.36295955  0.01174142  0.24068426  1
  O  O263  1  0.36408351  0.00393464  0.75785574  1
  O  O264  1  0.36839951  0.49090802  0.26254940  1
  O  O265  1  0.38454714  0.51342035  0.76156983  1
  O  O266  1  0.86469897  0.01190333  0.24552808  1
  O  O267  1  0.87701767  0.01166656  0.75121615  1
  O  O268  1  0.88171978  0.45188187  0.28978778  1
  O  O269  1  0.87536965  0.51379643  0.75851845  1
  O  O270  1  0.13562407  0.35845614  0.37681578  1
  O  O271  1  0.12474859  0.37692804  0.86648046  1
  O  O272  1  0.12194632  0.86484699  0.36789541  1
  O  O273  1  0.11724208  0.86329704  0.87291024  1
  O  O274  1  0.62093527  0.36700908  0.36657227  1
  O  O275  1  0.62569840  0.36019115  0.88281121  1
  O  O276  1  0.62741242  0.86505988  0.37868299  1
  O  O277  1  0.61360746  0.87709315  0.86648573  1
  O  O278  1  0.36643529  0.13875730  0.13643866  1
  O  O279  1  0.38409359  0.13911082  0.62527742  1
  O  O280  1  0.37335867  0.63879018  0.12433696  1
  O  O281  1  0.38173034  0.62086603  0.63423772  1
  O  O282  1  0.88805720  0.11157642  0.11840161  1
  O  O283  1  0.88641333  0.12401403  0.63457867  1
  O  O284  1  0.87549234  0.63625748  0.12419136  1
  O  O285  1  0.87775517  0.62525169  0.63871004  1
  O  O286  1  0.25806083  0.26101400  0.12096596  1
  O  O287  1  0.26298565  0.26473690  0.62405933  1
  O  O288  1  0.25736271  0.75296225  0.11977012  1
  O  O289  1  0.25272874  0.75928926  0.62633510  1
  O  O290  1  0.74469354  0.25411241  0.11165844  1
  O  O291  1  0.75001766  0.23701790  0.60038499  1
  O  O292  1  0.76764859  0.75353678  0.12969644  1
  O  O293  1  0.74758103  0.76396334  0.61546542  1
  O  O294  1  0.24363615  0.23887814  0.37255982  1
  O  O295  1  0.25053570  0.25622069  0.89097120  1
  O  O296  1  0.23566066  0.74277946  0.36885299  1
  O  O297  1  0.24150008  0.74436819  0.87660915  1
  O  O298  1  0.74367347  0.24179133  0.37975163  1
  O  O299  1  0.73936454  0.24750683  0.89161254  1
  O  O300  1  0.74223711  0.74481145  0.38586774  1
  O  O301  1  0.72901790  0.75804901  0.87105219  1
  O  O302  1  0.00811959  0.12736437  0.00946189  1
  O  O303  1  0.00378424  0.12512602  0.51547274  1
  O  O304  1  0.01472900  0.62896366  -0.00741846  1
  O  O305  1  -0.00261055  0.60751651  0.49935129  1
  O  O306  1  0.50734702  0.11334713  -0.00169909  1
  O  O307  1  0.49514547  0.11386274  0.51394898  1
  O  O308  1  0.49515579  0.61620281  0.00918186  1
  O  O309  1  0.50517049  0.62252453  0.50353111  1
  O  O310  1  0.49769528  0.38453581  0.49624486  1
  O  O311  1  0.48773486  0.38930186  1.01186947  1
  O  O312  1  0.48467584  0.88955030  0.50991712  1
  O  O313  1  0.49423852  0.88141681  0.99035124  1
  O  O314  1  0.99669307  0.38736685  0.50715123  1
  O  O315  1  0.98283309  0.36171054  1.00909430  1
  O  O316  1  0.99393044  0.87512733  0.49375898  1
  O  O317  1  0.99929786  0.87493879  0.98399619  1
  O  O318  1  0.49236192  0.49826390  0.38135118  1
  O  O319  1  0.48615695  0.50963055  0.89146855  1
  O  O320  1  0.50812760  1.00332029  0.39240399  1
  O  O321  1  0.49034402  0.99240959  0.87994972  1
  O  O322  1  1.01520868  0.49430746  0.38420403  1
  O  O323  1  0.98203946  0.49138686  0.87246965  1
  O  O324  1  1.00929741  0.98432741  0.37583542  1
  O  O325  1  1.00491676  0.98230737  0.86434298  1
  O  O326  1  0.01244626  0.00570593  0.12930786  1
  O  O327  1  0.00513820  0.01759972  0.63194853  1
  O  O328  1  0.01457364  0.50228474  0.12886523  1
  O  O329  1  0.01156653  0.50150536  0.62155353  1
  O  O330  1  0.49688604  -0.00853540  0.11099609  1
  O  O331  1  0.50333509  0.01190074  0.62093124  1
  O  O332  1  0.49311342  0.51454890  0.11451996  1
  O  O333  1  0.49509866  0.51447970  0.61064173  1
  O  O334  1  0.24606433  0.38532605  0.24170260  1
  O  O335  1  0.24109757  0.37430139  0.74112721  1
  O  O336  1  0.24142262  0.88146029  0.24677704  1
  O  O337  1  0.24872591  0.88328968  0.73592472  1
  O  O338  1  0.74090220  0.36647014  0.23366737  1
  O  O339  1  0.74999540  0.38656571  0.75161723  1
  O  O340  1  0.76125348  0.87014006  0.23586413  1
  O  O341  1  0.73947349  0.87132235  0.73896977  1
  O  O342  1  0.25656377  0.12004927  0.25652616  1
  O  O343  1  0.25348264  0.11894264  0.74617137  1
  O  O344  1  0.24679316  0.61396747  0.25930206  1
  O  O345  1  0.25996757  0.63147908  0.75990480  1
  O  O346  1  0.76035817  0.12573265  0.26782629  1
  O  O347  1  0.76708377  0.12852312  0.74940418  1
  O  O348  1  0.74512828  0.61983801  0.26386966  1
  O  O349  1  0.75888310  0.63436036  0.74590525  1
  O  O350  1  0.36723007  0.13343285  0.36439268  1
  O  O351  1  0.37927229  0.11351211  0.87567560  1
  O  O352  1  0.36696010  0.61413426  0.37883068  1
  O  O353  1  0.36791853  0.62081190  0.86897949  1
  O  O354  1  0.87793304  0.11636372  0.37078871  1
  O  O355  1  0.87721416  0.12922074  0.86142914  1
  O  O356  1  0.85945208  0.63671086  0.37439020  1
  O  O357  1  0.87693272  0.61590960  0.86365943  1
  O  O358  1  0.14259501  0.39322527  0.11278204  1
  O  O359  1  0.13373722  0.37809087  0.63006811  1
  O  O360  1  0.12793980  0.87963020  0.13013321  1
  O  O361  1  0.14286981  0.87662609  0.62135888  1
  O  O362  1  0.63394173  0.37383555  0.13091291  1
  O  O363  1  0.65376217  0.36661077  0.62114269  1
  O  O364  1  0.64085585  0.86512097  0.12275588  1
  O  O365  1  0.62970290  0.88215750  0.63157983  1
  O  O366  1  0.12764819  0.24618848  0.26474062  1
  O  O367  1  0.11886971  0.26171963  0.75183485  1
  O  O368  1  0.11649110  0.76027326  0.24837171  1
  O  O369  1  0.11883756  0.74789324  0.75884773  1
  O  O370  1  0.61840988  0.25401815  0.25692973  1
  O  O371  1  0.63226913  0.24350261  0.76886562  1
  O  O372  1  0.63293692  0.74811180  0.26569336  1
  O  O373  1  0.61186815  0.76400971  0.75556971  1
  O  O374  1  0.38112663  0.24749632  0.24475331  1
  O  O375  1  0.37788083  0.25651665  0.73779651  1
  O  O376  1  0.36835606  0.75137423  0.23909284  1
  O  O377  1  0.38474401  0.74086489  0.75821052  1
  O  O378  1  0.87575777  0.22358885  0.24908204  1
  O  O379  1  0.88621412  0.25101142  0.75358979  1
  O  O380  1  0.89170355  0.75304413  0.24054420  1
  O  O381  1  0.88187999  0.73729667  0.75089604  1
  O  O382  1  0.38418911  0.49292466  0.49136128  1
  O  O383  1  0.37807384  0.49393993  0.99347746  1
  O  O384  1  0.38518330  0.99737960  0.49937269  1
  O  O385  1  0.37750301  0.99501720  0.99458557  1
  O  O386  1  0.88859790  0.49531654  0.49546845  1
  O  O387  1  0.87491892  0.48811280  0.99417834  1
  O  O388  1  0.87959557  0.98684891  0.50623326  1
  O  O389  1  0.83920530  0.99674652  0.96307828  1
  O  O390  1  0.13625710  0.00946008  0.01040086  1
  O  O391  1  0.12071986  0.02027903  0.49348659  1
  O  O392  1  0.13082044  0.50799552  0.01105429  1
  O  O393  1  0.11553641  0.49292395  0.51376811  1
  O  O394  1  0.61356093  0.00379508  0.00241303  1
  O  O395  1  0.60861443  -0.00755708  0.51557262  1
  O  O396  1  0.60829137  0.49744347  -0.00612227  1
  O  O397  1  0.61327631  0.51169786  0.49006227  1
  O  O398  1  0.36843853  0.36855693  0.12017299  1
  O  O399  1  0.37260560  0.37459806  0.62068744  1
  O  O400  1  0.36728790  0.86261862  0.11812307  1
  O  O401  1  0.36105030  0.87879606  0.61690943  1
  O  O402  1  0.85942767  0.37961140  0.11403041  1
  O  O403  1  0.84934483  0.38275735  0.62681326  1
  O  O404  1  0.86834243  0.86929802  0.11573518  1
  O  O405  1  0.86693953  0.87428853  0.62024754  1
  O  O406  1  0.13340008  0.13404574  0.38198255  1
  O  O407  1  0.11818432  0.12855113  0.89198691  1
  O  O408  1  0.13089349  0.63896045  0.37003217  1
  O  O409  1  0.13144485  0.62884200  0.87754091  1
  O  O410  1  0.63700778  0.13385036  0.37519010  1
  O  O411  1  0.63216499  0.12589053  0.88870926  1
  O  O412  1  0.63508262  0.63686883  0.38705764  1
  O  O413  1  0.61776386  0.63964591  0.85954714  1
