# generated using pymatgen
data_V79Zn79O256
_symmetry_space_group_name_H-M   'P 1'
_cell_length_a   16.93234222
_cell_length_b   16.89776158
_cell_length_c   16.94138629
_cell_angle_alpha   90.01056218
_cell_angle_beta   89.93406634
_cell_angle_gamma   90.20067603
_symmetry_Int_Tables_number   1
_chemical_formula_structural   V79Zn79O256
_chemical_formula_sum   'V79 Zn79 O256'
_cell_volume   4847.21409197
_cell_formula_units_Z   1
loop_
 _symmetry_equiv_pos_site_id
 _symmetry_equiv_pos_as_xyz
  1  'x, y, z'
loop_
 _atom_site_type_symbol
 _atom_site_label
 _atom_site_symmetry_multiplicity
 _atom_site_fract_x
 _atom_site_fract_y
 _atom_site_fract_z
 _atom_site_occupancy
  V  V0  1  0.49330679  0.37240817  0.37658683  1
  V  V1  1  0.25179015  0.12115649  0.87354381  1
  V  V2  1  0.37666729  0.75063493  0.62811299  1
  V  V3  1  0.62389465  -0.00104508  0.62223656  1
  V  V4  1  0.25649135  -0.00395709  0.24546429  1
  V  V5  1  0.25269639  0.37792120  0.12416648  1
  V  V6  1  0.00504308  -0.00546914  0.49181138  1
  V  V7  1  0.62466472  0.49377762  0.63130483  1
  V  V8  1  0.25275008  0.87839057  0.62754708  1
  V  V9  1  0.12671033  0.88190752  0.74384998  1
  V  V10  1  -0.00572573  0.24072459  0.75052867  1
  V  V11  1  0.87264127  0.24026478  0.62919637  1
  V  V12  1  -0.00471131  0.37529049  0.87952361  1
  V  V13  1  0.50443719  0.37887184  0.87343079  1
  V  V14  1  0.00232157  0.88356942  0.88295825  1
  V  V15  1  0.75327154  0.12821233  0.38057483  1
  V  V16  1  0.36371381  0.61339895  0.74435525  1
  V  V17  1  0.63534241  0.87940921  0.24502178  1
  V  V18  1  0.75453026  0.49410300  0.74049417  1
  V  V19  1  -0.00159211  0.49401652  0.49748576  1
  V  V20  1  0.24856866  0.24625948  -0.00097173  1
  V  V21  1  0.72782331  0.64099984  0.86613475  1
  V  V22  1  0.25498812  0.63140671  0.37089238  1
  V  V23  1  0.12598797  0.25290662  0.36759857  1
  V  V24  1  0.01064671  0.75142969  0.74907804  1
  V  V25  1  0.12777932  0.12778601  0.49864146  1
  V  V26  1  0.25568180  0.26543805  0.50452442  1
  V  V27  1  0.87977169  0.00240024  0.37178416  1
  V  V28  1  0.87854488  0.62382217  0.75186610  1
  V  V29  1  0.11446912  -0.00014132  0.12403500  1
  V  V30  1  0.12509370  0.62393292  0.49702462  1
  V  V31  1  0.25772098  0.12763126  0.36978874  1
  V  V32  1  -0.00047743  0.15410070  0.13295251  1
  V  V33  1  0.50420621  -0.01559864  -0.00475587  1
  V  V34  1  0.63925887  0.75628290  0.38694209  1
  V  V35  1  0.24797715  0.61396805  0.89158937  1
  V  V36  1  0.49786524  0.74533406  0.25093465  1
  V  V37  1  0.88242550  0.00835564  0.89288858  1
  V  V38  1  0.37807275  0.23681233  0.12871462  1
  V  V39  1  0.50606781  0.88162222  0.38090978  1
  V  V40  1  0.31742848  0.76944428  0.10863705  1
  V  V41  1  0.74580287  0.36443681  0.62224902  1
  V  V42  1  0.49564370  0.49617898  0.50245281  1
  V  V43  1  0.12391400  0.24926846  0.87595040  1
  V  V44  1  0.00136372  0.36887027  0.36699038  1
  V  V45  1  0.73047903  0.40050899  0.09598883  1
  V  V46  1  0.75358104  0.87174207  0.62420622  1
  V  V47  1  0.76518073  0.00403295  0.74874422  1
  V  V48  1  0.37311763  -0.01434527  0.87978461  1
  V  V49  1  0.13055986  0.37144871  0.74560717  1
  V  V50  1  0.87515809  0.49471273  0.88452063  1
  V  V51  1  0.61559451  0.86690356  0.75810523  1
  V  V52  1  0.62561425  0.24111300  0.89137226  1
  V  V53  1  0.13248495  0.49300759  0.62551524  1
  V  V54  1  0.74909426  0.12479072  0.88630865  1
  V  V55  1  0.38006605  0.38100494  -0.00656001  1
  V  V56  1  0.37309438  0.11854044  0.75113010  1
  V  V57  1  0.87369324  0.36180101  0.49895364  1
  V  V58  1  0.63421278  0.63243417  0.50647274  1
  V  V59  1  0.75685819  0.00392222  0.24472373  1
  V  V60  1  0.50081532  0.11814432  0.61969311  1
  V  V61  1  0.13407466  0.73994609  0.91080832  1
  V  V62  1  0.38101207  0.88120902  0.49943240  1
  V  V63  1  0.87614177  0.74784160  0.61978489  1
  V  V64  1  0.37503246  0.50433788  0.37432993  1
  V  V65  1  0.50989154  0.11255255  0.12358274  1
  V  V66  1  0.00227330  0.62111888  0.62411187  1
  V  V67  1  0.63234997  0.38697813  0.25177580  1
  V  V68  1  0.11000539  0.75218799  0.37590941  1
  V  V69  1  0.38173640  0.00491446  0.37506342  1
  V  V70  1  0.25081588  0.50220223  0.24228486  1
  V  V71  1  0.11366670  0.87777407  0.26158513  1
  V  V72  1  0.13367611  0.00305194  0.62106633  1
  V  V73  1  0.62916108  0.24793526  0.37905557  1
  V  V74  1  0.50968017  0.24547871  0.75125315  1
  V  V75  1  0.37355233  0.26048412  0.62439506  1
  V  V76  1  0.84599521  0.25782705  0.12111899  1
  V  V77  1  0.87862593  0.87191981  0.49335546  1
  V  V78  1  0.49859426  0.62827788  0.62965984  1
  Zn  Zn79  1  0.25246254  0.75271895  0.49274330  1
  Zn  Zn80  1  0.04690497  0.55730812  0.07146093  1
  Zn  Zn81  1  0.11745495  0.11413094  -0.00203266  1
  Zn  Zn82  1  0.86288164  0.49297816  0.35741983  1
  Zn  Zn83  1  0.25205143  0.48774838  0.75307349  1
  Zn  Zn84  1  0.55170384  0.56225694  0.05905747  1
  Zn  Zn85  1  0.74582495  0.60906244  0.35814058  1
  Zn  Zn86  1  0.00159571  0.71992190  0.21658555  1
  Zn  Zn87  1  0.49699433  0.24068434  0.25399022  1
  Zn  Zn88  1  -0.00528286  0.12069838  0.62699675  1
  Zn  Zn89  1  0.65118260  -0.00016328  0.10097063  1
  Zn  Zn90  1  0.11905206  0.37638649  0.24095171  1
  Zn  Zn91  1  0.62536816  0.12408830  0.50052472  1
  Zn  Zn92  1  0.43844424  0.55436391  0.91927238  1
  Zn  Zn93  1  0.86010774  0.62823783  0.23539126  1
  Zn  Zn94  1  0.18914214  0.18507600  0.18546661  1
  Zn  Zn95  1  0.19011470  0.18888783  0.68814379  1
  Zn  Zn96  1  0.17592776  0.67563243  0.18782465  1
  Zn  Zn97  1  0.19024624  0.69064269  0.68077346  1
  Zn  Zn98  1  0.68100540  0.18522056  0.19612195  1
  Zn  Zn99  1  0.68990687  0.18084691  0.69483672  1
  Zn  Zn100  1  0.65126197  0.66713333  0.20040504  1
  Zn  Zn101  1  0.68904958  0.68694316  0.68817655  1
  Zn  Zn102  1  0.31342485  0.31362474  0.31193095  1
  Zn  Zn103  1  0.31695899  0.30601764  0.81075777  1
  Zn  Zn104  1  0.31909745  0.81681602  0.29648688  1
  Zn  Zn105  1  0.34916402  0.77435275  0.84718680  1
  Zn  Zn106  1  0.81721786  0.30955751  0.30479162  1
  Zn  Zn107  1  0.80811125  0.31016106  0.81335711  1
  Zn  Zn108  1  0.82040123  0.80570688  0.30392526  1
  Zn  Zn109  1  0.82079860  0.81842941  0.81110013  1
  Zn  Zn110  1  0.18681447  0.44026868  0.43395776  1
  Zn  Zn111  1  0.18109629  0.43929201  0.94218250  1
  Zn  Zn112  1  0.19583780  0.93715656  0.43567001  1
  Zn  Zn113  1  0.18876069  0.93517087  0.93434629  1
  Zn  Zn114  1  0.68033718  0.43017441  0.44248284  1
  Zn  Zn115  1  0.67479797  0.45585190  0.92359248  1
  Zn  Zn116  1  0.69565876  0.94032465  0.43910668  1
  Zn  Zn117  1  0.69490168  0.93090242  0.93198563  1
  Zn  Zn118  1  0.31470837  0.05703550  0.05797211  1
  Zn  Zn119  1  0.31562385  0.06816574  0.55804222  1
  Zn  Zn120  1  0.38639081  0.58218763  0.09266848  1
  Zn  Zn121  1  0.31096301  0.55960560  0.55647892  1
  Zn  Zn122  1  0.82730874  0.07358341  0.06496739  1
  Zn  Zn123  1  0.81129798  0.05799397  0.55838994  1
  Zn  Zn124  1  0.78986860  0.58026494  0.05610875  1
  Zn  Zn125  1  0.79413001  0.53770110  0.52464480  1
  Zn  Zn126  1  0.44190708  0.43510788  0.19066995  1
  Zn  Zn127  1  0.44612614  0.43535575  0.69452913  1
  Zn  Zn128  1  0.43562855  0.92646185  0.18678860  1
  Zn  Zn129  1  0.43744204  0.93709798  0.69292242  1
  Zn  Zn130  1  0.90884297  0.45585719  0.17370033  1
  Zn  Zn131  1  0.94002157  0.42944014  0.68572590  1
  Zn  Zn132  1  0.94211118  0.93453308  0.18690965  1
  Zn  Zn133  1  0.94276555  0.93931104  0.68116809  1
  Zn  Zn134  1  0.06475464  0.07000275  0.30804067  1
  Zn  Zn135  1  0.06632791  0.06122747  0.81126804  1
  Zn  Zn136  1  0.06488811  0.55737441  0.30819675  1
  Zn  Zn137  1  0.06452994  0.55985789  0.81931856  1
  Zn  Zn138  1  0.56480335  0.06532661  0.30724916  1
  Zn  Zn139  1  0.56506281  0.05651510  0.81121883  1
  Zn  Zn140  1  0.56416361  0.56527476  0.32163373  1
  Zn  Zn141  1  0.54117542  0.70361981  0.81236695  1
  Zn  Zn142  1  0.43829955  0.19015251  0.44208136  1
  Zn  Zn143  1  0.44052935  0.18053733  0.94317353  1
  Zn  Zn144  1  0.44373705  0.69246016  0.43800036  1
  Zn  Zn145  1  0.44055428  0.72905086  0.97766196  1
  Zn  Zn146  1  0.94119775  0.18456003  0.43436595  1
  Zn  Zn147  1  0.93861809  0.19366296  0.95262280  1
  Zn  Zn148  1  0.92898019  0.67807066  0.43302369  1
  Zn  Zn149  1  0.92182234  0.70273105  1.04969602  1
  Zn  Zn150  1  0.03648586  0.35939582  0.08686075  1
  Zn  Zn151  1  0.06162103  0.30814973  0.56195106  1
  Zn  Zn152  1  0.11510182  0.80676778  0.06740707  1
  Zn  Zn153  1  0.06372295  0.81074932  0.55885282  1
  Zn  Zn154  1  0.56136986  0.31420192  0.06428203  1
  Zn  Zn155  1  0.55944610  0.30801580  0.56224892  1
  Zn  Zn156  1  0.56516260  0.81211998  0.07169985  1
  Zn  Zn157  1  0.56255021  0.81523921  0.56804166  1
  O  O158  1  0.12206748  0.11427235  0.12578808  1
  O  O159  1  0.13100284  0.11920967  0.61246516  1
  O  O160  1  0.07366204  0.64050927  0.15421460  1
  O  O161  1  0.12025385  0.61670525  0.61795584  1
  O  O162  1  0.61388928  0.11203040  0.12757511  1
  O  O163  1  0.61894954  0.11659657  0.62683612  1
  O  O164  1  0.62266475  0.65590011  0.08877204  1
  O  O165  1  0.61379828  0.61932644  0.62508626  1
  O  O166  1  0.38685463  0.38240881  0.37379853  1
  O  O167  1  0.38540525  0.36013164  0.88670677  1
  O  O168  1  0.38502160  0.88332034  0.38135368  1
  O  O169  1  0.35992095  0.88978479  0.86336500  1
  O  O170  1  0.88250285  0.37124916  0.38346037  1
  O  O171  1  0.87878886  0.38643414  0.86557264  1
  O  O172  1  0.86892912  0.88529698  0.38708471  1
  O  O173  1  0.89402889  0.88814621  0.86729552  1
  O  O174  1  0.26029726  0.00991332  0.37010968  1
  O  O175  1  0.26247016  0.00965022  0.88568658  1
  O  O176  1  0.25822936  0.50819442  0.37212303  1
  O  O177  1  0.23968708  0.50859034  0.86833014  1
  O  O178  1  0.76180400  0.00638329  0.36837180  1
  O  O179  1  0.76810562  0.00039216  0.86978669  1
  O  O180  1  0.75732599  0.50675293  0.41377779  1
  O  O181  1  0.75924786  0.50016530  0.85584370  1
  O  O182  1  0.26825528  0.49550037  0.14075045  1
  O  O183  1  0.23490954  0.49988353  0.62059473  1
  O  O184  1  0.25016279  1.00761158  0.14294227  1
  O  O185  1  0.24299941  0.99339872  0.61333290  1
  O  O186  1  0.72529659  0.49974270  0.10676585  1
  O  O187  1  0.74355286  0.48817800  0.62307917  1
  O  O188  1  0.76029885  1.00935750  0.13994400  1
  O  O189  1  0.74653585  0.99408869  0.63237820  1
  O  O190  1  0.00140155  0.38114546  0.26731104  1
  O  O191  1  0.00846238  0.36193834  0.75571924  1
  O  O192  1  0.01568543  0.89331351  0.26692049  1
  O  O193  1  0.00947121  0.86687816  0.74239434  1
  O  O194  1  0.50809632  0.37037069  0.26124860  1
  O  O195  1  0.48981078  0.35644711  0.76525216  1
  O  O196  1  0.51269144  0.87364296  0.26473367  1
  O  O197  1  0.51631421  0.88033565  0.75096773  1
  O  O198  1  0.49827756  0.12169150  0.23138409  1
  O  O199  1  0.49338204  0.12846429  0.74344749  1
  O  O200  1  0.53803811  0.64730124  0.24784080  1
  O  O201  1  0.48099895  0.62523335  0.73569192  1
  O  O202  1  1.00717592  0.12765860  0.23212805  1
  O  O203  1  1.00746107  0.13663590  0.74599386  1
  O  O204  1  0.98446242  0.61019238  0.25346167  1
  O  O205  1  0.99992611  0.63334946  0.74611714  1
  O  O206  1  0.36697837  0.25000342  0.00901138  1
  O  O207  1  0.36681148  0.24493037  0.51209062  1
  O  O208  1  0.34938448  0.78736440  0.01413226  1
  O  O209  1  0.37584479  0.76243427  0.50665099  1
  O  O210  1  0.88136202  0.26198871  0.02353715  1
  O  O211  1  0.88331702  0.25609198  0.50864461  1
  O  O212  1  0.84536540  0.78165036  -0.00869116  1
  O  O213  1  0.88709727  0.75784694  0.51117800  1
  O  O214  1  0.13518463  0.24315345  0.49472137  1
  O  O215  1  0.14329269  0.24979728  0.99186484  1
  O  O216  1  0.12954639  0.74335431  0.49220434  1
  O  O217  1  0.09998510  0.70582690  0.99876082  1
  O  O218  1  0.62232502  0.24893547  0.48411742  1
  O  O219  1  0.61909939  0.24492510  0.98939436  1
  O  O220  1  0.61889897  0.74429893  0.49820729  1
  O  O221  1  0.62465784  0.72011285  1.03590969  1
  O  O222  1  0.49047210  0.23516057  0.11988719  1
  O  O223  1  0.49432301  0.24024387  0.63222834  1
  O  O224  1  0.49627416  0.76577547  0.15200957  1
  O  O225  1  0.48893467  0.74041382  0.61914625  1
  O  O226  1  1.01896318  0.25284530  0.13024477  1
  O  O227  1  0.99165856  0.24611449  0.63267117  1
  O  O228  1  0.98700603  0.78761236  0.11171373  1
  O  O229  1  0.99713718  0.74366190  0.63042152  1
  O  O230  1  0.01470472  0.25516714  0.38073381  1
  O  O231  1  0.00271097  0.25205407  0.86759140  1
  O  O232  1  0.01132930  0.74388607  0.38236362  1
  O  O233  1  0.03322906  0.77157525  0.86423438  1
  O  O234  1  0.50433758  0.25661554  0.37535892  1
  O  O235  1  0.51019192  0.24364279  0.87050033  1
  O  O236  1  0.51707450  0.76312393  0.37492215  1
  O  O237  1  0.46083715  0.75281337  0.87138915  1
  O  O238  1  0.24275534  0.12986794  0.48854538  1
  O  O239  1  0.25134781  0.13082780  0.99092001  1
  O  O240  1  0.24317055  0.62591042  0.48755419  1
  O  O241  1  0.26364340  0.61451269  0.98648741  1
  O  O242  1  0.74568932  0.11755526  0.48546596  1
  O  O243  1  0.74980991  0.11208572  0.98615409  1
  O  O244  1  0.73363172  0.63358883  0.52314628  1
  O  O245  1  0.74092528  0.61967574  0.96320648  1
  O  O246  1  0.26311339  0.36581590  0.00240801  1
  O  O247  1  0.24808706  0.36444669  0.49623197  1
  O  O248  1  0.17211451  0.82693079  -0.03807694  1
  O  O249  1  0.26399155  0.87479887  0.50644952  1
  O  O250  1  0.72603400  0.38121289  -0.00123876  1
  O  O251  1  0.76108591  0.37243825  0.51163957  1
  O  O252  1  0.75155109  0.87561401  0.02074315  1
  O  O253  1  0.76422213  0.88216546  0.51531085  1
  O  O254  1  0.14635445  0.49163699  0.25699004  1
  O  O255  1  0.12273909  0.48865727  0.74070663  1
  O  O256  1  0.13542545  0.99721228  0.24797414  1
  O  O257  1  0.11847980  0.99820771  0.72682894  1
  O  O258  1  0.62018023  0.48661496  0.25785390  1
  O  O259  1  0.63945715  0.50124765  0.73288596  1
  O  O260  1  0.64088463  0.99045056  0.25701572  1
  O  O261  1  0.63668169  0.98875020  0.74248239  1
  O  O262  1  0.36393656  -0.00712827  0.26117339  1
  O  O263  1  0.38268196  0.01070698  0.76491194  1
  O  O264  1  0.36573971  0.49711562  0.26723977  1
  O  O265  1  0.36852728  0.50918970  0.73363794  1
  O  O266  1  0.86562389  -0.01268584  0.25792076  1
  O  O267  1  0.86853474  -0.00134611  0.74623060  1
  O  O268  1  0.84921474  0.50918756  0.24661123  1
  O  O269  1  0.86841450  0.50694334  0.73838455  1
  O  O270  1  0.11847062  0.36625943  0.37699850  1
  O  O271  1  0.11720254  0.36857278  0.86500039  1
  O  O272  1  0.13043813  0.86655270  0.37180821  1
  O  O273  1  0.11099368  0.90991190  0.84790336  1
  O  O274  1  0.61554318  0.36824763  0.36940273  1
  O  O275  1  0.60953625  0.35724577  0.87547707  1
  O  O276  1  0.62119667  0.87695888  0.37711568  1
  O  O277  1  0.63603849  0.87094290  0.85661562  1
  O  O278  1  0.37686219  0.13389903  0.12296841  1
  O  O279  1  0.38277295  0.12423266  0.63389571  1
  O  O280  1  0.34677992  0.67745359  0.13706924  1
  O  O281  1  0.37877915  0.63036829  0.62324752  1
  O  O282  1  0.88959773  0.14613485  0.12562884  1
  O  O283  1  0.87432010  0.13563622  0.61556162  1
  O  O284  1  0.86299942  0.63436405  0.11719392  1
  O  O285  1  0.88406100  0.63428390  0.63410510  1
  O  O286  1  0.26229278  0.25248229  0.11909413  1
  O  O287  1  0.26089435  0.24282899  0.61617832  1
  O  O288  1  0.21294438  0.76129910  0.11981919  1
  O  O289  1  0.25819430  0.76137412  0.61548125  1
  O  O290  1  0.74657788  0.23669567  0.11886713  1
  O  O291  1  0.75699783  0.25489384  0.63588821  1
  O  O292  1  0.78066640  0.80008593  0.03164720  1
  O  O293  1  0.76674420  0.75917132  0.63550163  1
  O  O294  1  0.24952768  0.24520647  0.38334065  1
  O  O295  1  0.24728314  0.23997648  0.88042819  1
  O  O296  1  0.24725166  0.74088750  0.36803348  1
  O  O297  1  0.24332142  0.72745222  0.87219137  1
  O  O298  1  0.74426353  0.23762982  0.36520421  1
  O  O299  1  0.73469077  0.24103973  0.86918670  1
  O  O300  1  0.73922230  0.76464863  0.37988266  1
  O  O301  1  0.75558775  0.73774536  0.85521166  1
  O  O302  1  0.00708698  0.13205159  0.02188257  1
  O  O303  1  0.01562200  0.11783103  0.50007848  1
  O  O304  1  -0.01128170  0.62715860  0.00021594  1
  O  O305  1  0.00425317  0.61257304  0.50395329  1
  O  O306  1  0.49585467  0.10866377  0.01505937  1
  O  O307  1  0.50228623  0.12676344  0.51597783  1
  O  O308  1  0.46097853  0.62322561  0.00573000  1
  O  O309  1  0.50603073  0.61647201  0.51042801  1
  O  O310  1  0.50924954  0.38652452  0.48992347  1
  O  O311  1  0.48821611  0.36483775  0.98889619  1
  O  O312  1  0.49266177  0.87535357  0.49304024  1
  O  O313  1  0.49960682  0.88373921  1.00862810  1
  O  O314  1  0.99463096  0.37595265  0.49392747  1
  O  O315  1  1.00580758  0.36730597  0.97696477  1
  O  O316  1  0.99359733  0.88510473  0.50249630  1
  O  O317  1  1.01417553  0.88083375  0.97778831  1
  O  O318  1  0.49402679  0.49607356  0.38328565  1
  O  O319  1  0.49570416  0.47725965  0.85851888  1
  O  O320  1  0.49281755  0.99468381  0.36813903  1
  O  O321  1  0.48878346  1.00188332  0.88703640  1
  O  O322  1  1.00406462  0.48784048  0.38864770  1
  O  O323  1  0.98398328  0.49076628  0.86464052  1
  O  O324  1  0.99478327  1.01030343  0.38362876  1
  O  O325  1  0.98894585  0.99883693  0.86885326  1
  O  O326  1  0.01317800  0.00533816  0.12654853  1
  O  O327  1  0.01117189  0.00348614  0.60922888  1
  O  O328  1  0.00399433  0.46126308  0.12187045  1
  O  O329  1  0.01017399  0.50117089  0.61770565  1
  O  O330  1  0.49043742  0.00243029  0.11583513  1
  O  O331  1  0.51054984  0.00787150  0.63453658  1
  O  O332  1  0.47415433  0.52436105  0.13459519  1
  O  O333  1  0.50619466  0.50337193  0.62109549  1
  O  O334  1  0.25631983  0.38564048  0.24201775  1
  O  O335  1  0.23602651  0.36873379  0.75579870  1
  O  O336  1  0.23671956  0.89331825  0.26396327  1
  O  O337  1  0.23853039  0.87671097  0.73134449  1
  O  O338  1  0.73163928  0.37606550  0.26132901  1
  O  O339  1  0.75726043  0.38381250  0.73471926  1
  O  O340  1  0.74228004  0.88537558  0.25463190  1
  O  O341  1  0.74997116  0.88294475  0.73840456  1
  O  O342  1  0.24617109  0.11479756  0.26380929  1
  O  O343  1  0.25935317  0.12849811  0.76183802  1
  O  O344  1  0.24580720  0.61225692  0.25832412  1
  O  O345  1  0.25889691  0.61785352  0.73681825  1
  O  O346  1  0.74561334  0.10891232  0.26210549  1
  O  O347  1  0.74677145  0.11064161  0.76563361  1
  O  O348  1  0.74456977  0.64884314  0.25258063  1
  O  O349  1  0.75912516  0.61495416  0.74907747  1
  O  O350  1  0.36958046  0.11777398  0.38164275  1
  O  O351  1  0.36870274  0.12028769  0.86915806  1
  O  O352  1  0.36777105  0.61628316  0.38514635  1
  O  O353  1  0.36006032  0.61600910  0.85216497  1
  O  O354  1  0.86928145  0.11304407  0.37907781  1
  O  O355  1  0.87170446  0.11490010  0.88319037  1
  O  O356  1  0.86396229  0.61388936  0.37267739  1
  O  O357  1  0.87423474  0.60793179  0.85516296  1
  O  O358  1  0.15047462  0.36662674  0.12488887  1
  O  O359  1  0.11776130  0.37959777  0.63427784  1
  O  O360  1  0.12228581  0.89179218  0.14747844  1
  O  O361  1  0.13301213  0.88374049  0.62202863  1
  O  O362  1  0.63127276  0.36656435  0.14028592  1
  O  O363  1  0.63344149  0.38069701  0.61571747  1
  O  O364  1  0.62425112  0.88569211  0.14268160  1
  O  O365  1  0.63530199  0.87925498  0.63240701  1
  O  O366  1  0.14057813  0.25578782  0.26484524  1
  O  O367  1  0.11813562  0.25324435  0.75501344  1
  O  O368  1  0.11509442  0.76731243  0.25814189  1
  O  O369  1  0.12030634  0.76395445  0.73761619  1
  O  O370  1  0.61816547  0.25567382  0.26388545  1
  O  O371  1  0.61243415  0.24499636  0.75346824  1
  O  O372  1  0.62373446  0.77263710  0.26419963  1
  O  O373  1  0.61777381  0.76145847  0.73985379  1
  O  O374  1  0.37695641  0.25553505  0.23196172  1
  O  O375  1  0.38290113  0.23548255  0.74358382  1
  O  O376  1  0.40230555  0.73826280  0.28124818  1
  O  O377  1  0.36430395  0.73612529  0.73188651  1
  O  O378  1  0.87708342  0.26667702  0.22015604  1
  O  O379  1  0.88384452  0.25326978  0.74178161  1
  O  O380  1  0.89294272  0.74494217  0.24893121  1
  O  O381  1  0.89298607  0.74528697  0.74392017  1
  O  O382  1  0.38729300  0.50015530  0.49353129  1
  O  O383  1  0.37425905  0.48087714  0.99471919  1
  O  O384  1  0.37300865  0.99198694  0.48878946  1
  O  O385  1  0.38253681  0.99469932  0.98783400  1
  O  O386  1  0.89114949  0.48009613  0.51120902  1
  O  O387  1  0.86595489  0.50349117  0.98037814  1
  O  O388  1  0.88607946  0.99279788  0.49306276  1
  O  O389  1  0.87919249  0.99839202  0.99110070  1
  O  O390  1  0.14094927  -0.00440504  0.02246294  1
  O  O391  1  0.12318651  0.00649584  0.50028982  1
  O  O392  1  0.12973082  0.50163606  0.01724626  1
  O  O393  1  0.11723200  0.50183042  0.50574649  1
  O  O394  1  0.61251895  -0.01021386  -0.00638873  1
  O  O395  1  0.63164069  -0.00204424  0.51839107  1
  O  O396  1  0.59189126  0.49351456  -0.01599646  1
  O  O397  1  0.61512668  0.51021354  0.51126776  1
  O  O398  1  0.37326470  0.36369722  0.11136910  1
  O  O399  1  0.38237546  0.35914228  0.63356276  1
  O  O400  1  0.35383831  0.84632054  0.17120036  1
  O  O401  1  0.37276354  0.87256962  0.62034180  1
  O  O402  1  0.82966191  0.37517089  0.12343961  1
  O  O403  1  0.86889368  0.36057109  0.61819446  1
  O  O404  1  0.92810093  0.84609213  0.11445697  1
  O  O405  1  0.87335760  0.86772381  0.61707855  1
  O  O406  1  0.13457256  0.13350321  0.38157252  1
  O  O407  1  0.13504259  0.12681096  0.87770318  1
  O  O408  1  0.13348293  0.63286478  0.37717180  1
  O  O409  1  0.13772150  0.63241804  0.86902859  1
  O  O410  1  0.63148981  0.13041381  0.37629698  1
  O  O411  1  0.63021537  0.13299794  0.87358932  1
  O  O412  1  0.63019574  0.63651816  0.39134037  1
  O  O413  1  0.62824329  0.63769299  0.85103512  1
