# generated using pymatgen
data_V79Zn79O256
_symmetry_space_group_name_H-M   'P 1'
_cell_length_a   16.97969126
_cell_length_b   16.96710833
_cell_length_c   16.94742786
_cell_angle_alpha   89.91196611
_cell_angle_beta   90.03830959
_cell_angle_gamma   90.17490207
_symmetry_Int_Tables_number   1
_chemical_formula_structural   V79Zn79O256
_chemical_formula_sum   'V79 Zn79 O256'
_cell_volume   4882.46101249
_cell_formula_units_Z   1
loop_
 _symmetry_equiv_pos_site_id
 _symmetry_equiv_pos_as_xyz
  1  'x, y, z'
loop_
 _atom_site_type_symbol
 _atom_site_label
 _atom_site_symmetry_multiplicity
 _atom_site_fract_x
 _atom_site_fract_y
 _atom_site_fract_z
 _atom_site_occupancy
  V  V0  1  0.50197181  0.50681781  0.50388755  1
  V  V1  1  0.11146575  0.62359492  -0.00057464  1
  V  V2  1  0.37562031  0.36993875  0.01629919  1
  V  V3  1  0.36653541  0.37095368  0.51225993  1
  V  V4  1  0.25148870  0.87678639  0.12417092  1
  V  V5  1  0.88894856  -0.00212446  0.89718183  1
  V  V6  1  0.24975612  0.61619723  0.87377181  1
  V  V7  1  0.76209020  0.00750386  0.75007568  1
  V  V8  1  0.75089800  0.49874789  0.74835692  1
  V  V9  1  0.75579470  0.62899453  0.37193056  1
  V  V10  1  0.37121131  0.00614526  0.86495440  1
  V  V11  1  0.23871024  0.15065990  0.37926317  1
  V  V12  1  0.50646824  0.49962027  -0.00156864  1
  V  V13  1  0.38328844  0.73901615  0.62333377  1
  V  V14  1  0.88180347  0.50640244  0.87927862  1
  V  V15  1  0.62674526  0.74664792  0.88341813  1
  V  V16  1  0.50205253  0.74051115  0.74793108  1
  V  V17  1  0.62888120  0.37356355  0.74309545  1
  V  V18  1  0.75597388  0.76438457  0.00639526  1
  V  V19  1  0.87725311  0.62026577  0.24095734  1
  V  V20  1  0.12621471  -0.00063939  0.13373519  1
  V  V21  1  0.48997257  0.13092496  0.12957637  1
  V  V22  1  0.75664664  0.86362757  0.62017403  1
  V  V23  1  0.49373259  0.37155349  0.87445400  1
  V  V24  1  0.25402667  0.49138333  0.23805373  1
  V  V25  1  0.87812948  0.37868044  0.52185452  1
  V  V26  1  0.62425783  0.87563720  0.74925194  1
  V  V27  1  0.25865244  0.25036720  0.02593120  1
  V  V28  1  0.75165918  0.24908996  0.00904495  1
  V  V29  1  0.13458938  0.50192890  0.63810353  1
  V  V30  1  0.24788543  0.62469308  0.37296076  1
  V  V31  1  0.50515857  -0.00008207  0.00530980  1
  V  V32  1  0.51655547  0.62098424  0.12054784  1
  V  V33  1  0.74261677  -0.01347178  0.23772636  1
  V  V34  1  0.49867532  0.87497722  0.87418859  1
  V  V35  1  0.74750882  0.62769237  0.88422620  1
  V  V36  1  0.62202483  0.12843782  0.49390101  1
  V  V37  1  0.48711655  0.12709597  0.62493845  1
  V  V38  1  0.63184292  0.63021491  0.50003754  1
  V  V39  1  0.37957229  0.62437946  0.24625464  1
  V  V40  1  0.62835128  0.24549969  0.87195332  1
  V  V41  1  0.87776228  0.12939378  0.24685239  1
  V  V42  1  0.61881993  0.00041266  0.62451057  1
  V  V43  1  0.37863446  0.74704855  0.12131811  1
  V  V44  1  0.62877023  0.75267504  0.36892255  1
  V  V45  1  0.25267241  0.74787904  0.49758815  1
  V  V46  1  0.86890304  0.37909999  0.00565788  1
  V  V47  1  0.87184050  0.63900455  0.74694641  1
  V  V48  1  0.62646867  0.48088273  0.12702783  1
  V  V49  1  0.74235024  0.48972729  0.24725420  1
  V  V50  1  0.01593324  0.76148654  0.75848169  1
  V  V51  1  0.01144379  0.73520293  0.25063873  1
  V  V52  1  0.37556831  0.87516137  -0.00186431  1
  V  V53  1  0.62406931  0.50639543  0.62663548  1
  V  V54  1  0.12659768  0.37903975  0.75966923  1
  V  V55  1  0.87972924  0.77089333  0.12623540  1
  V  V56  1  0.38365564  0.87046776  0.49429409  1
  V  V57  1  0.12238645  0.01293336  0.62244029  1
  V  V58  1  0.87965603  0.48492402  0.37527363  1
  V  V59  1  0.36635063  0.00253512  0.35861811  1
  V  V60  1  0.25181419  0.12994620  0.87596518  1
  V  V61  1  0.10855065  0.50128429  0.12043786  1
  V  V62  1  0.74105472  0.26418124  0.50284417  1
  V  V63  1  0.62838435  0.12024559  0.00193930  1
  V  V64  1  -0.00518245  0.63257503  0.62393233  1
  V  V65  1  0.51488681  0.36888104  0.37521726  1
  V  V66  1  0.00117758  -0.02647589  0.01782583  1
  V  V67  1  0.75386571  0.10841773  0.38046130  1
  V  V68  1  -0.00193004  0.36551744  0.87516485  1
  V  V69  1  0.49020588  0.24609554  0.74585987  1
  V  V70  1  0.24859284  0.74495375  -0.00671131  1
  V  V71  1  0.11796089  0.13639863  0.01040937  1
  V  V72  1  0.37673231  0.49612686  0.37658661  1
  V  V73  1  0.37243462  0.61693667  0.75110674  1
  V  V74  1  0.50933881  0.75377452  0.24614113  1
  V  V75  1  0.12535508  0.62439666  0.49771461  1
  V  V76  1  0.09714446  0.27935165  0.37625308  1
  V  V77  1  0.13126960  0.86569809  0.25453837  1
  V  V78  1  0.24874920  0.87307678  0.63701341  1
  Zn  Zn79  1  -0.00741782  0.13010174  0.59329783  1
  Zn  Zn80  1  0.87622234  0.25635686  0.14216625  1
  Zn  Zn81  1  0.52158164  0.25256757  0.25270175  1
  Zn  Zn82  1  0.32516292  0.22612771  0.60780794  1
  Zn  Zn83  1  0.12390527  0.36682010  0.23420706  1
  Zn  Zn84  1  -0.00098789  -0.00581979  0.49381744  1
  Zn  Zn85  1  0.76314667  0.12938673  0.86779860  1
  Zn  Zn86  1  -0.00701552  0.21744365  0.75351571  1
  Zn  Zn87  1  0.36920026  0.49208416  0.87124274  1
  Zn  Zn88  1  0.01573336  0.87682592  0.37893302  1
  Zn  Zn89  1  0.00353147  0.49920859  0.49944738  1
  Zn  Zn90  1  0.86500868  0.23292782  0.64321430  1
  Zn  Zn91  1  0.50717481  0.87997243  0.36636475  1
  Zn  Zn92  1  0.87592024  0.87201056  0.48603518  1
  Zn  Zn93  1  0.49670135  0.00346986  0.49323008  1
  Zn  Zn94  1  0.18240599  0.18152267  0.20426854  1
  Zn  Zn95  1  0.15607131  0.17253772  0.70825392  1
  Zn  Zn96  1  0.19399562  0.68023653  0.17868329  1
  Zn  Zn97  1  0.18888692  0.69102121  0.68678936  1
  Zn  Zn98  1  0.68008117  0.16983018  0.18959843  1
  Zn  Zn99  1  0.68297516  0.18635013  0.68048398  1
  Zn  Zn100  1  0.69386392  0.81622202  0.18883621  1
  Zn  Zn101  1  0.68755481  0.68484535  0.69121913  1
  Zn  Zn102  1  0.32916695  0.30987102  0.30462323  1
  Zn  Zn103  1  0.28039834  0.28431723  0.77664488  1
  Zn  Zn104  1  0.31533615  0.81236458  0.31237253  1
  Zn  Zn105  1  0.31583382  0.80610522  0.81536675  1
  Zn  Zn106  1  0.73838148  0.28286867  0.29370505  1
  Zn  Zn107  1  0.81654006  0.31375306  0.81301148  1
  Zn  Zn108  1  0.83220914  0.81277223  0.33035190  1
  Zn  Zn109  1  0.81466909  0.82149094  0.81550493  1
  Zn  Zn110  1  0.16878812  0.41604680  0.44991188  1
  Zn  Zn111  1  0.18865266  0.43339329  0.94453600  1
  Zn  Zn112  1  0.17121163  0.98512283  0.42678854  1
  Zn  Zn113  1  0.18618426  0.93805466  0.94111127  1
  Zn  Zn114  1  0.69208994  0.44500486  0.43838073  1
  Zn  Zn115  1  0.68722218  0.43486716  0.93400350  1
  Zn  Zn116  1  0.68523364  0.93468621  0.44182024  1
  Zn  Zn117  1  0.68989339  0.93896375  0.93349829  1
  Zn  Zn118  1  0.31542105  0.06069959  0.06184798  1
  Zn  Zn119  1  0.30524787  0.05148820  0.54840386  1
  Zn  Zn120  1  0.32060399  0.55956956  0.05540883  1
  Zn  Zn121  1  0.31233503  0.55837910  0.56411238  1
  Zn  Zn122  1  0.81504900  0.06579536  0.07120876  1
  Zn  Zn123  1  0.81662913  0.05361535  0.55808049  1
  Zn  Zn124  1  0.80408122  0.56332422  0.06435506  1
  Zn  Zn125  1  0.81124500  0.56491027  0.56317592  1
  Zn  Zn126  1  0.44495340  0.43281997  0.19281666  1
  Zn  Zn127  1  0.44208298  0.43595632  0.68792560  1
  Zn  Zn128  1  0.44288713  0.93806292  0.18271250  1
  Zn  Zn129  1  0.43295114  0.93285143  0.68445569  1
  Zn  Zn130  1  0.93287287  0.43406058  0.18754236  1
  Zn  Zn131  1  0.94201346  0.44876224  0.69126048  1
  Zn  Zn132  1  0.93001926  0.93373265  0.23173367  1
  Zn  Zn133  1  0.94214368  0.94062223  0.67474574  1
  Zn  Zn134  1  0.03983974  0.10092944  0.36713997  1
  Zn  Zn135  1  0.08652026  0.03083689  0.81592526  1
  Zn  Zn136  1  0.06558936  0.55174772  0.31242711  1
  Zn  Zn137  1  0.06025895  0.57547054  0.81419870  1
  Zn  Zn138  1  0.56248043  0.05450169  0.30942998  1
  Zn  Zn139  1  0.55740690  0.06359014  0.81147638  1
  Zn  Zn140  1  0.56498246  0.56276046  0.31355116  1
  Zn  Zn141  1  0.56346108  0.56097061  0.81556890  1
  Zn  Zn142  1  0.42920330  0.18794674  0.43568969  1
  Zn  Zn143  1  0.43693700  0.18794229  0.93997183  1
  Zn  Zn144  1  0.44304694  0.68513635  0.43299265  1
  Zn  Zn145  1  0.43753033  0.68378113  0.93569838  1
  Zn  Zn146  1  0.92342039  0.19955772  0.44007984  1
  Zn  Zn147  1  0.93368533  0.18649372  0.93784715  1
  Zn  Zn148  1  0.93950895  0.69308151  0.43411898  1
  Zn  Zn149  1  0.93439773  0.69909507  0.93637967  1
  Zn  Zn150  1  0.06175370  0.32092465  0.05946313  1
  Zn  Zn151  1  0.06384261  0.30834896  0.57334903  1
  Zn  Zn152  1  0.06655524  0.80012268  0.07240376  1
  Zn  Zn153  1  0.06636827  0.81554582  0.56100974  1
  Zn  Zn154  1  0.56397340  0.30707777  0.05863284  1
  Zn  Zn155  1  0.55562979  0.31390110  0.56117924  1
  Zn  Zn156  1  0.56413448  0.81340007  0.06208893  1
  Zn  Zn157  1  0.56652427  0.80840666  0.56161222  1
  O  O158  1  0.13678074  0.11168791  0.12022366  1
  O  O159  1  0.14210177  0.11154234  0.60927568  1
  O  O160  1  0.13148865  0.61231246  0.11061536  1
  O  O161  1  0.11994479  0.61769171  0.61839618  1
  O  O162  1  0.62013636  0.12075148  0.10468884  1
  O  O163  1  0.61383797  0.11479143  0.61653255  1
  O  O164  1  0.61425264  0.61186056  0.12243802  1
  O  O165  1  0.63111758  0.61644321  0.61606533  1
  O  O166  1  0.38606119  0.38765586  0.38591342  1
  O  O167  1  0.39115518  0.37334038  0.87827740  1
  O  O168  1  0.38522546  0.87069046  0.38101836  1
  O  O169  1  0.37964326  0.88222997  0.87976771  1
  O  O170  1  0.87148569  0.38784461  0.38279667  1
  O  O171  1  0.88311860  0.38730508  0.88055842  1
  O  O172  1  0.90961841  0.89684500  0.33991102  1
  O  O173  1  0.87369001  0.90125836  0.86964729  1
  O  O174  1  0.27013336  -0.02654843  0.36995023  1
  O  O175  1  0.27000138  0.00669992  0.89424706  1
  O  O176  1  0.26382588  0.51117688  0.36230118  1
  O  O177  1  0.25368309  0.51166413  0.88579523  1
  O  O178  1  0.75053435  0.00621874  0.38009133  1
  O  O179  1  0.75534998  0.00261233  0.86074988  1
  O  O180  1  0.75814731  0.50648095  0.36593432  1
  O  O181  1  0.75174472  0.51054031  0.86859587  1
  O  O182  1  0.26013232  0.50373491  0.13737155  1
  O  O183  1  0.23375571  0.50711134  0.62884117  1
  O  O184  1  0.24384485  0.98449123  0.11399088  1
  O  O185  1  0.25202397  0.97536391  0.61683925  1
  O  O186  1  0.74041494  0.50076232  0.13824429  1
  O  O187  1  0.74014974  0.50543979  0.64000046  1
  O  O188  1  0.74743632  1.00074026  0.13770846  1
  O  O189  1  0.73524721  0.99147795  0.63739222  1
  O  O190  1  -0.00053453  0.34294953  0.21297831  1
  O  O191  1  -0.00023268  0.38978314  0.77099476  1
  O  O192  1  0.02387719  0.85733433  0.24069621  1
  O  O193  1  -0.00222725  0.85700096  0.73128296  1
  O  O194  1  0.50687163  0.38219332  0.27197703  1
  O  O195  1  0.51055819  0.36824332  0.75606513  1
  O  O196  1  0.49421362  0.85596526  0.24613763  1
  O  O197  1  0.50628576  0.86369775  0.75410773  1
  O  O198  1  0.51506138  0.12093179  0.22967209  1
  O  O199  1  0.50374298  0.13333642  0.73706653  1
  O  O200  1  0.49536332  0.62740151  0.24076357  1
  O  O201  1  0.49413297  0.63520265  0.75879576  1
  O  O202  1  0.97437602  0.12739349  0.27384269  1
  O  O203  1  1.06109858  0.12701996  0.76303393  1
  O  O204  1  0.99633682  0.62911203  0.25330061  1
  O  O205  1  0.98855731  0.63669809  0.74474450  1
  O  O206  1  0.36726221  0.25605142  0.00273560  1
  O  O207  1  0.37524600  0.26508214  0.51058797  1
  O  O208  1  0.37146299  0.75505363  0.00237966  1
  O  O209  1  0.37560169  0.74579879  0.50539318  1
  O  O210  1  0.86650143  0.26078692  -0.00088902  1
  O  O211  1  0.86173937  0.27097600  0.50659802  1
  O  O212  1  0.87114645  0.74916018  0.01739501  1
  O  O213  1  0.86059349  0.77190871  0.44001135  1
  O  O214  1  0.12534442  0.30450162  0.47808619  1
  O  O215  1  0.14026452  0.24321337  1.01404605  1
  O  O216  1  0.14024205  0.73186589  0.50449331  1
  O  O217  1  0.13788622  0.73253290  1.00993112  1
  O  O218  1  0.63292138  0.24204681  0.51009091  1
  O  O219  1  0.63274129  0.24271139  0.98923647  1
  O  O220  1  0.61856107  0.73556986  0.48926391  1
  O  O221  1  0.63304444  0.75226888  0.98712218  1
  O  O222  1  0.50626496  0.23251431  0.12024587  1
  O  O223  1  0.50362523  0.23940219  0.63271363  1
  O  O224  1  0.49743285  0.73800038  0.12676690  1
  O  O225  1  0.49473605  0.75111482  0.63624709  1
  O  O226  1  0.99452654  0.28468820  0.15030670  1
  O  O227  1  0.99894571  0.23859632  0.63238719  1
  O  O228  1  0.98642676  0.74538017  0.13334952  1
  O  O229  1  1.00750740  0.73542059  0.63226328  1
  O  O230  1  -0.00089649  0.26534506  0.37784716  1
  O  O231  1  -0.00412472  0.26443841  0.87383466  1
  O  O232  1  0.00742347  0.74874528  0.35146135  1
  O  O233  1  -0.00870782  0.75391146  0.85697611  1
  O  O234  1  0.49776665  0.26697163  0.38371709  1
  O  O235  1  0.50865149  0.25345787  0.86839827  1
  O  O236  1  0.51214566  0.74255960  0.36061124  1
  O  O237  1  0.50760894  0.75349090  0.86982113  1
  O  O238  1  0.23579572  0.09192104  0.46784692  1
  O  O239  1  0.25318151  0.14118846  1.00479986  1
  O  O240  1  0.24730014  0.62673401  0.49197739  1
  O  O241  1  0.25360404  0.63058222  0.99256946  1
  O  O242  1  0.73840348  0.11951651  0.49460074  1
  O  O243  1  0.74394737  0.12983842  0.99396467  1
  O  O244  1  0.74164265  0.61749636  0.48700378  1
  O  O245  1  0.75473855  0.63623320  0.98857475  1
  O  O246  1  0.26053464  0.35882993  -0.00249344  1
  O  O247  1  0.27084623  0.39071442  0.49467991  1
  O  O248  1  0.25341955  0.86439566  0.00413992  1
  O  O249  1  0.26682498  0.85287508  0.50318839  1
  O  O250  1  0.76074144  0.36320357  -0.01253226  1
  O  O251  1  0.75086150  0.36776506  0.50098874  1
  O  O252  1  0.75158791  0.86306112  -0.00805624  1
  O  O253  1  0.74936255  0.87942994  0.51817519  1
  O  O254  1  0.14151055  0.50668181  0.23461703  1
  O  O255  1  0.11870957  0.50571539  0.74272140  1
  O  O256  1  0.12916305  0.97419156  0.23656319  1
  O  O257  1  0.13472032  0.98358593  0.71752570  1
  O  O258  1  0.63702123  0.50252588  0.24553626  1
  O  O259  1  0.62960217  0.49504711  0.74548694  1
  O  O260  1  0.64396204  0.99258922  0.25990685  1
  O  O261  1  0.62123777  0.98903174  0.74478528  1
  O  O262  1  0.38023284  -0.00752701  0.25920257  1
  O  O263  1  0.37875305  -0.00489355  0.76606837  1
  O  O264  1  0.37276167  0.50644371  0.25516474  1
  O  O265  1  0.38630829  0.51303267  0.75200186  1
  O  O266  1  0.85638347  0.02097089  0.24649417  1
  O  O267  1  0.86131691  0.00155693  0.74376933  1
  O  O268  1  0.87066783  0.49949005  0.25963474  1
  O  O269  1  0.86506137  0.51061935  0.76041116  1
  O  O270  1  0.11417179  0.38616424  0.35207818  1
  O  O271  1  0.10299995  0.39225003  0.87636043  1
  O  O272  1  0.13954303  0.85890416  0.35271853  1
  O  O273  1  0.11062206  0.92997959  0.86251835  1
  O  O274  1  0.61346880  0.37916311  0.38957723  1
  O  O275  1  0.61651774  0.36403132  0.86711583  1
  O  O276  1  0.62300726  0.85669731  0.38457573  1
  O  O277  1  0.62009376  0.86683723  0.86584121  1
  O  O278  1  0.39078207  0.11921140  0.12383258  1
  O  O279  1  0.38317781  0.12172013  0.60701786  1
  O  O280  1  0.38373643  0.62650707  0.13255803  1
  O  O281  1  0.37233578  0.63143891  0.63393848  1
  O  O282  1  0.87853466  0.13515192  0.13905996  1
  O  O283  1  0.87909453  0.12419750  0.61573112  1
  O  O284  1  0.87249089  0.61594689  0.13955426  1
  O  O285  1  0.88135525  0.61977772  0.63476385  1
  O  O286  1  0.25331807  0.24708033  0.12396933  1
  O  O287  1  0.24318307  0.24238304  0.67593871  1
  O  O288  1  0.26067259  0.75233815  0.11192436  1
  O  O289  1  0.26704294  0.74726839  0.61602300  1
  O  O290  1  0.74728281  0.24280190  0.10941806  1
  O  O291  1  0.75097085  0.24255945  0.60837748  1
  O  O292  1  0.76852235  0.75444583  0.12031700  1
  O  O293  1  0.73740526  0.76510499  0.63027926  1
  O  O294  1  0.27398012  0.24559793  0.38170063  1
  O  O295  1  0.25704842  0.23262869  0.88059227  1
  O  O296  1  0.26207989  0.73212272  0.38160910  1
  O  O297  1  0.25583537  0.73950242  0.88721159  1
  O  O298  1  0.74527276  0.23461372  0.40084490  1
  O  O299  1  0.73981132  0.24674386  0.87742263  1
  O  O300  1  0.73783152  0.73630969  0.35676908  1
  O  O301  1  0.74535314  0.74651145  0.88069432  1
  O  O302  1  0.01817591  0.14256729  0.00611051  1
  O  O303  1  -0.00647204  0.11741796  0.47649934  1
  O  O304  1  0.01376923  0.63354437  -0.00549891  1
  O  O305  1  0.00782835  0.62862736  0.50389720  1
  O  O306  1  0.50685056  0.11812104  0.00484732  1
  O  O307  1  0.50714449  0.12729692  0.50707649  1
  O  O308  1  0.49229638  0.60917115  0.00683726  1
  O  O309  1  0.51311119  0.61313148  0.49313351  1
  O  O310  1  0.49152001  0.38766042  0.49514772  1
  O  O311  1  0.49453239  0.37660826  0.99284751  1
  O  O312  1  0.49136148  0.86957875  0.49923863  1
  O  O313  1  0.49610011  0.88043684  0.99258035  1
  O  O314  1  0.97960846  0.38154361  0.51336147  1
  O  O315  1  0.98175621  0.37260455  0.98863695  1
  O  O316  1  0.99536779  0.86526219  0.49332386  1
  O  O317  1  1.00640256  0.87633801  1.00681303  1
  O  O318  1  0.49532303  0.49598416  0.38373650  1
  O  O319  1  0.50561043  0.48852922  0.88367479  1
  O  O320  1  0.48857952  0.99533373  0.37521445  1
  O  O321  1  0.48918154  0.99616838  0.88120750  1
  O  O322  1  0.98337707  0.50350700  0.37874885  1
  O  O323  1  0.98247887  0.51096731  0.87732437  1
  O  O324  1  1.06056649  0.99154420  0.38791304  1
  O  O325  1  0.99256231  1.00539126  0.90399888  1
  O  O326  1  0.00977996  -0.00993675  0.12201919  1
  O  O327  1  0.01190763  0.01431555  0.62175250  1
  O  O328  1  0.01073875  0.50326582  0.13375753  1
  O  O329  1  0.00725667  0.51765079  0.62328559  1
  O  O330  1  0.50071183  0.00653567  0.11015028  1
  O  O331  1  0.50447956  0.00684238  0.62570101  1
  O  O332  1  0.50811539  0.50209892  0.11943788  1
  O  O333  1  0.51357517  0.49866767  0.61685218  1
  O  O334  1  0.25908761  0.39213913  0.25359796  1
  O  O335  1  0.22539585  0.38605214  0.77670106  1
  O  O336  1  0.24340476  0.85328255  0.23174685  1
  O  O337  1  0.26557626  0.86492779  0.73555812  1
  O  O338  1  0.75330031  0.39204327  0.25796117  1
  O  O339  1  0.73876902  0.38796363  0.76264595  1
  O  O340  1  0.76192239  0.88289517  0.25783062  1
  O  O341  1  0.73799367  0.88504110  0.74603109  1
  O  O342  1  0.23401686  0.11543063  0.28413392  1
  O  O343  1  0.23561717  0.11370626  0.78071385  1
  O  O344  1  0.26266574  0.61990149  0.25342023  1
  O  O345  1  0.26117426  0.63320969  0.76198674  1
  O  O346  1  0.74644957  0.10984850  0.26745356  1
  O  O347  1  0.73817322  0.10925051  0.74861409  1
  O  O348  1  0.76388850  0.60776863  0.26070336  1
  O  O349  1  0.75468732  0.61827982  0.75907824  1
  O  O350  1  0.36579174  0.10665304  0.38115721  1
  O  O351  1  0.36955113  0.11367595  0.87981101  1
  O  O352  1  0.37450495  0.61573308  0.36453868  1
  O  O353  1  0.36854774  0.62109475  0.86735300  1
  O  O354  1  0.85415070  0.12813850  0.37417709  1
  O  O355  1  0.87556011  0.10553366  0.88110643  1
  O  O356  1  0.86910004  0.61660094  0.36746957  1
  O  O357  1  0.86448432  0.62363905  0.86904080  1
  O  O358  1  0.12857375  0.39651003  0.11965940  1
  O  O359  1  0.11392817  0.39509564  0.64414197  1
  O  O360  1  0.13782862  0.87692048  0.12386286  1
  O  O361  1  0.15248301  0.84622029  0.62747308  1
  O  O362  1  0.61847452  0.38193887  0.12749413  1
  O  O363  1  0.62070615  0.38459591  0.63741241  1
  O  O364  1  0.62519466  0.87554865  0.12589273  1
  O  O365  1  0.62508915  0.88184689  0.63298173  1
  O  O366  1  0.13401689  0.25980365  0.26955156  1
  O  O367  1  0.11061911  0.28088696  0.75427305  1
  O  O368  1  0.11741796  0.74730785  0.23189776  1
  O  O369  1  0.11493837  0.74153967  0.75614278  1
  O  O370  1  0.63558251  0.24858263  0.25397697  1
  O  O371  1  0.62097079  0.25660086  0.75422195  1
  O  O372  1  0.61823761  0.74776670  0.25588913  1
  O  O373  1  0.61907620  0.75682029  0.75780778  1
  O  O374  1  0.40697834  0.26125247  0.24503052  1
  O  O375  1  0.39224100  0.25823354  0.75192636  1
  O  O376  1  0.38436724  0.73775811  0.24336990  1
  O  O377  1  0.38574050  0.73966693  0.74384707  1
  O  O378  1  0.84097957  0.23223608  0.25318547  1
  O  O379  1  0.88184783  0.24796748  0.75404423  1
  O  O380  1  0.88673514  0.73934887  0.23952483  1
  O  O381  1  0.86837391  0.73983185  0.75292051  1
  O  O382  1  0.38532166  0.50137822  0.49420636  1
  O  O383  1  0.38792853  0.48638692  0.99526129  1
  O  O384  1  0.37905769  0.98090466  0.49043709  1
  O  O385  1  0.38787969  0.99246997  0.99430101  1
  O  O386  1  0.86642116  0.49055585  0.49094408  1
  O  O387  1  0.85938545  0.48797116  0.99217871  1
  O  O388  1  0.88427934  0.98071465  0.50870550  1
  O  O389  1  0.88788049  0.99759261  1.00606397  1
  O  O390  1  0.11024179  0.00544081  0.01605081  1
  O  O391  1  0.12339536  -0.03653285  0.52852181  1
  O  O392  1  0.12582262  0.50988931  0.01121816  1
  O  O393  1  0.12316277  0.50739062  0.51277350  1
  O  O394  1  0.61460675  0.00924982  -0.01792409  1
  O  O395  1  0.61821732  0.00510775  0.51123743  1
  O  O396  1  0.61438780  0.48908377  0.00804878  1
  O  O397  1  0.62199064  0.50759811  0.50891796  1
  O  O398  1  0.38355333  0.37699936  0.11482309  1
  O  O399  1  0.37637720  0.38404995  0.61268010  1
  O  O400  1  0.37009073  0.86812397  0.11735039  1
  O  O401  1  0.37223843  0.85961347  0.61534004  1
  O  O402  1  0.86916561  0.37705244  0.10792509  1
  O  O403  1  0.86822255  0.38902412  0.62148381  1
  O  O404  1  0.88406562  0.86766487  0.13757340  1
  O  O405  1  0.85543558  0.87193060  0.63516693  1
  O  O406  1  0.13154048  0.17262777  0.38932785  1
  O  O407  1  0.14516212  0.11193458  0.91011248  1
  O  O408  1  0.13770546  0.61085617  0.38450095  1
  O  O409  1  0.13512435  0.61771508  0.89210517  1
  O  O410  1  0.62918229  0.11662797  0.38969294  1
  O  O411  1  0.62049179  0.13594605  0.88006633  1
  O  O412  1  0.63482724  0.62838194  0.38063491  1
  O  O413  1  0.63555860  0.63640119  0.86716268  1
