# generated using pymatgen
data_V79Zn79O256
_symmetry_space_group_name_H-M   'P 1'
_cell_length_a   16.92253437
_cell_length_b   16.91767201
_cell_length_c   16.92594361
_cell_angle_alpha   90.06120866
_cell_angle_beta   89.99022062
_cell_angle_gamma   90.04558638
_symmetry_Int_Tables_number   1
_chemical_formula_structural   V79Zn79O256
_chemical_formula_sum   'V79 Zn79 O256'
_cell_volume   4845.72210028
_cell_formula_units_Z   1
loop_
 _symmetry_equiv_pos_site_id
 _symmetry_equiv_pos_as_xyz
  1  'x, y, z'
loop_
 _atom_site_type_symbol
 _atom_site_label
 _atom_site_symmetry_multiplicity
 _atom_site_fract_x
 _atom_site_fract_y
 _atom_site_fract_z
 _atom_site_occupancy
  V  V0  1  0.12490369  -0.00312221  0.12149090  1
  V  V1  1  0.12122751  0.87110979  0.25351588  1
  V  V2  1  0.87657539  0.87516828  -0.00664178  1
  V  V3  1  0.25662148  0.12435829  0.87193994  1
  V  V4  1  0.11737755  0.11770107  0.49896530  1
  V  V5  1  0.38843166  0.37672459  0.00241506  1
  V  V6  1  0.63606401  0.74510258  0.36723899  1
  V  V7  1  0.49841686  -0.01442939  -0.00053772  1
  V  V8  1  0.24127637  0.25061129  0.49611559  1
  V  V9  1  0.00099427  0.61947532  0.11377809  1
  V  V10  1  0.25163536  0.50038015  0.24894468  1
  V  V11  1  0.25072562  0.37131894  0.11734490  1
  V  V12  1  -0.00541614  0.50435587  0.50218507  1
  V  V13  1  0.62266323  0.63663330  0.49969852  1
  V  V14  1  0.87874857  0.38102018  0.00174854  1
  V  V15  1  0.25374257  0.00366110  0.75126777  1
  V  V16  1  -0.00149770  0.24602234  0.25693631  1
  V  V17  1  0.61901575  0.25006328  0.86376662  1
  V  V18  1  0.61759107  0.76837220  0.87776293  1
  V  V19  1  0.12456456  0.37264491  0.25602775  1
  V  V20  1  0.86218630  0.50519050  0.87024481  1
  V  V21  1  0.23846932  0.12735716  0.37311405  1
  V  V22  1  0.24985137  0.37447700  0.62632742  1
  V  V23  1  0.37865849  0.62522487  0.74935294  1
  V  V24  1  0.24798751  0.87623297  0.62633115  1
  V  V25  1  0.75173526  0.87475240  0.13460605  1
  V  V26  1  0.38127825  0.49480473  0.37141185  1
  V  V27  1  -0.00085251  0.73576876  0.73643306  1
  V  V28  1  0.74639078  0.25088867  0.00386491  1
  V  V29  1  0.38256624  0.23977104  0.63572871  1
  V  V30  1  0.37300069  0.12776138  0.25082053  1
  V  V31  1  0.50343248  0.37688635  0.85929097  1
  V  V32  1  0.50245606  0.12739226  0.12526206  1
  V  V33  1  0.12964026  0.12676287  0.00019038  1
  V  V34  1  0.61427081  0.50534822  0.63365287  1
  V  V35  1  0.38612558  0.74524522  0.62558174  1
  V  V36  1  0.74445516  0.38388022  0.12799510  1
  V  V37  1  0.00022205  -0.00385552  -0.00491704  1
  V  V38  1  0.37533939  0.50593470  0.87945806  1
  V  V39  1  0.49022596  0.85843233  0.36055449  1
  V  V40  1  0.87548629  0.25366513  0.62957156  1
  V  V41  1  0.26202324  0.74487771  -0.00797780  1
  V  V42  1  0.00204660  0.38325816  0.88078364  1
  V  V43  1  0.62830896  0.00042308  0.13778929  1
  V  V44  1  0.62311375  0.61125935  -0.00638644  1
  V  V45  1  0.76537963  0.50728632  0.26760554  1
  V  V46  1  0.37970798  0.63866056  0.24068162  1
  V  V47  1  0.76599450  0.12638729  0.36710492  1
  V  V48  1  0.87382472  0.00161909  0.86648585  1
  V  V49  1  0.38207156  0.00320442  0.37724811  1
  V  V50  1  0.12453658  0.37283719  0.75011536  1
  V  V51  1  0.87666235  0.74249132  0.12602054  1
  V  V52  1  0.11702550  0.74197313  0.87859283  1
  V  V53  1  0.37977834  0.87849904  0.49927104  1
  V  V54  1  0.50609478  0.62514769  0.11865939  1
  V  V55  1  0.75051530  0.89044302  0.63074354  1
  V  V56  1  -0.00634909  0.38118010  0.37575958  1
  V  V57  1  0.12945505  0.24980107  0.88018384  1
  V  V58  1  0.00285361  0.74177838  0.25340736  1
  V  V59  1  0.89004857  0.88905379  0.48822145  1
  V  V60  1  0.76032466  0.12670953  0.86888424  1
  V  V61  1  0.50440533  0.76548774  0.75237203  1
  V  V62  1  0.87526832  0.24566533  0.12987555  1
  V  V63  1  0.26122133  0.86712485  0.11679284  1
  V  V64  1  0.86296051  0.74459495  0.61183161  1
  V  V65  1  0.11713785  0.87609497  0.75695143  1
  V  V66  1  0.37202340  0.25089002  0.12047379  1
  V  V67  1  0.74747639  0.74700310  -0.00596528  1
  V  V68  1  0.38059876  0.37453877  0.49516134  1
  V  V69  1  0.74340796  0.38737984  0.63561287  1
  V  V70  1  0.24818483  -0.00038976  0.24782863  1
  V  V71  1  0.49983527  0.25454164  0.25715292  1
  V  V72  1  0.62144326  0.23974347  0.37936958  1
  V  V73  1  -0.00545526  0.11818781  0.63045344  1
  V  V74  1  0.12297587  0.50675468  0.62477987  1
  V  V75  1  0.12031445  0.49773186  0.11650551  1
  V  V76  1  0.74395409  0.24779187  0.50162707  1
  V  V77  1  0.24975111  0.74636234  0.49938318  1
  V  V78  1  0.62148937  0.38461197  0.25833092  1
  Zn  Zn79  1  0.12932244  0.61314765  -0.01050489  1
  Zn  Zn80  1  0.24933520  0.62654617  0.37163274  1
  Zn  Zn81  1  0.24715849  0.51101033  0.75431188  1
  Zn  Zn82  1  -0.00651603  0.12111922  0.12950298  1
  Zn  Zn83  1  0.49867506  0.50355146  0.50007266  1
  Zn  Zn84  1  0.86656146  0.38236063  0.49635350  1
  Zn  Zn85  1  0.85731562  0.60850611  0.73363207  1
  Zn  Zn86  1  -0.00731647  0.24686180  0.75527324  1
  Zn  Zn87  1  0.12605814  0.62515913  0.49861849  1
  Zn  Zn88  1  0.77582128  0.00413167  0.25332178  1
  Zn  Zn89  1  0.11429177  -0.00567150  0.62047312  1
  Zn  Zn90  1  0.12304388  0.75050238  0.37969789  1
  Zn  Zn91  1  0.61532788  0.86504674  0.24499734  1
  Zn  Zn92  1  0.38463750  -0.00973294  0.87731010  1
  Zn  Zn93  1  0.62658997  0.12326343  0.00180639  1
  Zn  Zn94  1  0.18357012  0.18875362  0.18683419  1
  Zn  Zn95  1  0.18512287  0.18749392  0.68553979  1
  Zn  Zn96  1  0.18829465  0.68436197  0.18000078  1
  Zn  Zn97  1  0.19476464  0.68982350  0.69260735  1
  Zn  Zn98  1  0.68674382  0.18951965  0.19304799  1
  Zn  Zn99  1  0.69565997  0.18861810  0.68956415  1
  Zn  Zn100  1  0.68755763  0.68205484  0.18420912  1
  Zn  Zn101  1  0.68331976  0.68411632  0.68388415  1
  Zn  Zn102  1  0.30958952  0.31206509  0.31124507  1
  Zn  Zn103  1  0.31277604  0.31265417  0.81449240  1
  Zn  Zn104  1  0.30577003  0.81555627  0.31027512  1
  Zn  Zn105  1  0.31124137  0.81266620  0.81515298  1
  Zn  Zn106  1  0.81031938  0.31567714  0.31353023  1
  Zn  Zn107  1  0.81067538  0.31765831  0.81305584  1
  Zn  Zn108  1  0.83908876  0.76416395  0.34375616  1
  Zn  Zn109  1  0.78879876  0.77329565  0.78420089  1
  Zn  Zn110  1  0.18711370  0.43938304  0.43754107  1
  Zn  Zn111  1  0.19573679  0.43336800  0.93673263  1
  Zn  Zn112  1  0.18929246  0.93853743  0.43713401  1
  Zn  Zn113  1  0.19515223  0.93284404  0.93342918  1
  Zn  Zn114  1  0.68226272  0.43935353  0.44329570  1
  Zn  Zn115  1  0.68845241  0.43194093  0.93223857  1
  Zn  Zn116  1  0.72692419  0.94575278  0.44665477  1
  Zn  Zn117  1  0.68948207  0.94049209  0.94523856  1
  Zn  Zn118  1  0.31321035  0.06111069  0.06021022  1
  Zn  Zn119  1  0.31036615  0.06275174  0.56078255  1
  Zn  Zn120  1  0.31289862  0.56356406  0.06167770  1
  Zn  Zn121  1  0.31444092  0.56107179  0.56473617  1
  Zn  Zn122  1  0.81088547  0.06294593  0.06002005  1
  Zn  Zn123  1  0.81925690  0.06316042  0.55510323  1
  Zn  Zn124  1  0.80817892  0.56271982  0.06088660  1
  Zn  Zn125  1  0.80428001  0.56818174  0.55053451  1
  Zn  Zn126  1  0.44323465  0.44328597  0.18426542  1
  Zn  Zn127  1  0.43430016  0.43410933  0.68749859  1
  Zn  Zn128  1  0.43615890  0.94289813  0.18513778  1
  Zn  Zn129  1  0.43255650  0.93670019  0.69049351  1
  Zn  Zn130  1  0.93597092  0.43695339  0.18823297  1
  Zn  Zn131  1  0.93703417  0.43428591  0.68698800  1
  Zn  Zn132  1  0.94226182  0.92642444  0.18107941  1
  Zn  Zn133  1  0.92847851  0.92956487  0.68674168  1
  Zn  Zn134  1  0.05191697  0.05510491  0.31160364  1
  Zn  Zn135  1  0.06278133  0.06319705  0.81185296  1
  Zn  Zn136  1  0.06375338  0.56499450  0.31303735  1
  Zn  Zn137  1  0.05722201  0.56096774  0.80932229  1
  Zn  Zn138  1  0.56548479  0.05143516  0.45606873  1
  Zn  Zn139  1  0.56956752  0.06081390  0.81797747  1
  Zn  Zn140  1  0.55920059  0.56831259  0.31097748  1
  Zn  Zn141  1  0.56100546  0.57120385  0.81394092  1
  Zn  Zn142  1  0.43266570  0.18719706  0.44573475  1
  Zn  Zn143  1  0.43774472  0.18678050  0.93868209  1
  Zn  Zn144  1  0.43385864  0.67864638  0.43802349  1
  Zn  Zn145  1  0.44574462  0.68966009  0.93798534  1
  Zn  Zn146  1  0.93771786  0.19528654  0.44445048  1
  Zn  Zn147  1  0.94224085  0.19027248  0.94335024  1
  Zn  Zn148  1  0.93603130  0.67288846  0.44046495  1
  Zn  Zn149  1  0.94031009  0.68725369  0.93444448  1
  Zn  Zn150  1  0.06108791  0.31097700  0.06549178  1
  Zn  Zn151  1  0.06029093  0.31249477  0.56137072  1
  Zn  Zn152  1  0.06241080  0.81216782  0.06268774  1
  Zn  Zn153  1  0.06050824  0.81395355  0.55985607  1
  Zn  Zn154  1  0.56488848  0.31556750  0.06643250  1
  Zn  Zn155  1  0.56180523  0.31299321  0.56708401  1
  Zn  Zn156  1  0.55914798  0.80621488  0.07001405  1
  Zn  Zn157  1  0.59673001  0.85891478  0.52474211  1
  O  O158  1  0.12845814  0.11241726  0.11739809  1
  O  O159  1  0.11376710  0.12270464  0.61704805  1
  O  O160  1  0.11930601  0.61226982  0.12037574  1
  O  O161  1  0.13566534  0.60924280  0.63066333  1
  O  O162  1  0.61883002  0.11931554  0.12858691  1
  O  O163  1  0.63842251  0.08431124  0.66713487  1
  O  O164  1  0.61571991  0.62860208  0.10987481  1
  O  O165  1  0.62311996  0.61711368  0.61327050  1
  O  O166  1  0.36372612  0.38199378  0.38392851  1
  O  O167  1  0.38847135  0.37437466  0.88227092  1
  O  O168  1  0.37451532  0.88243389  0.37780530  1
  O  O169  1  0.35692137  0.88255188  0.88569094  1
  O  O170  1  0.88890564  0.37260557  0.37785008  1
  O  O171  1  0.88265948  0.38094645  0.88164220  1
  O  O172  1  0.87124814  0.86263556  0.39050999  1
  O  O173  1  0.86554245  0.89363966  0.88890356  1
  O  O174  1  0.25580257  0.00818084  0.36692013  1
  O  O175  1  0.24327860  0.01098520  0.86645098  1
  O  O176  1  0.25471626  0.49933882  0.36147101  1
  O  O177  1  0.27069789  0.48783408  0.86925483  1
  O  O178  1  0.75502304  0.02094624  0.36881221  1
  O  O179  1  0.75978652  0.01651492  0.88460206  1
  O  O180  1  0.75000581  0.49308222  0.36648052  1
  O  O181  1  0.76307908  0.49114167  0.86980695  1
  O  O182  1  0.24484622  0.48973611  0.13096058  1
  O  O183  1  0.24384469  0.48800758  0.62707539  1
  O  O184  1  0.24272039  0.99020289  0.12573818  1
  O  O185  1  0.24847364  0.98969963  0.63228390  1
  O  O186  1  0.75561815  0.48651961  0.13153863  1
  O  O187  1  0.74324966  0.49154149  0.62101759  1
  O  O188  1  0.74753656  0.99540733  0.12946886  1
  O  O189  1  0.76734871  0.99166408  0.62620814  1
  O  O190  1  0.00719435  0.37199494  0.25655200  1
  O  O191  1  0.01117785  0.37331772  0.76021109  1
  O  O192  1  0.01309714  0.85621034  0.23712212  1
  O  O193  1  0.01567833  0.86719207  0.74194980  1
  O  O194  1  0.51236930  0.36713787  0.24179509  1
  O  O195  1  0.49700751  0.36811048  0.76155830  1
  O  O196  1  0.49235468  0.87525481  0.25792744  1
  O  O197  1  0.49765256  0.86550629  0.75153858  1
  O  O198  1  0.49002665  0.13760343  0.23589932  1
  O  O199  1  0.48885969  0.08663424  0.72838628  1
  O  O200  1  0.48584641  0.62687917  0.24230381  1
  O  O201  1  0.48578796  0.64162190  0.75893324  1
  O  O202  1  1.00839627  0.14367126  0.24766263  1
  O  O203  1  1.00795670  0.13079103  0.73511403  1
  O  O204  1  1.00880223  0.63584970  0.23371387  1
  O  O205  1  0.99092618  0.63409329  0.75113263  1
  O  O206  1  0.38006900  0.25833457  0.01383548  1
  O  O207  1  0.35930251  0.25837508  0.50499153  1
  O  O208  1  0.36063643  0.74570139  -0.01069090  1
  O  O209  1  0.36845836  0.75600209  0.50844825  1
  O  O210  1  0.86622166  0.26007327  0.00630064  1
  O  O211  1  0.86531033  0.25812983  0.51271985  1
  O  O212  1  0.86885604  0.75591323  0.00168660  1
  O  O213  1  0.89166700  0.75180440  0.51346974  1
  O  O214  1  0.13559627  0.24180018  0.50344984  1
  O  O215  1  0.12001181  0.23944183  0.99346413  1
  O  O216  1  0.13728995  0.74877873  0.50229504  1
  O  O217  1  0.12218442  0.75204657  0.98409470  1
  O  O218  1  0.63225938  0.26001225  0.49158925  1
  O  O219  1  0.63589407  0.25207839  0.99590054  1
  O  O220  1  0.61173134  0.74355169  0.48640532  1
  O  O221  1  0.62854560  0.75055950  0.98985403  1
  O  O222  1  0.49256855  0.24693030  0.13325574  1
  O  O223  1  0.48201031  0.25330241  0.62147952  1
  O  O224  1  0.49668393  0.73013734  0.12270720  1
  O  O225  1  0.48976991  0.75565042  0.64110021  1
  O  O226  1  0.99093910  0.25109721  0.13495745  1
  O  O227  1  0.99098563  0.24798086  0.62745077  1
  O  O228  1  0.99492735  0.74001694  0.12502777  1
  O  O229  1  1.01362178  0.74106186  0.63612867  1
  O  O230  1  -0.00136003  0.25932001  0.36191071  1
  O  O231  1  0.01008871  0.25844774  0.87458578  1
  O  O232  1  0.00399357  0.74129453  0.35514286  1
  O  O233  1  0.01083727  0.74959858  0.86193001  1
  O  O234  1  0.50238078  0.24420619  0.36288875  1
  O  O235  1  0.51267088  0.25441376  0.87968477  1
  O  O236  1  0.47949117  0.75899527  0.36733182  1
  O  O237  1  0.50867647  0.75747614  0.86907893  1
  O  O238  1  0.23932760  0.13111970  0.49113170  1
  O  O239  1  0.23642694  0.11561552  0.99053265  1
  O  O240  1  0.25270982  0.63689281  0.50186844  1
  O  O241  1  0.24419656  0.64062854  1.00783198  1
  O  O242  1  0.75415307  0.14050902  0.49164787  1
  O  O243  1  0.74923646  0.13834160  0.99497373  1
  O  O244  1  0.72384012  0.62466160  0.49514539  1
  O  O245  1  0.73483695  0.63714196  1.00854516  1
  O  O246  1  0.26394958  0.37495163  0.01215445  1
  O  O247  1  0.25121378  0.36847811  0.50695074  1
  O  O248  1  0.24483269  0.86535343  0.01085910  1
  O  O249  1  0.25609577  0.86778698  0.50805492  1
  O  O250  1  0.75514267  0.36776624  0.00756508  1
  O  O251  1  0.74936641  0.36623157  0.50865923  1
  O  O252  1  0.75815923  0.86833085  0.01072159  1
  O  O253  1  0.77513169  0.87324275  0.51589992  1
  O  O254  1  0.13298317  0.49181259  0.23941775  1
  O  O255  1  0.12623135  0.49009746  0.74508517  1
  O  O256  1  0.12648392  0.99236020  0.24043113  1
  O  O257  1  0.12817266  0.98619665  0.74930667  1
  O  O258  1  0.62525257  0.48604972  0.25870897  1
  O  O259  1  0.62173461  0.51543225  0.73336584  1
  O  O260  1  0.62707291  0.98901445  0.23737380  1
  O  O261  1  0.64213444  1.03408601  0.72514157  1
  O  O262  1  0.36687242  0.00824926  0.25530510  1
  O  O263  1  0.35662374  -0.00661126  0.75669709  1
  O  O264  1  0.36513009  0.49745251  0.25389135  1
  O  O265  1  0.37728467  0.50663111  0.75907657  1
  O  O266  1  0.90277901  0.00807961  0.25400574  1
  O  O267  1  0.88221187  -0.00273806  0.76900498  1
  O  O268  1  0.86503079  0.49584455  0.25292181  1
  O  O269  1  0.88323670  0.50013514  0.76447478  1
  O  O270  1  0.11919318  0.37908982  0.36145545  1
  O  O271  1  0.12241073  0.36915850  0.87223400  1
  O  O272  1  0.13333104  0.87304974  0.35820321  1
  O  O273  1  0.12740803  0.86600996  0.86139264  1
  O  O274  1  0.62814788  0.36373345  0.36182193  1
  O  O275  1  0.61329931  0.36330114  0.87765430  1
  O  O276  1  0.59856195  0.85465012  0.37121999  1
  O  O277  1  0.62746899  0.86760140  0.87810477  1
  O  O278  1  0.37762331  0.13374925  0.12934554  1
  O  O279  1  0.36185521  0.14154900  0.62123586  1
  O  O280  1  0.38002440  0.62177750  0.13499999  1
  O  O281  1  0.37381352  0.63549057  0.63280401  1
  O  O282  1  0.87477870  0.14073964  0.11904703  1
  O  O283  1  0.88921586  0.13628519  0.61788724  1
  O  O284  1  0.88296475  0.63471868  0.11352802  1
  O  O285  1  0.86856178  0.63725418  0.61997121  1
  O  O286  1  0.26071838  0.25932634  0.13355483  1
  O  O287  1  0.25114657  0.25981429  0.61719192  1
  O  O288  1  0.24369147  0.76113993  0.11129081  1
  O  O289  1  0.25996730  0.76021852  0.62113539  1
  O  O290  1  0.75598284  0.25835282  0.12189917  1
  O  O291  1  0.75138761  0.25716586  0.61902578  1
  O  O292  1  0.75806484  0.75511940  0.11807191  1
  O  O293  1  0.76234988  0.75532001  0.61713858  1
  O  O294  1  0.25101856  0.23744317  0.38049870  1
  O  O295  1  0.23743112  0.24247220  0.87153592  1
  O  O296  1  0.25098286  0.75141949  0.38915043  1
  O  O297  1  0.23549264  0.75299956  0.88650151  1
  O  O298  1  0.74325427  0.24600386  0.38067816  1
  O  O299  1  0.74346630  0.24698953  0.88340477  1
  O  O300  1  0.73055186  0.76373885  0.38072671  1
  O  O301  1  0.73733097  0.75810038  0.88887215  1
  O  O302  1  0.01169330  0.11573896  0.00485043  1
  O  O303  1  0.01038716  0.13443426  0.50995111  1
  O  O304  1  0.00795117  0.62725394  0.00972170  1
  O  O305  1  0.00718915  0.60808261  0.50004401  1
  O  O306  1  0.50357648  0.12827342  0.01669525  1
  O  O307  1  0.49714903  0.12073246  0.50259973  1
  O  O308  1  0.51050865  0.62355191  0.00624110  1
  O  O309  1  0.50968110  0.62010272  0.49645643  1
  O  O310  1  0.48257143  0.37541893  0.50210193  1
  O  O311  1  0.49194789  0.37443364  0.99796308  1
  O  O312  1  0.48252937  0.86991508  0.48608740  1
  O  O313  1  0.50341650  0.88702859  1.00827019  1
  O  O314  1  1.00266445  0.38307292  0.49012639  1
  O  O315  1  0.98926247  0.36792496  0.99388556  1
  O  O316  1  0.99318404  0.87800413  0.50055854  1
  O  O317  1  0.99080534  0.88507734  1.00411887  1
  O  O318  1  0.48348968  0.49955124  0.36966080  1
  O  O319  1  0.49255581  0.48415371  0.86898432  1
  O  O320  1  0.48267924  0.98936650  0.37331648  1
  O  O321  1  0.50493939  1.00871631  0.89430220  1
  O  O322  1  1.00789689  0.49316906  0.38874345  1
  O  O323  1  0.99809426  0.48656821  0.87783303  1
  O  O324  1  0.94852302  1.00029973  0.32324383  1
  O  O325  1  0.98691839  1.00972571  0.88545637  1
  O  O326  1  0.01000060  0.00078574  0.11571239  1
  O  O327  1  -0.00553926  0.01479607  0.63097538  1
  O  O328  1  0.00961220  0.50539424  0.12990735  1
  O  O329  1  0.01087462  0.48826484  0.61268928  1
  O  O330  1  0.50775006  0.00831338  0.11993926  1
  O  O331  1  0.49275217  0.03885980  0.66797487  1
  O  O332  1  0.49883271  0.52069615  0.12757013  1
  O  O333  1  0.51124137  0.49103286  0.62386913  1
  O  O334  1  0.24307838  0.38015360  0.24047915  1
  O  O335  1  0.24013147  0.37538350  0.74237178  1
  O  O336  1  0.24097513  0.87807544  0.23505525  1
  O  O337  1  0.23896802  0.87875062  0.74173376  1
  O  O338  1  0.74038876  0.38313797  0.24661170  1
  O  O339  1  0.74710830  0.37368166  0.73480513  1
  O  O340  1  0.75854509  0.88036706  0.23596766  1
  O  O341  1  0.76875274  0.87030866  0.73137836  1
  O  O342  1  0.25071744  0.12178064  0.25516621  1
  O  O343  1  0.23692561  0.11437286  0.75891157  1
  O  O344  1  0.25892501  0.61276624  0.24147199  1
  O  O345  1  0.26975278  0.62778198  0.75347896  1
  O  O346  1  0.75490044  0.12932282  0.26188520  1
  O  O347  1  0.75954274  0.13484634  0.77069759  1
  O  O348  1  0.74191187  0.60276364  0.24306640  1
  O  O349  1  0.76273706  0.66331535  0.75952130  1
  O  O350  1  0.36186785  0.11972678  0.37008181  1
  O  O351  1  0.35985762  0.12356097  0.88259077  1
  O  O352  1  0.36892001  0.61407586  0.35917737  1
  O  O353  1  0.38353998  0.60870539  0.87441173  1
  O  O354  1  0.86456402  0.13897495  0.37706998  1
  O  O355  1  0.86794679  0.11880502  0.88526891  1
  O  O356  1  0.86045854  0.65559462  0.36419929  1
  O  O357  1  0.87836296  0.60511104  0.88422463  1
  O  O358  1  0.13211049  0.37921607  0.12969222  1
  O  O359  1  0.13111161  0.37933439  0.63296628  1
  O  O360  1  0.13095006  0.88396758  0.12856221  1
  O  O361  1  0.13449217  0.87452109  0.63318123  1
  O  O362  1  0.63573571  0.36671924  0.14141273  1
  O  O363  1  0.63426109  0.38888893  0.62118408  1
  O  O364  1  0.63554441  0.87877908  0.12551726  1
  O  O365  1  0.64997772  0.87094982  0.62348723  1
  O  O366  1  0.11111486  0.26262663  0.23940921  1
  O  O367  1  0.12376953  0.26020386  0.75913049  1
  O  O368  1  0.11859519  0.75440839  0.24408255  1
  O  O369  1  0.12091923  0.75582208  0.75725389  1
  O  O370  1  0.61665984  0.25566826  0.25914980  1
  O  O371  1  0.62631946  0.24453576  0.76493506  1
  O  O372  1  0.62863756  0.74765074  0.26012977  1
  O  O373  1  0.61166841  0.74720242  0.76366719  1
  O  O374  1  0.38119228  0.24969258  0.24203258  1
  O  O375  1  0.36849153  0.25457942  0.73508943  1
  O  O376  1  0.36177925  0.73587692  0.24919340  1
  O  O377  1  0.38193195  0.74828260  0.74591765  1
  O  O378  1  0.88843445  0.26108594  0.24197791  1
  O  O379  1  0.87382376  0.25754580  0.73612917  1
  O  O380  1  0.89234813  0.75591650  0.23400607  1
  O  O381  1  0.89571266  0.75792219  0.73017555  1
  O  O382  1  0.37228580  0.49253163  0.49011238  1
  O  O383  1  0.37289760  0.49237915  0.98742901  1
  O  O384  1  0.36199264  0.98844743  0.48967671  1
  O  O385  1  0.39524304  1.00578251  1.00462294  1
  O  O386  1  0.89078244  0.50062917  0.50681264  1
  O  O387  1  0.86701774  0.48637807  0.99152137  1
  O  O388  1  0.88082060  0.99120738  0.49095647  1
  O  O389  1  0.88381398  0.99431490  1.00013203  1
  O  O390  1  0.11859835  0.00199298  0.00284454  1
  O  O391  1  0.12934047  0.01106278  0.50337279  1
  O  O392  1  0.13403057  0.49519452  0.01157411  1
  O  O393  1  0.12041849  0.49992412  0.51025054  1
  O  O394  1  0.61668140  0.00349934  0.01295923  1
  O  O395  1  0.62478534  -0.03405015  0.48667216  1
  O  O396  1  0.63244537  0.51254394  -0.00924974  1
  O  O397  1  0.61787802  0.50953387  0.50706103  1
  O  O398  1  0.37118861  0.37080228  0.12074769  1
  O  O399  1  0.36388905  0.37018458  0.61682665  1
  O  O400  1  0.35930552  0.87813556  0.12760938  1
  O  O401  1  0.36926213  0.87037855  0.61759225  1
  O  O402  1  0.86815417  0.36732636  0.11827383  1
  O  O403  1  0.86135877  0.37221113  0.62215223  1
  O  O404  1  0.87072920  0.86460432  0.11333478  1
  O  O405  1  0.87767862  0.86225175  0.61323795  1
  O  O406  1  0.13045124  0.11263410  0.37940814  1
  O  O407  1  0.12846700  0.13247412  0.88190911  1
  O  O408  1  0.13304906  0.63039871  0.37761403  1
  O  O409  1  0.12269136  0.63620695  0.87202986  1
  O  O410  1  0.63561570  0.13832423  0.38008828  1
  O  O411  1  0.63693356  0.13626189  0.87972043  1
  O  O412  1  0.61674366  0.63897489  0.37989011  1
  O  O413  1  0.61710085  0.63759255  0.89069218  1
