# generated using pymatgen
data_V79Zn79O256
_symmetry_space_group_name_H-M   'P 1'
_cell_length_a   16.93383395
_cell_length_b   16.95605855
_cell_length_c   16.94516407
_cell_angle_alpha   89.94274172
_cell_angle_beta   90.05513209
_cell_angle_gamma   89.90476235
_symmetry_Int_Tables_number   1
_chemical_formula_structural   V79Zn79O256
_chemical_formula_sum   'V79 Zn79 O256'
_cell_volume   4865.47184802
_cell_formula_units_Z   1
loop_
 _symmetry_equiv_pos_site_id
 _symmetry_equiv_pos_as_xyz
  1  'x, y, z'
loop_
 _atom_site_type_symbol
 _atom_site_label
 _atom_site_symmetry_multiplicity
 _atom_site_fract_x
 _atom_site_fract_y
 _atom_site_fract_z
 _atom_site_occupancy
  V  V0  1  0.12335145  0.61136188  0.00414962  1
  V  V1  1  0.12223305  0.25071534  0.87535895  1
  V  V2  1  -0.01110082  0.88492934  0.89221206  1
  V  V3  1  0.25024690  0.75265149  0.50100347  1
  V  V4  1  0.87038825  0.26019231  0.62430760  1
  V  V5  1  0.37901344  0.37384835  -0.00669848  1
  V  V6  1  0.25263175  0.12285509  0.37782527  1
  V  V7  1  0.26606919  0.61912731  0.37773216  1
  V  V8  1  0.75302349  0.25855491  0.50474617  1
  V  V9  1  0.61741770  0.86199501  0.74939587  1
  V  V10  1  0.75412324  0.11860792  0.36682028  1
  V  V11  1  0.37491005  0.50073122  0.86813284  1
  V  V12  1  0.11251468  0.12402948  0.00479314  1
  V  V13  1  -0.00431064  0.12413348  0.62645937  1
  V  V14  1  0.12263369  0.50592524  0.62614577  1
  V  V15  1  0.47415931  0.73658390  0.25248705  1
  V  V16  1  0.48644018  0.62461205  0.13067246  1
  V  V17  1  0.87462731  0.87061664  0.49395522  1
  V  V18  1  0.25095569  0.00046477  0.75202139  1
  V  V19  1  0.12361602  0.12664216  0.50144285  1
  V  V20  1  0.62323402  0.48801271  0.12634980  1
  V  V21  1  0.39600712  0.63599568  0.74952979  1
  V  V22  1  0.87548128  0.23666263  0.12817762  1
  V  V23  1  0.24880878  0.25250434  0.00416399  1
  V  V24  1  0.11823164  0.00349182  0.12667266  1
  V  V25  1  0.12458710  0.38005867  0.74840458  1
  V  V26  1  0.24935128  0.62473844  0.86768116  1
  V  V27  1  0.74649813  0.48654835  0.25966724  1
  V  V28  1  0.50127580  0.12809764  0.62408595  1
  V  V29  1  0.12032270  0.63181414  0.49500518  1
  V  V30  1  0.74380554  0.74727804  0.50094353  1
  V  V31  1  -0.00381416  0.25137486  0.75226517  1
  V  V32  1  0.62368093  0.26570045  0.87396908  1
  V  V33  1  0.25196336  0.25683839  0.50131072  1
  V  V34  1  -0.01053533  0.63385202  0.62920372  1
  V  V35  1  0.75666736  0.24947090  0.00440930  1
  V  V36  1  0.00666094  0.61228419  0.12461207  1
  V  V37  1  0.12322040  0.75351049  0.88237498  1
  V  V38  1  0.00951844  0.75202235  0.25318188  1
  V  V39  1  0.36667989  0.90093287  -0.00761641  1
  V  V40  1  0.12330430  0.38638394  0.24649562  1
  V  V41  1  0.74962892  0.76182402  -0.00821512  1
  V  V42  1  0.74822735  0.11409310  0.87088816  1
  V  V43  1  0.12575504  -0.00253798  0.62554441  1
  V  V44  1  0.50077084  0.25849149  0.76248366  1
  V  V45  1  0.37422726  0.12943918  0.24927737  1
  V  V46  1  0.37740777  0.25141927  0.12285290  1
  V  V47  1  0.24858442  0.38045174  0.62717354  1
  V  V48  1  0.80102555  0.42396369  0.06106048  1
  V  V49  1  0.50291911  0.25487891  0.24966607  1
  V  V50  1  0.86772741  0.75822313  0.12527635  1
  V  V51  1  0.37449240  0.25844471  0.62396829  1
  V  V52  1  0.87352373  0.61841259  0.25462600  1
  V  V53  1  0.62605860  0.12329371  0.49274763  1
  V  V54  1  0.49601011  0.00291895  0.48869967  1
  V  V55  1  0.70513920  0.45048283  0.75427947  1
  V  V56  1  0.63526395  0.62442092  -0.00438863  1
  V  V57  1  0.25169735  0.12255726  0.87722219  1
  V  V58  1  -0.00597403  -0.00060697  0.49332383  1
  V  V59  1  0.37637363  0.12140858  0.75256480  1
  V  V60  1  0.62192292  0.75239054  0.35839932  1
  V  V61  1  0.62442647  0.26409576  0.37466927  1
  V  V62  1  -0.00221869  0.75531959  0.75354371  1
  V  V63  1  0.47751326  0.37885091  0.37440319  1
  V  V64  1  0.87274190  0.62307852  0.76801027  1
  V  V65  1  0.00676485  0.86963134  0.37500966  1
  V  V66  1  0.62801074  0.00205630  0.62734786  1
  V  V67  1  0.25832742  -0.00054424  0.25577284  1
  V  V68  1  0.25819271  0.74836344  0.00684573  1
  V  V69  1  0.74621965  0.62540529  0.37401740  1
  V  V70  1  0.75697209  0.87881169  0.62852358  1
  V  V71  1  0.47289225  0.49560712  0.50239028  1
  V  V72  1  0.11916468  0.25670261  0.37564858  1
  V  V73  1  0.37719682  0.87966304  0.49542004  1
  V  V74  1  0.87004617  0.11422419  0.75370524  1
  V  V75  1  0.60517174  0.11969877  0.00434370  1
  V  V76  1  0.25639017  0.87038217  0.13018461  1
  V  V77  1  -0.00814835  0.38546139  0.88398166  1
  V  V78  1  0.50141451  0.50000429  -0.00335172  1
  Zn  Zn79  1  0.75155455  -0.02690057  0.23146065  1
  Zn  Zn80  1  0.13077429  0.87308220  0.25541431  1
  Zn  Zn81  1  0.49484032  0.89180766  0.35393525  1
  Zn  Zn82  1  0.89403409  0.09279760  0.25726778  1
  Zn  Zn83  1  0.39706261  0.75046070  0.62653072  1
  Zn  Zn84  1  0.61827764  -0.02202982  0.12460431  1
  Zn  Zn85  1  0.12518267  0.87772587  0.75532504  1
  Zn  Zn86  1  0.56133577  0.62555029  0.58099102  1
  Zn  Zn87  1  -0.01377843  0.38786617  0.38148078  1
  Zn  Zn88  1  0.96210911  0.49690025  0.50462478  1
  Zn  Zn89  1  0.49089266  -0.12043961  0.86484216  1
  Zn  Zn90  1  0.25696035  0.87079228  0.62916412  1
  Zn  Zn91  1  -0.00035767  0.24646262  0.24450522  1
  Zn  Zn92  1  0.23994367  0.39131325  0.12082101  1
  Zn  Zn93  1  0.26453287  0.51053248  0.24700631  1
  Zn  Zn94  1  0.18397581  0.19064772  0.18999490  1
  Zn  Zn95  1  0.18525999  0.18832368  0.68750557  1
  Zn  Zn96  1  0.19156531  0.68059914  0.19003845  1
  Zn  Zn97  1  0.18541388  0.69283167  0.68712287  1
  Zn  Zn98  1  0.68230480  0.18581981  0.18568080  1
  Zn  Zn99  1  0.68625864  0.19401042  0.68900233  1
  Zn  Zn100  1  0.68206407  0.68120330  0.18089325  1
  Zn  Zn101  1  0.69270014  0.68634947  0.68987410  1
  Zn  Zn102  1  0.30483928  0.31692399  0.30918780  1
  Zn  Zn103  1  0.31259676  0.31117478  0.81232321  1
  Zn  Zn104  1  0.31027499  0.80717235  0.32136370  1
  Zn  Zn105  1  0.31116902  0.81038336  0.81440393  1
  Zn  Zn106  1  0.80982901  0.30364650  0.31422525  1
  Zn  Zn107  1  0.81231742  0.30855527  0.81610877  1
  Zn  Zn108  1  0.82450736  0.80974343  0.31021535  1
  Zn  Zn109  1  0.81228575  0.81472063  0.81474168  1
  Zn  Zn110  1  0.18060436  0.44191279  0.44087089  1
  Zn  Zn111  1  0.18991775  0.43732543  0.93023625  1
  Zn  Zn112  1  0.18658414  0.93677926  0.43977057  1
  Zn  Zn113  1  0.18273101  0.93801949  0.94176663  1
  Zn  Zn114  1  0.81738422  0.44031680  0.44053760  1
  Zn  Zn115  1  0.85097016  0.49771216  0.87941759  1
  Zn  Zn116  1  0.70146454  0.91658817  0.39733332  1
  Zn  Zn117  1  0.68208114  0.93938251  0.93916507  1
  Zn  Zn118  1  0.29997972  0.06811465  0.07383340  1
  Zn  Zn119  1  0.31435590  0.06546360  0.56464524  1
  Zn  Zn120  1  0.30747692  0.55841457  0.05985639  1
  Zn  Zn121  1  0.30718769  0.56713933  0.57179458  1
  Zn  Zn122  1  0.79086514  0.06581510  0.06315206  1
  Zn  Zn123  1  0.81235253  0.06564056  0.55951929  1
  Zn  Zn124  1  0.82037598  0.58447472  0.06301693  1
  Zn  Zn125  1  0.76189496  0.55332194  0.58147780  1
  Zn  Zn126  1  0.43165423  0.43751276  0.18371132  1
  Zn  Zn127  1  0.49282850  0.46288817  0.70681161  1
  Zn  Zn128  1  0.47639396  0.90108159  0.15038165  1
  Zn  Zn129  1  0.44054427  0.93891160  0.68108527  1
  Zn  Zn130  1  0.93683193  0.43066914  0.19798353  1
  Zn  Zn131  1  0.93344890  0.44508446  0.68585956  1
  Zn  Zn132  1  0.90654547  0.96814715  0.12161694  1
  Zn  Zn133  1  0.93931209  0.93378221  0.68795199  1
  Zn  Zn134  1  0.06726325  0.06462768  0.31154820  1
  Zn  Zn135  1  0.06305824  0.06337069  0.81411164  1
  Zn  Zn136  1  0.05249316  0.55845304  0.32152944  1
  Zn  Zn137  1  0.06224922  0.56437964  0.81404173  1
  Zn  Zn138  1  0.54799208  0.04863383  0.27697831  1
  Zn  Zn139  1  0.56793685  0.06103874  0.81286337  1
  Zn  Zn140  1  0.56168822  0.55777120  0.31723543  1
  Zn  Zn141  1  0.57144602  0.56563646  0.81866007  1
  Zn  Zn142  1  0.43672478  0.19064768  0.43582589  1
  Zn  Zn143  1  0.43725881  0.05985370  0.93310352  1
  Zn  Zn144  1  0.44817031  0.68865762  0.45680815  1
  Zn  Zn145  1  0.44504651  0.69193938  0.93584387  1
  Zn  Zn146  1  0.93384148  0.18790874  0.43564440  1
  Zn  Zn147  1  0.92770264  0.05985127  0.94171496  1
  Zn  Zn148  1  0.93312897  0.68617011  0.43816469  1
  Zn  Zn149  1  0.93816606  0.69102899  0.94290956  1
  Zn  Zn150  1  0.05643742  0.31252538  0.06334286  1
  Zn  Zn151  1  0.05670135  0.31575291  0.56097166  1
  Zn  Zn152  1  0.06441833  0.81115961  0.07045914  1
  Zn  Zn153  1  0.06355865  0.81342855  0.56492042  1
  Zn  Zn154  1  0.55980449  0.30818608  0.05698030  1
  Zn  Zn155  1  0.55398443  0.31097744  0.55304893  1
  Zn  Zn156  1  0.55631153  0.81186560  0.01651980  1
  Zn  Zn157  1  0.56515728  0.81524609  0.55689560  1
  O  O158  1  0.13251160  0.11388008  0.11974659  1
  O  O159  1  0.11703595  0.11829945  0.62156364  1
  O  O160  1  0.11349985  0.62723963  0.12039756  1
  O  O161  1  0.11937271  0.61961797  0.62509599  1
  O  O162  1  0.61921760  0.13713390  0.10367928  1
  O  O163  1  0.62189923  0.12274086  0.61618790  1
  O  O164  1  0.61666652  0.61057451  0.11716289  1
  O  O165  1  0.66560367  0.61093260  0.61370289  1
  O  O166  1  0.37925977  0.36645661  0.38132998  1
  O  O167  1  0.36510387  0.38524508  0.88326158  1
  O  O168  1  0.38073985  0.87136010  0.38993825  1
  O  O169  1  0.36498540  0.87718219  0.89116237  1
  O  O170  1  0.87352281  0.36805121  0.37722491  1
  O  O171  1  0.88793593  0.38069570  0.86566605  1
  O  O172  1  0.89348439  0.87339203  0.38514353  1
  O  O173  1  0.89066478  0.87403375  0.87493982  1
  O  O174  1  0.24036082  0.01315055  0.36965617  1
  O  O175  1  0.23749217  0.01172962  0.86340329  1
  O  O176  1  0.24420442  0.51772277  0.38375137  1
  O  O177  1  0.26291491  0.51307027  0.87969418  1
  O  O178  1  0.74286398  0.02131890  0.38639876  1
  O  O179  1  0.74509507  0.01596163  0.87745669  1
  O  O180  1  0.74877618  0.50855877  0.36340404  1
  O  O181  1  0.74372967  0.48805261  0.83990509  1
  O  O182  1  0.24599852  0.50390460  0.13360478  1
  O  O183  1  0.23861637  0.48856284  0.62354774  1
  O  O184  1  0.24399929  0.99121723  0.13934372  1
  O  O185  1  0.24017728  1.00455905  0.63394792  1
  O  O186  1  0.74602130  0.49118621  0.12425160  1
  O  O187  1  0.75477052  0.48784812  0.67594995  1
  O  O188  1  0.72857019  0.99883793  0.12430502  1
  O  O189  1  0.74139308  0.98588511  0.61032202  1
  O  O190  1  0.00939561  0.36693662  0.25985623  1
  O  O191  1  0.00925257  0.36888001  0.74882942  1
  O  O192  1  0.00246026  0.85849469  0.25864316  1
  O  O193  1  0.00342940  0.86943217  0.75960541  1
  O  O194  1  0.49267439  0.36317490  0.26299529  1
  O  O195  1  0.49060305  0.35536360  0.74434868  1
  O  O196  1  0.48288450  0.84171869  0.25163267  1
  O  O197  1  0.51284313  0.87239074  0.74274892  1
  O  O198  1  0.48138987  0.14299917  0.26653151  1
  O  O199  1  0.49126927  0.13318536  0.74363413  1
  O  O200  1  0.50326587  0.62281579  0.23948463  1
  O  O201  1  0.49583443  0.63172462  0.75276200  1
  O  O202  1  0.99650567  0.13454253  0.26265025  1
  O  O203  1  0.99254474  0.13339499  0.74866854  1
  O  O204  1  0.99563492  0.63182456  0.24461986  1
  O  O205  1  0.99961011  0.63585318  0.74524841  1
  O  O206  1  0.36361828  0.25851844  0.00712642  1
  O  O207  1  0.36232843  0.24394694  0.51148258  1
  O  O208  1  0.35840695  0.74991284  -0.00122335  1
  O  O209  1  0.36509601  0.76013439  0.50294461  1
  O  O210  1  0.85697494  0.24834666  0.00807540  1
  O  O211  1  0.86102707  0.24138763  0.50977829  1
  O  O212  1  0.86098291  0.73789629  0.01484785  1
  O  O213  1  0.86453544  0.76219713  0.49494245  1
  O  O214  1  0.13365131  0.24508071  0.49866858  1
  O  O215  1  0.13130347  0.24464894  0.99752688  1
  O  O216  1  0.13170315  0.73879013  0.50936953  1
  O  O217  1  0.13108519  0.74262236  0.99462516  1
  O  O218  1  0.63202132  0.24382634  0.49618119  1
  O  O219  1  0.62408627  0.24352524  0.98622992  1
  O  O220  1  0.64046747  0.75244578  0.48670992  1
  O  O221  1  0.64387296  0.73241099  1.01699321  1
  O  O222  1  0.48690269  0.25850692  0.13518934  1
  O  O223  1  0.49249655  0.24611435  0.62719029  1
  O  O224  1  0.49399042  0.73001177  0.14148813  1
  O  O225  1  0.50028685  0.72355053  0.57731820  1
  O  O226  1  0.97859081  0.25211343  0.12105684  1
  O  O227  1  0.99320320  0.24362846  0.63286391  1
  O  O228  1  0.99309688  0.74307420  0.13736915  1
  O  O229  1  1.01033552  0.74301928  0.64021486  1
  O  O230  1  0.01555777  0.25217348  0.38649926  1
  O  O231  1  0.00531511  0.26420023  0.85935092  1
  O  O232  1  -0.00485341  0.75216124  0.36173855  1
  O  O233  1  0.00807202  0.75872040  0.87467645  1
  O  O234  1  0.50368096  0.26254579  0.37367745  1
  O  O235  1  0.50754724  0.25113428  0.86414678  1
  O  O236  1  0.51177914  0.72876585  0.36142753  1
  O  O237  1  0.51213884  0.77967725  0.91719847  1
  O  O238  1  0.24479886  0.13279806  0.49607117  1
  O  O239  1  0.24348731  0.13589483  0.99294362  1
  O  O240  1  0.23827039  0.63210956  0.49830087  1
  O  O241  1  0.24209646  0.63249028  0.99379893  1
  O  O242  1  0.74152130  0.13249004  0.49411010  1
  O  O243  1  0.73907327  0.13789872  0.98700930  1
  O  O244  1  0.76054619  0.64408177  0.48737516  1
  O  O245  1  0.73853394  0.62262104  0.99813164  1
  O  O246  1  0.25281610  0.36600390  -0.00142488  1
  O  O247  1  0.23964457  0.36470492  0.51259343  1
  O  O248  1  0.25247536  0.86882334  0.00912816  1
  O  O249  1  0.25746593  0.87123741  0.50182298  1
  O  O250  1  0.74484272  0.36171094  0.00244228  1
  O  O251  1  0.74901118  0.35555747  0.49446155  1
  O  O252  1  0.73760339  0.86034148  0.00129713  1
  O  O253  1  0.75824771  0.86757006  0.49495193  1
  O  O254  1  0.11917941  0.48704794  0.25862965  1
  O  O255  1  0.11899351  0.49136531  0.73968146  1
  O  O256  1  0.13724988  1.00026267  0.24222011  1
  O  O257  1  0.13258738  1.00365861  0.74103461  1
  O  O258  1  0.64166777  0.50751314  0.24020217  1
  O  O259  1  0.60129500  0.48310113  0.74985050  1
  O  O260  1  0.63401119  0.98272914  0.24956734  1
  O  O261  1  0.62434441  0.99801602  0.73017121  1
  O  O262  1  0.36085469  0.01616861  0.25138439  1
  O  O263  1  0.36326109  0.01255251  0.73741299  1
  O  O264  1  0.37159270  0.48279013  0.26313014  1
  O  O265  1  0.39437573  0.51201843  0.76427097  1
  O  O266  1  0.86315446  -0.00741068  0.22439448  1
  O  O267  1  0.87808535  0.01537086  0.74152152  1
  O  O268  1  0.85828593  0.50882423  0.24009122  1
  O  O269  1  0.88809129  0.52150622  0.75547986  1
  O  O270  1  0.12791013  0.36789333  0.36758569  1
  O  O271  1  0.11956799  0.37089708  0.86498760  1
  O  O272  1  0.11316144  0.87422603  0.37570048  1
  O  O273  1  0.11706333  0.86720018  0.87769606  1
  O  O274  1  0.62034957  0.36170094  0.37463475  1
  O  O275  1  0.62222484  0.36061188  0.87738951  1
  O  O276  1  0.60500009  0.85387460  0.37916675  1
  O  O277  1  0.63432020  0.88589268  0.84721616  1
  O  O278  1  0.36534338  0.13918362  0.13714979  1
  O  O279  1  0.37845341  0.13699255  0.63401443  1
  O  O280  1  0.38821411  0.61489654  0.12151272  1
  O  O281  1  0.36893210  0.62499978  0.64920452  1
  O  O282  1  0.86524745  0.13683829  0.12870521  1
  O  O283  1  0.87760758  0.13319226  0.63272708  1
  O  O284  1  0.88988439  0.63320624  0.13567139  1
  O  O285  1  0.89101054  0.63322113  0.63890323  1
  O  O286  1  0.25392410  0.25232676  0.11509753  1
  O  O287  1  0.25320110  0.25520523  0.61956000  1
  O  O288  1  0.24030876  0.75926012  0.11963151  1
  O  O289  1  0.25147486  0.75180123  0.61438796  1
  O  O290  1  0.75103250  0.24619087  0.11106531  1
  O  O291  1  0.75412829  0.24540865  0.61249776  1
  O  O292  1  0.76446285  0.74287610  0.12653320  1
  O  O293  1  0.74446619  0.76772364  0.60688360  1
  O  O294  1  0.24130621  0.24604308  0.38543024  1
  O  O295  1  0.24331012  0.24245096  0.88206189  1
  O  O296  1  0.24767588  0.73840953  0.39240284  1
  O  O297  1  0.24025275  0.74484178  0.88536005  1
  O  O298  1  0.74071627  0.24020256  0.38593382  1
  O  O299  1  0.73832765  0.24638524  0.88555669  1
  O  O300  1  0.73987090  0.74482642  0.37757762  1
  O  O301  1  0.75692666  0.75181819  0.89249357  1
  O  O302  1  0.01480319  0.12463884  -0.00857262  1
  O  O303  1  0.00235537  0.11673823  0.50485679  1
  O  O304  1  0.00707620  0.62945011  0.01703084  1
  O  O305  1  0.00716912  0.63791273  0.51654432  1
  O  O306  1  0.50562333  0.12908626  -0.00886885  1
  O  O307  1  0.50476271  0.12334971  0.50345497  1
  O  O308  1  0.50456352  0.61971825  0.01348836  1
  O  O309  1  0.51114202  0.59153955  0.47859612  1
  O  O310  1  0.49750954  0.38518776  0.48667210  1
  O  O311  1  0.48695403  0.38421963  1.00238787  1
  O  O312  1  0.49303216  0.88978214  0.50152974  1
  O  O313  1  0.46455968  0.89881645  1.01099964  1
  O  O314  1  1.00627472  0.38968410  0.49764577  1
  O  O315  1  1.00296332  0.37106312  0.98192156  1
  O  O316  1  0.99521090  0.87833309  0.49705710  1
  O  O317  1  1.00236887  0.86927802  0.99091539  1
  O  O318  1  0.49933720  0.48152905  0.37686155  1
  O  O319  1  0.48980500  0.51019781  0.89085746  1
  O  O320  1  0.50527458  1.00524410  0.38472175  1
  O  O321  1  0.49298095  0.99410248  0.86146578  1
  O  O322  1  0.98219132  0.50701440  0.38955492  1
  O  O323  1  1.00449146  0.48568547  0.87204407  1
  O  O324  1  1.00938728  0.99176869  0.38850780  1
  O  O325  1  1.00280441  0.99068757  0.87916083  1
  O  O326  1  0.02116051  -0.00652097  0.13082164  1
  O  O327  1  0.00826376  0.00349074  0.61818161  1
  O  O328  1  -0.00567718  0.51468091  0.13427170  1
  O  O329  1  0.00480943  0.51895669  0.62419009  1
  O  O330  1  0.51476902  0.00757594  0.17087110  1
  O  O331  1  0.50723344  0.01167400  0.61612289  1
  O  O332  1  0.50391508  0.50429208  0.11891692  1
  O  O333  1  0.50156669  0.50301340  0.60156281  1
  O  O334  1  0.23263506  0.37804106  0.24763016  1
  O  O335  1  0.23478922  0.36459186  0.74092958  1
  O  O336  1  0.25209009  0.87976176  0.24972312  1
  O  O337  1  0.24875550  0.88775108  0.75034415  1
  O  O338  1  0.74940474  0.38864311  0.25606103  1
  O  O339  1  0.72886469  0.35005620  0.75035172  1
  O  O340  1  0.74544428  0.88340423  0.29635840  1
  O  O341  1  0.74941737  0.86992974  0.73094673  1
  O  O342  1  0.25357965  0.12204019  0.25918468  1
  O  O343  1  0.25490472  0.12233634  0.75679281  1
  O  O344  1  0.24382652  0.62654894  0.27363506  1
  O  O345  1  0.24950192  0.63273740  0.76626219  1
  O  O346  1  0.74083032  0.12772819  0.26550421  1
  O  O347  1  0.75490832  0.13424237  0.76328433  1
  O  O348  1  0.75803460  0.62006764  0.25422565  1
  O  O349  1  0.77606139  0.64269269  0.75479828  1
  O  O350  1  0.35862620  0.13784248  0.36769221  1
  O  O351  1  0.36127136  0.12552484  0.86427652  1
  O  O352  1  0.36345583  0.62711919  0.39122906  1
  O  O353  1  0.37101893  0.62402875  0.86699596  1
  O  O354  1  0.85898746  0.13171486  0.36977994  1
  O  O355  1  0.85966096  0.12423768  0.86907805  1
  O  O356  1  0.86338991  0.63321951  0.36217604  1
  O  O357  1  0.88591231  0.61712124  0.87281498  1
  O  O358  1  0.11942832  0.36809322  0.14204929  1
  O  O359  1  0.12856961  0.38335652  0.63129693  1
  O  O360  1  0.13687841  0.88603613  0.12863081  1
  O  O361  1  0.12787098  0.88858862  0.62820236  1
  O  O362  1  0.61632237  0.38822987  0.11919644  1
  O  O363  1  0.63173627  0.39524450  0.60234866  1
  O  O364  1  0.58154685  0.86985065  0.10673787  1
  O  O365  1  0.63315509  0.88207187  0.62914118  1
  O  O366  1  0.12453300  0.25676588  0.26267479  1
  O  O367  1  0.11498808  0.25545381  0.75223773  1
  O  O368  1  0.11146584  0.74864678  0.24569215  1
  O  O369  1  0.11862073  0.75243758  0.76579609  1
  O  O370  1  0.60983294  0.24186511  0.25860763  1
  O  O371  1  0.60922664  0.24237270  0.75991107  1
  O  O372  1  0.62590611  0.74696169  0.25804376  1
  O  O373  1  0.62979733  0.76300284  0.74319878  1
  O  O374  1  0.37486549  0.24846640  0.24121437  1
  O  O375  1  0.38176070  0.24042791  0.74626313  1
  O  O376  1  0.37589596  0.73098766  0.26130612  1
  O  O377  1  0.37811828  0.74076676  0.75223322  1
  O  O378  1  0.86828921  0.25430981  0.23065966  1
  O  O379  1  0.88137048  0.24060854  0.74439404  1
  O  O380  1  0.88324631  0.73933969  0.24118459  1
  O  O381  1  0.89275873  0.74260204  0.76354851  1
  O  O382  1  0.37404570  0.50172405  0.50503126  1
  O  O383  1  0.38062812  0.49270042  0.99227854  1
  O  O384  1  0.38420400  0.99543572  0.50675099  1
  O  O385  1  0.35200887  1.00459515  0.99295143  1
  O  O386  1  0.84810237  0.50994311  0.52178019  1
  O  O387  1  0.85240868  0.48982820  0.99997886  1
  O  O388  1  0.88768953  0.99116210  0.50604218  1
  O  O389  1  0.87342154  1.00333513  1.01931373  1
  O  O390  1  0.13642017  0.01029671  0.01732913  1
  O  O391  1  0.11867181  0.00600776  0.50927333  1
  O  O392  1  0.13034507  0.51271986  -0.00514198  1
  O  O393  1  0.12560470  0.51878980  0.51457200  1
  O  O394  1  0.62142347  0.01635033  0.00048884  1
  O  O395  1  0.61309749  0.01177396  0.50906790  1
  O  O396  1  0.61255788  0.51072545  0.00867237  1
  O  O397  1  0.64823841  0.44840051  0.55258103  1
  O  O398  1  0.36762419  0.36671286  0.11162154  1
  O  O399  1  0.36081481  0.36114247  0.63412363  1
  O  O400  1  0.35947695  0.88255885  0.11439971  1
  O  O401  1  0.37609394  0.86991400  0.61459089  1
  O  O402  1  0.86702175  0.37226965  0.11922070  1
  O  O403  1  0.87964904  0.35880030  0.63362597  1
  O  O404  1  0.88020515  0.85485433  0.12591014  1
  O  O405  1  0.86234136  0.87979362  0.61565849  1
  O  O406  1  0.13534053  0.13556299  0.38271810  1
  O  O407  1  0.13260140  0.13139895  0.88201760  1
  O  O408  1  0.11884251  0.62561882  0.39531210  1
  O  O409  1  0.12912436  0.63284328  0.88355673  1
  O  O410  1  0.62868159  0.13554646  0.38703383  1
  O  O411  1  0.63416537  0.13092338  0.87988325  1
  O  O412  1  0.63924662  0.63215914  0.36916172  1
  O  O413  1  0.61633298  0.62881883  0.89755545  1
