# generated using pymatgen
data_V79Zn79O256
_symmetry_space_group_name_H-M   'P 1'
_cell_length_a   16.89254884
_cell_length_b   16.89177596
_cell_length_c   16.90724361
_cell_angle_alpha   89.87744941
_cell_angle_beta   90.09741950
_cell_angle_gamma   89.95911159
_symmetry_Int_Tables_number   1
_chemical_formula_structural   V79Zn79O256
_chemical_formula_sum   'V79 Zn79 O256'
_cell_volume   4824.38072121
_cell_formula_units_Z   1
loop_
 _symmetry_equiv_pos_site_id
 _symmetry_equiv_pos_as_xyz
  1  'x, y, z'
loop_
 _atom_site_type_symbol
 _atom_site_label
 _atom_site_symmetry_multiplicity
 _atom_site_fract_x
 _atom_site_fract_y
 _atom_site_fract_z
 _atom_site_occupancy
  V  V0  1  0.87705728  0.10489784  0.25581424  1
  V  V1  1  -0.01328977  0.74294185  0.75106365  1
  V  V2  1  0.12229484  0.75193375  0.87610200  1
  V  V3  1  0.37595781  -0.01488192  0.88962660  1
  V  V4  1  0.24422592  0.50969096  0.74620433  1
  V  V5  1  0.51009347  0.00373005  0.00429225  1
  V  V6  1  -0.00234562  0.50470097  0.00042007  1
  V  V7  1  0.00805130  0.49945308  0.50469470  1
  V  V8  1  0.12594252  0.24658947  0.37338522  1
  V  V9  1  0.49295884  0.49841891  0.00050639  1
  V  V10  1  0.62310232  0.62714442  -0.00065401  1
  V  V11  1  0.12610623  0.62804864  0.00117241  1
  V  V12  1  0.64070499  0.38712840  0.74366478  1
  V  V13  1  0.00369118  0.36967967  0.87450378  1
  V  V14  1  0.00013115  0.63043276  0.62622242  1
  V  V15  1  0.75083224  0.62093741  0.87824074  1
  V  V16  1  0.51429209  0.74280835  0.75900458  1
  V  V17  1  -0.01155055  0.00360947  -0.00798175  1
  V  V18  1  0.87304181  0.50200701  0.86611928  1
  V  V19  1  -0.00977551  -0.00423284  0.50810544  1
  V  V20  1  0.50759579  0.26805088  0.25354693  1
  V  V21  1  0.87473193  0.62208219  0.24599047  1
  V  V22  1  0.12049711  0.50371263  0.12487481  1
  V  V23  1  0.00024826  0.37298135  0.37557160  1
  V  V24  1  0.62768433  0.49442456  0.13646567  1
  V  V25  1  0.25244348  0.37126062  0.10917494  1
  V  V26  1  0.62338973  0.76394996  0.37283839  1
  V  V27  1  0.24976063  -0.00226228  0.24595756  1
  V  V28  1  0.00286497  0.74514035  0.24499275  1
  V  V29  1  0.87015699  0.85368745  0.50924210  1
  V  V30  1  0.75243883  0.24936665  0.00636354  1
  V  V31  1  0.74474073  0.62865123  0.37365537  1
  V  V32  1  0.87047108  0.49920357  0.37122400  1
  V  V33  1  0.37277078  0.50530462  0.86962916  1
  V  V34  1  0.50318659  0.12619575  0.61134966  1
  V  V35  1  0.24880617  0.63021848  0.87281718  1
  V  V36  1  0.37615591  0.25224719  0.11212567  1
  V  V37  1  0.37554799  0.12103397  0.75539564  1
  V  V38  1  0.13011337  0.74641487  0.37414692  1
  V  V39  1  0.87617074  0.75122149  0.12536860  1
  V  V40  1  0.38025235  0.75656426  0.64052504  1
  V  V41  1  0.50062560  0.25398981  0.75220862  1
  V  V42  1  0.14383744  -0.01385768  0.08857396  1
  V  V43  1  0.50798233  0.76836285  0.24504683  1
  V  V44  1  0.62072486  0.01842453  0.13645992  1
  V  V45  1  0.49489358  0.61043708  0.62719822  1
  V  V46  1  0.63337757  0.25304274  0.39306705  1
  V  V47  1  -0.00641041  0.24657110  0.24619673  1
  V  V48  1  0.49530792  0.62787045  0.12687286  1
  V  V49  1  0.50646175  -0.01535339  0.49806332  1
  V  V50  1  0.38150325  -0.01281957  0.37830670  1
  V  V51  1  0.75405984  0.37870330  0.13764487  1
  V  V52  1  0.37393621  0.25419793  0.62608826  1
  V  V53  1  0.13179185  0.62329159  0.50372501  1
  V  V54  1  0.50314597  0.49849769  0.47729014  1
  V  V55  1  -0.01394301  0.87566737  0.87372043  1
  V  V56  1  0.24449266  0.38341898  0.62569776  1
  V  V57  1  0.26930800  0.75792245  0.49501798  1
  V  V58  1  0.12964456  0.87792052  0.24567441  1
  V  V59  1  -0.00420530  0.13326736  0.62692446  1
  V  V60  1  0.37646746  0.38324477  0.48632116  1
  V  V61  1  0.73664295  0.87893826  0.13685540  1
  V  V62  1  0.38220180  0.13068609  0.24608661  1
  V  V63  1  0.62497573  0.24156451  0.88746756  1
  V  V64  1  0.25418294  0.12570337  0.37466563  1
  V  V65  1  0.49657797  0.37813779  0.88013409  1
  V  V66  1  -0.00055379  0.12398229  0.12277634  1
  V  V67  1  0.12482078  0.36793723  0.75168855  1
  V  V68  1  0.12624020  0.37202202  0.24910648  1
  V  V69  1  0.86697520  0.36822139  0.51183837  1
  V  V70  1  0.24696548  0.14409854  0.87678704  1
  V  V71  1  0.36319542  0.77094796  0.11553004  1
  V  V72  1  0.74408552  0.75216884  0.00197200  1
  V  V73  1  0.12423181  0.14270137  -0.01037234  1
  V  V74  1  -0.00534924  0.87918573  0.37544233  1
  V  V75  1  0.74245475  0.85005023  0.63021553  1
  V  V76  1  0.25852466  0.50133054  0.25317796  1
  V  V77  1  0.13062559  0.11046495  0.50576298  1
  V  V78  1  0.25026101  0.25015580  0.49969188  1
  Zn  Zn79  1  0.86789961  0.88095393  -0.00082907  1
  Zn  Zn80  1  0.63036757  0.61800460  0.49841455  1
  Zn  Zn81  1  0.12296635  0.88051310  0.74029521  1
  Zn  Zn82  1  0.74622259  0.11983968  0.36541538  1
  Zn  Zn83  1  -0.01101753  0.24513434  0.75170159  1
  Zn  Zn84  1  0.80461759  0.05155522  0.82058179  1
  Zn  Zn85  1  0.37703457  0.62991522  0.24940248  1
  Zn  Zn86  1  0.87159197  0.37759379  0.00143111  1
  Zn  Zn87  1  0.62307883  0.87496213  0.77757574  1
  Zn  Zn88  1  0.69090581  -0.05369987  0.31326978  1
  Zn  Zn89  1  0.83907200  0.61179688  0.71382609  1
  Zn  Zn90  1  0.25325344  0.88707513  0.62402029  1
  Zn  Zn91  1  0.26419718  0.61364692  0.37986439  1
  Zn  Zn92  1  0.24499502  -0.00101391  0.74629275  1
  Zn  Zn93  1  0.65823591  0.02057715  0.66917018  1
  Zn  Zn94  1  0.18600810  0.18251246  0.17889014  1
  Zn  Zn95  1  0.18621616  0.18512075  0.68733215  1
  Zn  Zn96  1  0.18915410  0.68744478  0.18427593  1
  Zn  Zn97  1  0.17417909  0.72295514  0.67199268  1
  Zn  Zn98  1  0.69592729  0.19257809  0.19156113  1
  Zn  Zn99  1  0.68252583  0.18827777  0.70777177  1
  Zn  Zn100  1  0.68764458  0.68379783  0.18895860  1
  Zn  Zn101  1  0.68596591  0.66158269  0.67249770  1
  Zn  Zn102  1  0.31170966  0.31334155  0.30424473  1
  Zn  Zn103  1  0.31436466  0.32014863  0.81334411  1
  Zn  Zn104  1  0.31836224  0.80770584  0.30470386  1
  Zn  Zn105  1  0.31196652  0.81218481  0.81135041  1
  Zn  Zn106  1  0.80917593  0.30749366  0.32217067  1
  Zn  Zn107  1  0.81196123  0.31015601  0.82096127  1
  Zn  Zn108  1  0.81546653  0.81063425  0.31498460  1
  Zn  Zn109  1  0.80384524  0.80499476  0.80940267  1
  Zn  Zn110  1  0.18800692  0.43490176  0.43626287  1
  Zn  Zn111  1  0.18484067  0.44032121  0.93341370  1
  Zn  Zn112  1  0.19038591  0.93394079  0.43258321  1
  Zn  Zn113  1  0.17125170  0.95935261  0.90339239  1
  Zn  Zn114  1  0.68736048  0.43170576  0.42981958  1
  Zn  Zn115  1  0.68226468  0.43545963  0.94108785  1
  Zn  Zn116  1  0.72211201  0.98029796  0.49325470  1
  Zn  Zn117  1  0.68051297  0.93578598  0.93427465  1
  Zn  Zn118  1  0.31334159  0.06958820  0.05793189  1
  Zn  Zn119  1  0.32117953  0.05761888  0.56544181  1
  Zn  Zn120  1  0.31033098  0.56575494  0.06212475  1
  Zn  Zn121  1  0.31713321  0.56713683  0.56202219  1
  Zn  Zn122  1  0.77746954  0.04319262  0.02130221  1
  Zn  Zn123  1  0.82021341  0.05148419  0.65624966  1
  Zn  Zn124  1  0.81305669  0.56145674  0.06424328  1
  Zn  Zn125  1  0.81213784  0.55674884  0.55300716  1
  Zn  Zn126  1  0.43663495  0.43516843  0.18316140  1
  Zn  Zn127  1  0.43401800  0.43856448  0.68985097  1
  Zn  Zn128  1  0.43704271  0.94348048  0.18393268  1
  Zn  Zn129  1  0.46775406  0.94254041  0.69922380  1
  Zn  Zn130  1  0.93790618  0.43508532  0.18829301  1
  Zn  Zn131  1  0.94147706  0.44087835  0.68741457  1
  Zn  Zn132  1  0.94668059  0.93570363  0.17624896  1
  Zn  Zn133  1  0.93502141  0.93060248  0.68927781  1
  Zn  Zn134  1  0.06278186  0.06016558  0.31674944  1
  Zn  Zn135  1  0.05490912  0.06006652  0.80993359  1
  Zn  Zn136  1  0.06432851  0.56063595  0.31377640  1
  Zn  Zn137  1  0.06559417  0.55791672  0.81037922  1
  Zn  Zn138  1  0.56016770  0.07188206  0.31727641  1
  Zn  Zn139  1  0.55846376  0.05938050  0.81784530  1
  Zn  Zn140  1  0.55801491  0.56174867  0.30923265  1
  Zn  Zn141  1  0.56489851  0.56583280  0.81182281  1
  Zn  Zn142  1  0.43931531  0.19787835  0.43027466  1
  Zn  Zn143  1  0.44286936  0.18150977  0.94104503  1
  Zn  Zn144  1  0.44421206  0.68525981  0.42807294  1
  Zn  Zn145  1  0.43189901  0.69125223  0.93985035  1
  Zn  Zn146  1  0.93580988  0.18424715  0.43801734  1
  Zn  Zn147  1  0.93045149  0.19097477  0.93811522  1
  Zn  Zn148  1  0.94283874  0.68338596  0.43222075  1
  Zn  Zn149  1  0.93448652  0.68696759  0.94082795  1
  Zn  Zn150  1  0.05985462  0.31712125  0.06356343  1
  Zn  Zn151  1  0.06283134  0.30929128  0.56080057  1
  Zn  Zn152  1  0.06207240  0.81530357  0.05851507  1
  Zn  Zn153  1  0.06520861  0.81141114  0.56029731  1
  Zn  Zn154  1  0.56147375  0.31232264  0.06911545  1
  Zn  Zn155  1  0.56324813  0.32263366  0.56382059  1
  Zn  Zn156  1  0.55679457  0.81892265  0.05167484  1
  Zn  Zn157  1  0.56281837  0.80144562  0.55942698  1
  O  O158  1  0.12564792  0.11186170  0.10669853  1
  O  O159  1  0.11985871  0.12913716  0.61060789  1
  O  O160  1  0.13063387  0.61341948  0.11584903  1
  O  O161  1  0.12173423  0.63408368  0.60952688  1
  O  O162  1  0.63115015  0.11587748  0.13153604  1
  O  O163  1  0.60323642  0.12834135  0.63160742  1
  O  O164  1  0.61834212  0.61430491  0.11899450  1
  O  O165  1  0.59682755  0.63248696  0.60657875  1
  O  O166  1  0.36910862  0.36804736  0.38866145  1
  O  O167  1  0.38641349  0.38810118  0.87335444  1
  O  O168  1  0.37560261  0.88902381  0.36756508  1
  O  O169  1  0.37109444  0.88659244  0.87697030  1
  O  O170  1  0.88199403  0.38386609  0.37749911  1
  O  O171  1  0.88366774  0.38701424  0.87505045  1
  O  O172  1  0.88850311  0.86439079  0.38687112  1
  O  O173  1  0.88273735  0.86229432  0.87852292  1
  O  O174  1  0.26234969  0.00697888  0.36871619  1
  O  O175  1  0.27091146  0.01459231  0.86987876  1
  O  O176  1  0.24485487  0.49626578  0.35696652  1
  O  O177  1  0.25458157  0.50613987  0.86685117  1
  O  O178  1  0.74386924  0.00963280  0.38880891  1
  O  O179  1  0.75915497  0.01081541  0.91357355  1
  O  O180  1  0.76347735  0.50889613  0.37305073  1
  O  O181  1  0.75887720  0.51064904  0.88640885  1
  O  O182  1  0.24209279  0.49022627  0.12998236  1
  O  O183  1  0.26004072  0.49319949  0.63301539  1
  O  O184  1  0.24744459  1.01390534  0.14208390  1
  O  O185  1  0.25451449  1.00130519  0.63180177  1
  O  O186  1  0.73593001  0.49394370  0.12166326  1
  O  O187  1  0.75353688  0.56926754  0.64518756  1
  O  O188  1  0.73416443  0.98646280  0.11906677  1
  O  O189  1  0.74388805  0.98161232  0.60470077  1
  O  O190  1  0.00694660  0.36588308  0.25317423  1
  O  O191  1  0.00668996  0.37214997  0.75489767  1
  O  O192  1  0.00763777  0.86733964  0.25815432  1
  O  O193  1  -0.00057659  0.86022492  0.75731901  1
  O  O194  1  0.49510137  0.36788127  0.25212055  1
  O  O195  1  0.49985544  0.36661383  0.75795317  1
  O  O196  1  0.50541195  0.86698069  0.24283516  1
  O  O197  1  0.50285741  0.84607629  0.75130532  1
  O  O198  1  0.48445351  0.13319936  0.24979547  1
  O  O199  1  0.49217899  0.14062336  0.74693618  1
  O  O200  1  0.50126779  0.62946515  0.23484610  1
  O  O201  1  0.50052635  0.62312912  0.73271432  1
  O  O202  1  1.00093933  0.12754729  0.24519329  1
  O  O203  1  1.01213957  0.12720809  0.73097617  1
  O  O204  1  0.99419474  0.63757473  0.25693973  1
  O  O205  1  1.00698690  0.62385461  0.73344228  1
  O  O206  1  0.37822184  0.24720144  0.01347137  1
  O  O207  1  0.37159822  0.26091392  0.50790878  1
  O  O208  1  0.38213790  0.75387921  0.01667254  1
  O  O209  1  0.36981263  0.75500855  0.49001959  1
  O  O210  1  0.85728266  0.25876613  -0.00437054  1
  O  O211  1  0.88439185  0.26920156  0.49310282  1
  O  O212  1  0.86681316  0.74768243  0.01381919  1
  O  O213  1  0.88814781  0.75535300  0.50085831  1
  O  O214  1  0.13229824  0.24061124  0.49205248  1
  O  O215  1  0.11770966  0.24199047  0.99917484  1
  O  O216  1  0.13313382  0.74156696  0.48795947  1
  O  O217  1  0.11522902  0.73719639  0.99295153  1
  O  O218  1  0.61719970  0.25438129  0.49238675  1
  O  O219  1  0.62354214  0.25481846  0.99174056  1
  O  O220  1  0.60869819  0.73795284  0.47346282  1
  O  O221  1  0.63168048  0.73748218  1.01305614  1
  O  O222  1  0.48118370  0.26102730  0.13380155  1
  O  O223  1  0.49153873  0.24663692  0.63214199  1
  O  O224  1  0.49906811  0.74582505  0.13127995  1
  O  O225  1  0.48936647  0.74182893  0.62976572  1
  O  O226  1  1.01463429  0.23810131  0.13597626  1
  O  O227  1  1.00141862  0.23859582  0.62620944  1
  O  O228  1  0.99189508  0.75817016  0.13589512  1
  O  O229  1  1.00592559  0.73794993  0.63488562  1
  O  O230  1  0.00880591  0.25217975  0.36683827  1
  O  O231  1  -0.00411646  0.26667639  0.87468515  1
  O  O232  1  0.01203023  0.75612153  0.36592924  1
  O  O233  1  0.00133470  0.75187495  0.87094196  1
  O  O234  1  0.51253104  0.24990315  0.36072663  1
  O  O235  1  0.50371563  0.25860727  0.87283888  1
  O  O236  1  0.51078515  0.74764231  0.35382397  1
  O  O237  1  0.50087045  0.72140141  0.85715998  1
  O  O238  1  0.24956936  0.12873400  0.49215459  1
  O  O239  1  0.24009745  0.12449821  0.98432282  1
  O  O240  1  0.24721457  0.63456131  0.49536329  1
  O  O241  1  0.23630421  0.61606279  0.98769672  1
  O  O242  1  0.75700015  0.18689081  0.55683394  1
  O  O243  1  0.74714153  0.15122187  1.01977391  1
  O  O244  1  0.75018742  0.62387656  0.47722896  1
  O  O245  1  0.74120682  0.63149495  1.00149898  1
  O  O246  1  0.24492388  0.37967628  0.01035466  1
  O  O247  1  0.25839174  0.37280402  0.50695223  1
  O  O248  1  0.19879700  0.93210527  0.02410685  1
  O  O249  1  0.24737218  0.85946564  0.50145572  1
  O  O250  1  0.74832657  0.37068392  0.00928100  1
  O  O251  1  0.76820759  0.38569571  0.49862620  1
  O  O252  1  0.75111360  0.86431945  0.01743681  1
  O  O253  1  0.76728837  0.86293614  0.50393628  1
  O  O254  1  0.12831413  0.49386550  0.24092168  1
  O  O255  1  0.13587109  0.48774819  0.74933670  1
  O  O256  1  0.13530926  0.99187965  0.25612162  1
  O  O257  1  0.13476615  0.98481194  0.78789828  1
  O  O258  1  0.62109515  0.50150991  0.23498093  1
  O  O259  1  0.62509813  0.48626910  0.75760732  1
  O  O260  1  0.61868119  1.00202499  0.24170394  1
  O  O261  1  0.58185316  0.98020366  0.74077372  1
  O  O262  1  0.37031844  0.00965567  0.25809462  1
  O  O263  1  0.39044235  0.01490803  0.76251343  1
  O  O264  1  0.35991525  0.49870651  0.24107693  1
  O  O265  1  0.36295360  0.49897907  0.76122295  1
  O  O266  1  0.88805365  0.00546132  0.24737715  1
  O  O267  1  0.87748527  0.00648584  0.74518636  1
  O  O268  1  0.89018539  0.51143618  0.26017244  1
  O  O269  1  0.88303646  0.51045778  0.76189461  1
  O  O270  1  0.12039898  0.36691225  0.36989525  1
  O  O271  1  0.11455798  0.38235629  0.86513290  1
  O  O272  1  0.11912976  0.86451109  0.36677725  1
  O  O273  1  0.10793150  0.85891368  0.88306419  1
  O  O274  1  0.63818437  0.35245041  0.36583887  1
  O  O275  1  0.61151348  0.37083027  0.86818788  1
  O  O276  1  0.63157497  0.86221811  0.37291474  1
  O  O277  1  0.63234853  0.85232758  0.88620763  1
  O  O278  1  0.35924281  0.14399438  0.13505762  1
  O  O279  1  0.38144213  0.13836805  0.63420150  1
  O  O280  1  0.38472436  0.62963005  0.12548846  1
  O  O281  1  0.38976340  0.63824291  0.61310383  1
  O  O282  1  0.89899555  0.12031673  0.13721851  1
  O  O283  1  0.89714869  0.12354303  0.61190802  1
  O  O284  1  0.86981373  0.63583113  0.13490483  1
  O  O285  1  0.89983612  0.62511978  0.61152940  1
  O  O286  1  0.25542636  0.26447853  0.12862937  1
  O  O287  1  0.25822261  0.25765270  0.62074003  1
  O  O288  1  0.26465907  0.74936295  0.12904317  1
  O  O289  1  0.27179678  0.73979183  0.60737079  1
  O  O290  1  0.73763966  0.27098464  0.11587750  1
  O  O291  1  0.74385338  0.23968846  0.60712562  1
  O  O292  1  0.75579543  0.75696267  0.12403856  1
  O  O293  1  0.75229280  0.75066099  0.62733218  1
  O  O294  1  0.24708582  0.24247637  0.37798804  1
  O  O295  1  0.25575168  0.24356112  0.87428829  1
  O  O296  1  0.24503442  0.75241797  0.38098625  1
  O  O297  1  0.23781815  0.73971982  0.86983874  1
  O  O298  1  0.74335955  0.23700104  0.38042165  1
  O  O299  1  0.73163188  0.25727233  0.89142769  1
  O  O300  1  0.73649998  0.73872247  0.36381706  1
  O  O301  1  0.75980127  0.73665006  0.89600529  1
  O  O302  1  -0.00048951  0.12584564  0.00308722  1
  O  O303  1  0.00905493  0.11153963  0.50255501  1
  O  O304  1  0.00954938  0.61294032  -0.00492828  1
  O  O305  1  0.01234910  0.61996590  0.50375055  1
  O  O306  1  0.49113517  0.10719770  0.00860842  1
  O  O307  1  0.49280973  0.13362108  0.51108051  1
  O  O308  1  0.50552919  0.61979130  0.00850802  1
  O  O309  1  0.49383497  0.60518316  0.49776998  1
  O  O310  1  0.48452096  0.38635489  0.50424135  1
  O  O311  1  0.50605726  0.38739554  0.99169349  1
  O  O312  1  0.50004524  0.88623575  0.50739673  1
  O  O313  1  0.49543599  0.89938903  1.00688226  1
  O  O314  1  1.00084077  0.38393488  0.49451393  1
  O  O315  1  0.99969632  0.38640614  0.99213396  1
  O  O316  1  0.99910855  0.87966928  0.49662129  1
  O  O317  1  0.99497688  0.88493845  0.99213906  1
  O  O318  1  0.49330419  0.49843969  0.37818991  1
  O  O319  1  0.49196615  0.49920746  0.88037347  1
  O  O320  1  0.48940725  1.00526033  0.38363072  1
  O  O321  1  0.48623931  1.00612744  0.89059867  1
  O  O322  1  0.99518191  0.49551753  0.38337745  1
  O  O323  1  0.99350165  0.49505998  0.88143032  1
  O  O324  1  1.00932779  0.98611395  0.38818719  1
  O  O325  1  0.99164866  0.98933688  0.87996202  1
  O  O326  1  0.02001457  0.00337649  0.10918944  1
  O  O327  1  0.00530144  0.00176458  0.61164738  1
  O  O328  1  0.01179956  0.49123377  0.11579968  1
  O  O329  1  0.00529789  0.51067718  0.61205437  1
  O  O330  1  0.51346661  0.00265151  0.12302788  1
  O  O331  1  0.48185395  0.01730734  0.60731711  1
  O  O332  1  0.50570027  0.50528442  0.11862702  1
  O  O333  1  0.48955689  0.50736580  0.61707513  1
  O  O334  1  0.24415449  0.38499422  0.24112688  1
  O  O335  1  0.24482766  0.38366040  0.74354598  1
  O  O336  1  0.24105472  0.88503877  0.25756697  1
  O  O337  1  0.24621079  0.87590470  0.74628614  1
  O  O338  1  0.75588885  0.36916818  0.23688413  1
  O  O339  1  0.74008373  0.36917804  0.75571425  1
  O  O340  1  0.75362794  0.87599689  0.24148987  1
  O  O341  1  0.74271865  0.86804360  0.73657764  1
  O  O342  1  0.25391124  0.12022700  0.26029510  1
  O  O343  1  0.25961675  0.12826242  0.75907231  1
  O  O344  1  0.24765216  0.60797001  0.24669523  1
  O  O345  1  0.23788369  0.61621612  0.76021267  1
  O  O346  1  0.77555775  0.12711866  0.24239649  1
  O  O347  1  0.73438937  0.09328251  0.73172365  1
  O  O348  1  0.76471438  0.62614937  0.25769818  1
  O  O349  1  0.74309927  0.63984485  0.78002627  1
  O  O350  1  0.36653752  0.12592866  0.36695319  1
  O  O351  1  0.36623640  0.13019591  0.86865399  1
  O  O352  1  0.37248888  0.63255779  0.36098600  1
  O  O353  1  0.36021216  0.61663772  0.88144595  1
  O  O354  1  0.88171885  0.12147497  0.35913728  1
  O  O355  1  0.86936849  0.15605940  0.84424964  1
  O  O356  1  0.86837042  0.62073383  0.36726786  1
  O  O357  1  0.86210800  0.61573568  0.88486613  1
  O  O358  1  0.13523197  0.38230310  0.12804144  1
  O  O359  1  0.13913457  0.37158384  0.62814013  1
  O  O360  1  0.11561405  0.88145151  0.14028516  1
  O  O361  1  0.14308882  0.83664687  0.63554333  1
  O  O362  1  0.63010801  0.38991141  0.12224743  1
  O  O363  1  0.62267977  0.37047526  0.64505551  1
  O  O364  1  0.63643734  0.87020388  0.12913085  1
  O  O365  1  0.64146936  0.86230407  0.61482895  1
  O  O366  1  0.12223895  0.25144707  0.25500760  1
  O  O367  1  0.12601623  0.26485080  0.74679066  1
  O  O368  1  0.12234107  0.75559743  0.25340206  1
  O  O369  1  0.10882209  0.74208418  0.76730575  1
  O  O370  1  0.60551099  0.25131050  0.23330965  1
  O  O371  1  0.61658397  0.26156440  0.76552320  1
  O  O372  1  0.61561326  0.74688950  0.25428484  1
  O  O373  1  0.61404865  0.73458227  0.74170122  1
  O  O374  1  0.38342402  0.24710289  0.24518646  1
  O  O375  1  0.38139260  0.24813152  0.74406870  1
  O  O376  1  0.39122468  0.75227354  0.23485550  1
  O  O377  1  0.38008841  0.74244633  0.74232455  1
  O  O378  1  0.89212181  0.24596922  0.25444437  1
  O  O379  1  0.87002441  0.21592181  0.78084235  1
  O  O380  1  0.88401672  0.74281916  0.24552160  1
  O  O381  1  0.88451001  0.73032612  0.75638667  1
  O  O382  1  0.37563777  0.48772065  0.49626444  1
  O  O383  1  0.38582205  0.50634176  0.99177341  1
  O  O384  1  0.38046481  1.00356586  0.48229254  1
  O  O385  1  0.37537442  0.99991086  0.99318519  1
  O  O386  1  0.88735381  0.49443723  0.48940139  1
  O  O387  1  0.88508522  0.50169205  0.99420447  1
  O  O388  1  0.89181292  0.98380121  0.49985724  1
  O  O389  1  0.88733814  1.00212411  1.01456982  1
  O  O390  1  0.10264534  0.02435451  -0.01789780  1
  O  O391  1  0.12407210  0.00616487  0.49445115  1
  O  O392  1  0.11741756  0.50642527  0.00549161  1
  O  O393  1  0.12038968  0.51102268  0.49024829  1
  O  O394  1  0.61671669  0.00276293  0.01485801  1
  O  O395  1  0.60340436  0.00481449  0.49905481  1
  O  O396  1  0.61219585  0.50897143  0.00749568  1
  O  O397  1  0.60822456  0.49553034  0.48751430  1
  O  O398  1  0.36051037  0.36777386  0.12357698  1
  O  O399  1  0.36582040  0.36751233  0.62202595  1
  O  O400  1  0.36987643  0.87108153  0.12749575  1
  O  O401  1  0.37875565  0.85810904  0.63153102  1
  O  O402  1  0.85896992  0.38813926  0.12107121  1
  O  O403  1  0.88221912  0.38134718  0.61150502  1
  O  O404  1  0.86683784  0.86441867  0.12610270  1
  O  O405  1  0.86922358  0.86788912  0.61503992  1
  O  O406  1  0.13743108  0.12608252  0.38254818  1
  O  O407  1  0.14000080  0.13006928  0.87291227  1
  O  O408  1  0.12990157  0.63441496  0.37952872  1
  O  O409  1  0.12873957  0.62896468  0.88288634  1
  O  O410  1  0.62875387  0.14572984  0.36370773  1
  O  O411  1  0.61615952  0.14292444  0.87255838  1
  O  O412  1  0.63924014  0.62186011  0.36628554  1
  O  O413  1  0.63689430  0.61520316  0.89109984  1
