# generated using pymatgen
data_V79Zn79O256
_symmetry_space_group_name_H-M   'P 1'
_cell_length_a   16.86930509
_cell_length_b   16.87028733
_cell_length_c   16.88619030
_cell_angle_alpha   89.87113238
_cell_angle_beta   90.08527933
_cell_angle_gamma   90.05659037
_symmetry_Int_Tables_number   1
_chemical_formula_structural   V79Zn79O256
_chemical_formula_sum   'V79 Zn79 O256'
_cell_volume   4805.62149314
_cell_formula_units_Z   1
loop_
 _symmetry_equiv_pos_site_id
 _symmetry_equiv_pos_as_xyz
  1  'x, y, z'
loop_
 _atom_site_type_symbol
 _atom_site_label
 _atom_site_symmetry_multiplicity
 _atom_site_fract_x
 _atom_site_fract_y
 _atom_site_fract_z
 _atom_site_occupancy
  V  V0  1  0.76531097  0.75317975  0.00681522  1
  V  V1  1  0.87538640  0.12625855  0.24955028  1
  V  V2  1  -0.00204601  0.87199454  0.38565623  1
  V  V3  1  0.87783969  0.00093425  0.38855058  1
  V  V4  1  0.60977676  0.74555144  0.37084335  1
  V  V5  1  0.25364664  0.86911933  0.12511772  1
  V  V6  1  0.25963825  0.25363685  0.50017224  1
  V  V7  1  0.12076908  -0.00163275  0.62144867  1
  V  V8  1  0.75156262  -0.01832264  0.74884252  1
  V  V9  1  0.74660103  0.61863572  0.87058285  1
  V  V10  1  0.12522009  0.74797954  0.86399503  1
  V  V11  1  0.51132736  0.23677545  0.72321849  1
  V  V12  1  0.24118291  0.64153493  0.37172530  1
  V  V13  1  0.00102864  0.12582655  0.12579214  1
  V  V14  1  0.62411875  0.48850782  0.13004531  1
  V  V15  1  0.74387530  0.25276641  0.49970273  1
  V  V16  1  0.51081672  0.38430532  0.37403383  1
  V  V17  1  0.36983627  0.25241714  0.11923467  1
  V  V18  1  0.11766407  0.25801781  0.37516234  1
  V  V19  1  0.49696229  0.64166074  0.13481764  1
  V  V20  1  0.75052585  -0.00251119  0.25015120  1
  V  V21  1  0.26380166  0.61620302  0.87397324  1
  V  V22  1  0.50322946  0.87235148  0.86617015  1
  V  V23  1  0.12629807  0.37682228  0.74108131  1
  V  V24  1  0.37037543  0.63677168  0.24864568  1
  V  V25  1  0.62475401  0.25188950  0.36488658  1
  V  V26  1  0.74496052  0.12553864  0.37838749  1
  V  V27  1  0.87387199  0.51259492  0.37385431  1
  V  V28  1  0.26119739  0.49623692  0.75249048  1
  V  V29  1  -0.00742142  0.87521925  0.87638204  1
  V  V30  1  0.49630007  0.72571814  0.74164167  1
  V  V31  1  0.25567301  0.74784648  0.00182858  1
  V  V32  1  0.11169569  0.62113768  0.00134764  1
  V  V33  1  0.50413374  0.00597437  -0.00758568  1
  V  V34  1  0.87899268  0.49903482  0.86953108  1
  V  V35  1  0.62405068  0.63258777  0.00703420  1
  V  V36  1  0.86848119  0.63183741  0.23209256  1
  V  V37  1  0.49019995  0.49972269  -0.00160969  1
  V  V38  1  0.74642801  0.49085714  0.24872924  1
  V  V39  1  0.25228630  0.38771659  0.13212289  1
  V  V40  1  0.75756337  0.74944211  0.48500252  1
  V  V41  1  0.12180515  0.87000546  0.25500422  1
  V  V42  1  0.87854143  0.37723488  0.49161904  1
  V  V43  1  0.12648707  0.00027264  0.12585449  1
  V  V44  1  0.12349983  0.64180116  0.49308144  1
  V  V45  1  0.87502419  0.24853610  0.62771865  1
  V  V46  1  0.50458012  0.12538060  0.12238430  1
  V  V47  1  0.00714990  0.37364702  0.87614523  1
  V  V48  1  0.11621252  0.12047923  0.49900290  1
  V  V49  1  0.13214414  0.88102967  0.75179995  1
  V  V50  1  0.73882425  0.25100529  -0.00677399  1
  V  V51  1  0.50662499  0.35240348  0.86509495  1
  V  V52  1  0.00968577  0.24801438  0.75272399  1
  V  V53  1  0.62315445  0.61811452  0.50478829  1
  V  V54  1  0.35543760  0.49210408  0.37065745  1
  V  V55  1  0.87637860  0.12015341  0.76336349  1
  V  V56  1  0.86957002  0.25553724  0.12242294  1
  V  V57  1  0.26420166  0.11802433  0.86591749  1
  V  V58  1  -0.00482820  0.74816850  0.23448671  1
  V  V59  1  0.76237220  0.87310287  0.12318659  1
  V  V60  1  0.10562136  0.50327253  0.12587943  1
  V  V61  1  0.74906840  0.38736664  0.63693269  1
  V  V62  1  0.26415093  0.37556451  0.62158778  1
  V  V63  1  0.00877162  0.62515751  0.63235221  1
  V  V64  1  0.12799317  0.13263351  -0.00796600  1
  V  V65  1  0.25762986  0.86730006  0.62275611  1
  V  V66  1  0.61387531  0.87096931  0.25261426  1
  V  V67  1  0.37979059  0.87162601  0.48312137  1
  V  V68  1  0.87646664  0.37830737  -0.00205440  1
  V  V69  1  -0.01045237  -0.00326839  -0.00310627  1
  V  V70  1  0.73192593  0.11994541  0.87859837  1
  V  V71  1  0.25103006  0.12095853  0.37527496  1
  V  V72  1  0.00863089  0.49664074  0.49633196  1
  V  V73  1  0.86970600  0.74980098  0.63533614  1
  V  V74  1  0.37282287  0.12112586  0.25140686  1
  V  V75  1  0.00002320  0.26034563  0.25285366  1
  V  V76  1  0.37424922  0.88070352  -0.00448178  1
  V  V77  1  0.62481533  -0.01867601  0.62561425  1
  V  V78  1  0.50306439  -0.00022369  0.48686230  1
  Zn  Zn79  1  0.48558057  0.50480690  0.50749678  1
  Zn  Zn80  1  0.63092379  0.75594133  0.86542175  1
  Zn  Zn81  1  0.38486558  0.12246187  0.73674620  1
  Zn  Zn82  1  0.25293978  -0.00426550  0.25579046  1
  Zn  Zn83  1  0.24076039  0.26059022  -0.00883034  1
  Zn  Zn84  1  0.12280757  0.39134474  0.26007617  1
  Zn  Zn85  1  0.38349439  0.73266227  0.61724700  1
  Zn  Zn86  1  0.62694602  0.00152405  0.12165833  1
  Zn  Zn87  1  -0.00932198  0.11421108  0.62176806  1
  Zn  Zn88  1  0.87264175  0.61910504  0.74736092  1
  Zn  Zn89  1  0.57860069  0.16112592  0.55941226  1
  Zn  Zn90  1  0.50165780  0.25670492  0.24538367  1
  Zn  Zn91  1  0.61466027  0.50114458  0.64870444  1
  Zn  Zn92  1  0.86621175  0.88770940  0.51834606  1
  Zn  Zn93  1  0.36567383  0.38471668  -0.01700740  1
  Zn  Zn94  1  0.18819993  0.19320617  0.18703720  1
  Zn  Zn95  1  0.22191492  0.16344851  0.66491753  1
  Zn  Zn96  1  0.18171762  0.68624212  0.18744677  1
  Zn  Zn97  1  0.21772151  0.66879674  0.66900041  1
  Zn  Zn98  1  0.68924254  0.18995219  0.18517165  1
  Zn  Zn99  1  0.68844631  0.18314523  0.69271021  1
  Zn  Zn100  1  0.68817224  0.68791942  0.18884330  1
  Zn  Zn101  1  0.68068567  0.69236909  0.68407858  1
  Zn  Zn102  1  0.30935765  0.30799221  0.30745899  1
  Zn  Zn103  1  0.32413310  0.30074946  0.81009053  1
  Zn  Zn104  1  0.31429990  0.81378083  0.31130404  1
  Zn  Zn105  1  0.31635743  0.80939140  0.81085058  1
  Zn  Zn106  1  0.81351567  0.31568374  0.31181460  1
  Zn  Zn107  1  0.81238354  0.30819741  0.81595639  1
  Zn  Zn108  1  0.81577065  0.81499971  0.31148576  1
  Zn  Zn109  1  0.81608723  0.80237989  0.81887399  1
  Zn  Zn110  1  0.18826179  0.43839019  0.43994586  1
  Zn  Zn111  1  0.18430851  0.43893425  0.93976215  1
  Zn  Zn112  1  0.18971951  0.93583614  0.44273900  1
  Zn  Zn113  1  0.18371831  0.94054335  0.93876657  1
  Zn  Zn114  1  0.69450032  0.43824462  0.43562686  1
  Zn  Zn115  1  0.68488363  0.43797622  0.93759830  1
  Zn  Zn116  1  0.68516542  0.93077462  0.43880525  1
  Zn  Zn117  1  0.68849621  0.93714794  0.93599946  1
  Zn  Zn118  1  0.31269810  0.06140214  0.06097398  1
  Zn  Zn119  1  0.33358432  0.03603535  0.59297362  1
  Zn  Zn120  1  0.30882472  0.56785756  0.06659037  1
  Zn  Zn121  1  0.30787653  0.55835131  0.55652738  1
  Zn  Zn122  1  0.80997490  0.06587507  0.06188176  1
  Zn  Zn123  1  0.78296655  0.07196638  0.57725181  1
  Zn  Zn124  1  0.81082615  0.55894569  0.06050454  1
  Zn  Zn125  1  0.81285211  0.56983700  0.55903127  1
  Zn  Zn126  1  0.43656034  0.44448773  0.19468733  1
  Zn  Zn127  1  0.44051472  0.43110668  0.69521956  1
  Zn  Zn128  1  0.43546963  0.94011279  0.18267303  1
  Zn  Zn129  1  0.44225792  0.93549537  0.68180365  1
  Zn  Zn130  1  0.93185452  0.43980117  0.18600521  1
  Zn  Zn131  1  0.93753543  0.43910646  0.68388098  1
  Zn  Zn132  1  0.93966851  0.94011158  0.19059803  1
  Zn  Zn133  1  0.94117545  0.93465186  0.69612446  1
  Zn  Zn134  1  0.06187798  0.06223929  0.31460705  1
  Zn  Zn135  1  0.06536965  0.05994229  0.81008777  1
  Zn  Zn136  1  0.05567604  0.56665232  0.31204511  1
  Zn  Zn137  1  0.07072095  0.55464626  0.81556933  1
  Zn  Zn138  1  0.56144448  0.06425237  0.30844480  1
  Zn  Zn139  1  0.56379385  0.05729219  0.80490702  1
  Zn  Zn140  1  0.56287352  0.56621463  0.31352765  1
  Zn  Zn141  1  0.56266401  0.55762156  0.81444665  1
  Zn  Zn142  1  0.43981075  0.18638824  0.43660662  1
  Zn  Zn143  1  0.42939475  0.18591173  0.93088847  1
  Zn  Zn144  1  0.43511116  0.68371496  0.43596784  1
  Zn  Zn145  1  0.44054080  0.69071880  0.93984361  1
  Zn  Zn146  1  0.93453025  0.18766765  0.43729874  1
  Zn  Zn147  1  0.93982893  0.18950503  0.93978421  1
  Zn  Zn148  1  0.94036987  0.69010850  0.43445983  1
  Zn  Zn149  1  0.93789409  0.68983783  0.93373341  1
  Zn  Zn150  1  0.05985161  0.31706738  0.06589920  1
  Zn  Zn151  1  0.06417617  0.30883632  0.56467688  1
  Zn  Zn152  1  0.06545997  0.81071193  0.05723260  1
  Zn  Zn153  1  0.05887004  0.81032226  0.57032831  1
  Zn  Zn154  1  0.55596844  0.31281240  0.05869962  1
  Zn  Zn155  1  0.54315744  0.35017425  0.57395035  1
  Zn  Zn156  1  0.56683618  0.82021113  0.06337391  1
  Zn  Zn157  1  0.56119577  0.80873945  0.55997610  1
  O  O158  1  0.12092066  0.11715398  0.12235306  1
  O  O159  1  0.12756595  0.11490895  0.61472234  1
  O  O160  1  0.12898885  0.61467697  0.11320152  1
  O  O161  1  0.11683300  0.62922890  0.60795468  1
  O  O162  1  0.60953391  0.12506527  0.13154966  1
  O  O163  1  0.66104544  0.10426273  0.61269212  1
  O  O164  1  0.61217081  0.62321086  0.12542055  1
  O  O165  1  0.62863025  0.61904860  0.60929155  1
  O  O166  1  0.36928831  0.38971759  0.36587008  1
  O  O167  1  0.39778954  0.37086794  0.87395395  1
  O  O168  1  0.37346383  0.87816880  0.38338086  1
  O  O169  1  0.38573927  0.87124139  0.88667476  1
  O  O170  1  0.87338655  0.38509355  0.38544056  1
  O  O171  1  0.88149406  0.38136375  0.87883793  1
  O  O172  1  0.88385004  0.88483376  0.37686651  1
  O  O173  1  0.89360760  0.86834765  0.87344205  1
  O  O174  1  0.24258211  0.01617120  0.37451262  1
  O  O175  1  0.24646685  0.01899015  0.88968039  1
  O  O176  1  0.25245213  0.50623358  0.37098652  1
  O  O177  1  0.25147311  0.50909529  0.87417594  1
  O  O178  1  0.75472026  0.00606818  0.36920277  1
  O  O179  1  0.74564285  0.01108091  0.86725049  1
  O  O180  1  0.75835529  0.49951297  0.35809876  1
  O  O181  1  0.75824843  0.51385102  0.88528678  1
  O  O182  1  0.24618334  0.49060715  0.12636166  1
  O  O183  1  0.25061442  0.48180404  0.63103026  1
  O  O184  1  0.23993308  0.98988017  0.12466453  1
  O  O185  1  0.23022167  0.97810838  0.61674567  1
  O  O186  1  0.73519634  0.50587224  0.13371116  1
  O  O187  1  0.76209579  0.48865174  0.62326240  1
  O  O188  1  0.74794960  0.99631650  0.13313697  1
  O  O189  1  0.75003456  0.98170764  0.64047175  1
  O  O190  1  0.00048749  0.36454829  0.24454105  1
  O  O191  1  0.00636738  0.37030311  0.75373143  1
  O  O192  1  0.00369247  0.86635744  0.25429002  1
  O  O193  1  0.01485478  0.87766801  0.76837981  1
  O  O194  1  0.49187468  0.37213779  0.26725540  1
  O  O195  1  0.50380215  0.35411769  0.75745920  1
  O  O196  1  0.51524298  0.88051001  0.24188479  1
  O  O197  1  0.49825179  0.88217152  0.76637384  1
  O  O198  1  0.49052671  0.12747894  0.24108850  1
  O  O199  1  0.50677222  0.13091043  0.73982552  1
  O  O200  1  0.49132839  0.62620985  0.24158259  1
  O  O201  1  0.49092313  0.62667496  0.75502628  1
  O  O202  1  0.99412305  0.13291016  0.24477128  1
  O  O203  1  0.99369633  0.13016535  0.74793584  1
  O  O204  1  0.98981407  0.64180793  0.25164134  1
  O  O205  1  1.00898500  0.61463900  0.73396037  1
  O  O206  1  0.37659426  0.25431374  0.01335573  1
  O  O207  1  0.35793419  0.24899998  0.49176111  1
  O  O208  1  0.36236834  0.75854763  -0.00086433  1
  O  O209  1  0.38764480  0.76615602  0.50055946  1
  O  O210  1  0.86963088  0.25621166  0.00620374  1
  O  O211  1  0.87069140  0.25874220  0.50530687  1
  O  O212  1  0.86405081  0.74787417  0.00152779  1
  O  O213  1  0.86474767  0.74511305  0.50473918  1
  O  O214  1  0.12415074  0.24457583  0.48986520  1
  O  O215  1  0.12045408  0.23563380  1.00874053  1
  O  O216  1  0.11603708  0.74008687  0.49274843  1
  O  O217  1  0.13590134  0.73884516  0.99413023  1
  O  O218  1  0.63830525  0.24910188  0.48963856  1
  O  O219  1  0.64078651  0.25477331  1.00709153  1
  O  O220  1  0.63219548  0.74491512  0.48686918  1
  O  O221  1  0.62688261  0.73962684  1.00014089  1
  O  O222  1  0.49160216  0.24343388  0.12506528  1
  O  O223  1  0.51603896  0.24596138  0.61766169  1
  O  O224  1  0.50141325  0.74009612  0.12277882  1
  O  O225  1  0.50087299  0.74470134  0.63625990  1
  O  O226  1  0.99095949  0.24560466  0.13267823  1
  O  O227  1  0.98811662  0.24855516  0.63277584  1
  O  O228  1  0.99780443  0.75776655  0.13507104  1
  O  O229  1  0.98940462  0.73097323  0.61757984  1
  O  O230  1  0.00457544  0.24586387  0.36434731  1
  O  O231  1  -0.00964981  0.26170703  0.86280036  1
  O  O232  1  -0.00878321  0.76779788  0.36312647  1
  O  O233  1  0.01348383  0.76365833  0.88501615  1
  O  O234  1  0.51210464  0.25390393  0.37237133  1
  O  O235  1  0.51223817  0.25383284  0.88826991  1
  O  O236  1  0.51114433  0.75031589  0.37314477  1
  O  O237  1  0.50053213  0.75936433  0.86775271  1
  O  O238  1  0.23595988  0.14209360  0.48975644  1
  O  O239  1  0.23611907  0.12728545  1.00011456  1
  O  O240  1  0.23096433  0.62036563  0.48378841  1
  O  O241  1  0.24515936  0.63001544  0.99180895  1
  O  O242  1  0.76139967  0.13961431  0.48502227  1
  O  O243  1  0.75329951  0.13261337  0.98678280  1
  O  O244  1  0.73892308  0.63953124  0.49972986  1
  O  O245  1  0.74431065  0.63616192  1.00057661  1
  O  O246  1  0.25174121  0.37716663  0.01111671  1
  O  O247  1  0.24570192  0.36733338  0.50962918  1
  O  O248  1  0.25349981  0.86842824  0.00515814  1
  O  O249  1  0.26860465  0.88057955  0.50610135  1
  O  O250  1  0.75999305  0.35949692  -0.01263161  1
  O  O251  1  0.76166584  0.36841975  0.50295995  1
  O  O252  1  0.74394838  0.86099372  0.00623462  1
  O  O253  1  0.75225034  0.85667825  0.49881975  1
  O  O254  1  0.11406870  0.50597446  0.23292898  1
  O  O255  1  0.14097448  0.48459241  0.75642589  1
  O  O256  1  0.12320774  0.99050718  0.24043373  1
  O  O257  1  0.12690459  0.98897424  0.74197295  1
  O  O258  1  0.63643142  0.50627729  0.24287379  1
  O  O259  1  0.63933428  0.50922337  0.75561852  1
  O  O260  1  0.63587403  0.98896827  0.25296680  1
  O  O261  1  0.64130702  0.99968061  0.73934034  1
  O  O262  1  0.37038778  0.01490868  0.24210438  1
  O  O263  1  0.36744614  0.01422121  0.70630956  1
  O  O264  1  0.37873651  0.51759428  0.26620858  1
  O  O265  1  0.36147191  0.49182862  0.75047701  1
  O  O266  1  0.86525056  0.00543923  0.25789832  1
  O  O267  1  0.86313423  0.00802799  0.74515489  1
  O  O268  1  0.86831726  0.51102086  0.25151919  1
  O  O269  1  0.87685080  0.50113902  0.76335892  1
  O  O270  1  0.12756300  0.36373773  0.37458271  1
  O  O271  1  0.11358434  0.37673258  0.86980122  1
  O  O272  1  0.11092660  0.88510805  0.36605617  1
  O  O273  1  0.13056871  0.86607077  0.86805456  1
  O  O274  1  0.61759115  0.37005469  0.37746531  1
  O  O275  1  0.60039370  0.38984846  0.88274479  1
  O  O276  1  0.62953988  0.86352801  0.36086199  1
  O  O277  1  0.60766206  0.87104147  0.88463987  1
  O  O278  1  0.37968766  0.13297296  0.12888813  1
  O  O279  1  0.33168689  0.14016115  0.63239842  1
  O  O280  1  0.38301876  0.62307306  0.13887908  1
  O  O281  1  0.32363980  0.63893284  0.62988600  1
  O  O282  1  0.88062306  0.13404403  0.12989255  1
  O  O283  1  0.86904565  0.13478894  0.63390816  1
  O  O284  1  0.87806283  0.61949891  0.13355976  1
  O  O285  1  0.88597628  0.63170910  0.62728007  1
  O  O286  1  0.25411358  0.26194507  0.11910234  1
  O  O287  1  0.23830728  0.26340749  0.60736639  1
  O  O288  1  0.23974511  0.75896260  0.11527163  1
  O  O289  1  0.23017354  0.77090104  0.61465712  1
  O  O290  1  0.76121817  0.23994627  0.11012917  1
  O  O291  1  0.75955791  0.25690489  0.61669934  1
  O  O292  1  0.74777325  0.75572707  0.11401393  1
  O  O293  1  0.76582562  0.74360711  0.62026044  1
  O  O294  1  0.23882824  0.24718630  0.38207366  1
  O  O295  1  0.26323461  0.23203794  0.88302713  1
  O  O296  1  0.24652764  0.74044221  0.37461169  1
  O  O297  1  0.24474185  0.73797227  0.88148354  1
  O  O298  1  0.74611776  0.24687416  0.37857600  1
  O  O299  1  0.75163267  0.23657185  0.88468036  1
  O  O300  1  0.75081625  0.74941019  0.38241103  1
  O  O301  1  0.74869349  0.73993747  0.89082916  1
  O  O302  1  0.00877432  0.11923003  0.00567854  1
  O  O303  1  0.01014898  0.13122146  0.50339679  1
  O  O304  1  0.01306289  0.63136924  -0.00081647  1
  O  O305  1  0.01004659  0.61785375  0.49881762  1
  O  O306  1  0.49045386  0.11162379  0.00455390  1
  O  O307  1  0.49674561  0.10883042  0.49992073  1
  O  O308  1  0.50297288  0.62149456  0.01622223  1
  O  O309  1  0.51580420  0.62215548  0.49316706  1
  O  O310  1  0.48834071  0.37088180  0.47418660  1
  O  O311  1  0.49554063  0.39140200  0.99868571  1
  O  O312  1  0.49117586  0.88453719  0.50385481  1
  O  O313  1  0.49148738  0.88295182  0.99788914  1
  O  O314  1  0.99310669  0.38938051  0.50911932  1
  O  O315  1  0.98864446  0.36569177  0.98807620  1
  O  O316  1  0.99739269  0.86965817  0.48736694  1
  O  O317  1  1.01139221  0.88421818  0.98832750  1
  O  O318  1  0.50020599  0.49056891  0.37596669  1
  O  O319  1  0.49796734  0.51675671  0.89979001  1
  O  O320  1  0.50847426  0.99874977  0.38695702  1
  O  O321  1  0.50351043  0.99149047  0.88583751  1
  O  O322  1  0.99099498  0.50298628  0.38682463  1
  O  O323  1  0.99170890  0.48851625  0.87338099  1
  O  O324  1  0.98770551  0.98934116  0.36812644  1
  O  O325  1  1.00867640  0.98676084  0.88351913  1
  O  O326  1  0.00765395  0.00421154  0.12016733  1
  O  O327  1  0.01246265  -0.00180376  0.62878250  1
  O  O328  1  0.00685776  0.49634406  0.11715550  1
  O  O329  1  -0.00965884  0.51525240  0.60755949  1
  O  O330  1  0.50158190  0.00865108  0.11465358  1
  O  O331  1  0.52246227  0.00040521  0.62377958  1
  O  O332  1  0.51050563  0.50890792  0.12395549  1
  O  O333  1  0.51099529  0.46233021  0.61113366  1
  O  O334  1  0.23899797  0.36994298  0.23493435  1
  O  O335  1  0.24698275  0.37208036  0.74050130  1
  O  O336  1  0.24056673  0.87354334  0.24420095  1
  O  O337  1  0.24332060  0.86821882  0.73792107  1
  O  O338  1  0.75798693  0.39133583  0.24404186  1
  O  O339  1  0.75929126  0.36890305  0.73542997  1
  O  O340  1  0.74735390  0.88291543  0.24424353  1
  O  O341  1  0.75332447  0.88415386  0.76834632  1
  O  O342  1  0.25383595  0.12623228  0.25741482  1
  O  O343  1  0.23345497  0.12443483  0.77030404  1
  O  O344  1  0.25686603  0.63064437  0.25803038  1
  O  O345  1  0.24016024  0.61284642  0.76888112  1
  O  O346  1  0.75444356  0.11748842  0.25645336  1
  O  O347  1  0.75792565  0.12202574  0.76616555  1
  O  O348  1  0.76413467  0.61999348  0.24491744  1
  O  O349  1  0.74789073  0.63513242  0.77002608  1
  O  O350  1  0.36328632  0.13632702  0.36283559  1
  O  O351  1  0.36981996  0.11623059  0.86167614  1
  O  O352  1  0.35920599  0.62344606  0.36735257  1
  O  O353  1  0.36185408  0.62794202  0.88075214  1
  O  O354  1  0.86710418  0.11963136  0.36868395  1
  O  O355  1  0.87526582  0.12629191  0.86591641  1
  O  O356  1  0.87913850  0.61646965  0.36479382  1
  O  O357  1  0.86654439  0.61839308  0.87605359  1
  O  O358  1  0.13146808  0.39143797  0.12008855  1
  O  O359  1  0.12733286  0.37359409  0.63670567  1
  O  O360  1  0.13114158  0.88129772  0.13183730  1
  O  O361  1  0.12247558  0.87887364  0.63461019  1
  O  O362  1  0.61848935  0.38992799  0.12457941  1
  O  O363  1  0.64871381  0.37993029  0.61459311  1
  O  O364  1  0.63718490  0.87557440  0.13893412  1
  O  O365  1  0.62748305  0.88084164  0.62461771  1
  O  O366  1  0.11438349  0.25114838  0.25731777  1
  O  O367  1  0.11139173  0.25691064  0.74713380  1
  O  O368  1  0.11021109  0.75900700  0.24626946  1
  O  O369  1  0.13100626  0.75438607  0.76228015  1
  O  O370  1  0.62862005  0.25239646  0.26035584  1
  O  O371  1  0.61155013  0.24498672  0.74799979  1
  O  O372  1  0.63015525  0.75970089  0.25912403  1
  O  O373  1  0.60579258  0.74248988  0.75338159  1
  O  O374  1  0.37403094  0.24046872  0.23665386  1
  O  O375  1  0.40315664  0.24098666  0.74957016  1
  O  O376  1  0.37751727  0.73676427  0.25506526  1
  O  O377  1  0.39353210  0.75441915  0.74784854  1
  O  O378  1  0.87861096  0.24774659  0.24283894  1
  O  O379  1  0.88145843  0.24175892  0.74338730  1
  O  O380  1  0.88017928  0.74134779  0.24711437  1
  O  O381  1  0.87390799  0.74150951  0.73968044  1
  O  O382  1  0.37360419  0.51134020  0.47653769  1
  O  O383  1  0.38745056  0.50253816  1.01353657  1
  O  O384  1  0.39223251  0.98724573  0.50705077  1
  O  O385  1  0.38602096  0.98963458  1.00500031  1
  O  O386  1  0.87943848  0.49779647  0.48981397  1
  O  O387  1  0.86827852  0.48624865  0.99189951  1
  O  O388  1  0.86203517  1.00320565  0.49136014  1
  O  O389  1  0.88995439  1.00535855  1.00498979  1
  O  O390  1  0.11686101  0.01001418  0.01167372  1
  O  O391  1  0.12467625  0.01051084  0.50379509  1
  O  O392  1  0.12521733  0.51412894  0.00754860  1
  O  O393  1  0.11080722  0.50450609  0.49457786  1
  O  O394  1  0.60881943  -0.00560400  0.00373701  1
  O  O395  1  0.61588894  -0.00964647  0.50851334  1
  O  O396  1  0.61987745  0.51186689  0.01612991  1
  O  O397  1  0.63218672  0.51644058  0.48984054  1
  O  O398  1  0.36249290  0.37255337  0.13141084  1
  O  O399  1  0.36222527  0.36792084  0.62675400  1
  O  O400  1  0.36034160  0.87766567  0.11833332  1
  O  O401  1  0.36311724  0.86370437  0.62457220  1
  O  O402  1  0.87846269  0.36495752  0.11412662  1
  O  O403  1  0.87014782  0.36770983  0.61505703  1
  O  O404  1  0.86216767  0.87993910  0.13013867  1
  O  O405  1  0.89193282  0.85464396  0.62634283  1
  O  O406  1  0.12903208  0.13404182  0.37928612  1
  O  O407  1  0.12196068  0.12454807  0.89117529  1
  O  O408  1  0.13136834  0.62505107  0.37775340  1
  O  O409  1  0.12903725  0.62864500  0.88734691  1
  O  O410  1  0.63767508  0.13302320  0.36931522  1
  O  O411  1  0.63344099  0.12240569  0.87547662  1
  O  O412  1  0.62609418  0.64041856  0.37646151  1
  O  O413  1  0.63731833  0.62366993  0.89060428  1
