# generated using pymatgen
data_V79Zn79O256
_symmetry_space_group_name_H-M   'P 1'
_cell_length_a   16.92968306
_cell_length_b   16.92334296
_cell_length_c   16.91748195
_cell_angle_alpha   90.10088077
_cell_angle_beta   89.87728240
_cell_angle_gamma   89.97691934
_symmetry_Int_Tables_number   1
_chemical_formula_structural   V79Zn79O256
_chemical_formula_sum   'V79 Zn79 O256'
_cell_volume   4846.95513598
_cell_formula_units_Z   1
loop_
 _symmetry_equiv_pos_site_id
 _symmetry_equiv_pos_as_xyz
  1  'x, y, z'
loop_
 _atom_site_type_symbol
 _atom_site_label
 _atom_site_symmetry_multiplicity
 _atom_site_fract_x
 _atom_site_fract_y
 _atom_site_fract_z
 _atom_site_occupancy
  V  V0  1  0.37669660  0.75109075  0.11907253  1
  V  V1  1  0.49985480  -0.00104071  -0.01261683  1
  V  V2  1  0.00421984  0.87224792  0.87815754  1
  V  V3  1  0.50314313  0.37633856  0.38262093  1
  V  V4  1  0.76210727  0.37805394  0.62305648  1
  V  V5  1  0.63252783  0.12701717  -0.00296556  1
  V  V6  1  0.63148900  0.39068008  0.24382610  1
  V  V7  1  0.50705899  0.85571708  0.86789583  1
  V  V8  1  0.10759364  0.62360420  0.48934360  1
  V  V9  1  0.11938051  0.50237303  0.62380125  1
  V  V10  1  0.12502544  0.74756077  0.87453312  1
  V  V11  1  0.00175740  0.50290388  0.00488913  1
  V  V12  1  0.85789679  0.87122703  0.00679338  1
  V  V13  1  0.25064232  -0.00054829  0.25001135  1
  V  V14  1  -0.00029821  -0.00108510  0.00226080  1
  V  V15  1  0.10813460  0.25352178  0.36464982  1
  V  V16  1  -0.00529795  0.23579822  0.75065918  1
  V  V17  1  -0.00988397  0.46725701  0.48843999  1
  V  V18  1  0.12737456  0.12584342  0.00147667  1
  V  V19  1  0.12837500  0.62575970  0.00390306  1
  V  V20  1  0.00003891  0.13502452  0.12844800  1
  V  V21  1  0.87477701  0.12779463  0.25039983  1
  V  V22  1  0.61835433  0.75867863  0.37179541  1
  V  V23  1  0.63420324  0.62241651  -0.00982095  1
  V  V24  1  0.12533280  -0.00282696  0.12977021  1
  V  V25  1  0.37760473  0.87666140  -0.01382002  1
  V  V26  1  0.49727510  0.75883117  0.25270546  1
  V  V27  1  -0.00139059  0.37529381  0.87318529  1
  V  V28  1  0.87226471  0.50985790  0.87425454  1
  V  V29  1  0.75182372  0.61200086  0.36781494  1
  V  V30  1  0.26243539  0.25154953  0.01236807  1
  V  V31  1  0.61980144  0.62669790  0.50404401  1
  V  V32  1  0.25335902  0.74636761  -0.01236156  1
  V  V33  1  0.92412080  0.82208077  0.53807160  1
  V  V34  1  0.74497683  0.75917360  0.49371255  1
  V  V35  1  0.75373683  0.50524021  0.75703833  1
  V  V36  1  0.62308771  0.50180763  0.62609540  1
  V  V37  1  0.62900898  -0.00874332  0.12094538  1
  V  V38  1  0.62624698  0.37580381  0.75153932  1
  V  V39  1  0.13065653  0.48692265  0.12695336  1
  V  V40  1  0.50711763  0.61361339  0.11517800  1
  V  V41  1  0.87644463  -0.00209267  0.37757289  1
  V  V42  1  0.24653052  0.63221962  0.37444813  1
  V  V43  1  0.86828781  0.74619043  0.13116794  1
  V  V44  1  0.37477736  0.50094942  0.37979311  1
  V  V45  1  0.37715972  0.11953055  0.75178348  1
  V  V46  1  0.88011210  0.23489502  0.62768458  1
  V  V47  1  0.12985291  0.37750014  0.74816342  1
  V  V48  1  0.37550127  0.62531096  0.24864826  1
  V  V49  1  0.12554487  0.24841872  0.87585376  1
  V  V50  1  0.87525068  0.00199750  0.86752366  1
  V  V51  1  0.25478982  0.11667481  0.87684230  1
  V  V52  1  0.62177621  0.24116352  0.37714123  1
  V  V53  1  0.36744072  0.37136955  0.50216807  1
  V  V54  1  0.24656430  0.75051193  0.51457980  1
  V  V55  1  0.75451044  0.24659994  0.50071272  1
  V  V56  1  0.49242639  0.38569546  0.88060500  1
  V  V57  1  0.74960275  -0.00663214  0.24523253  1
  V  V58  1  0.35214260  0.62355461  0.74361813  1
  V  V59  1  0.37834414  -0.01288268  0.38555905  1
  V  V60  1  0.00458239  0.87225860  0.36105590  1
  V  V61  1  0.85394573  0.25040800  0.12022318  1
  V  V62  1  0.25024253  0.00104343  0.73027501  1
  V  V63  1  -0.00030525  0.00668673  0.51397203  1
  V  V64  1  0.51630287  -0.00241532  0.50317539  1
  V  V65  1  0.49921843  0.24879812  0.74977643  1
  V  V66  1  0.34595069  0.50193343  0.87211583  1
  V  V67  1  0.24831539  0.13172490  0.37956902  1
  V  V68  1  0.12876186  0.88100825  0.74170237  1
  V  V69  1  0.49731698  0.12623801  0.12396091  1
  V  V70  1  0.74102579  0.87611096  0.61877216  1
  V  V71  1  0.62702746  0.85411888  0.74856806  1
  V  V72  1  0.12600516  0.12703079  0.51391046  1
  V  V73  1  0.74287790  0.00492126  0.74807383  1
  V  V74  1  0.37758387  0.12881562  0.24838691  1
  V  V75  1  0.25151721  0.48584808  0.24482824  1
  V  V76  1  0.63069517  0.25168447  0.88345132  1
  V  V77  1  0.36849956  0.25216974  0.62406664  1
  V  V78  1  0.85853096  0.36989762  0.00386860  1
  Zn  Zn79  1  0.75917022  0.13426006  0.87298326  1
  Zn  Zn80  1  0.74616869  0.12163784  0.38105098  1
  Zn  Zn81  1  0.62736643  0.87186578  0.24267021  1
  Zn  Zn82  1  0.25097396  0.87379572  0.12215935  1
  Zn  Zn83  1  0.24912749  0.37755005  0.62585515  1
  Zn  Zn84  1  0.01321608  0.73101039  0.23038525  1
  Zn  Zn85  1  0.36597363  0.38930834  0.02883994  1
  Zn  Zn86  1  0.51930954  0.11171520  0.62277785  1
  Zn  Zn87  1  0.49351018  0.50598112  0.51290696  1
  Zn  Zn88  1  0.13328204  0.85886114  0.25628767  1
  Zn  Zn89  1  0.94690600  0.69318009  0.68728772  1
  Zn  Zn90  1  0.54508153  0.67911830  0.68274458  1
  Zn  Zn91  1  0.49974753  0.25382788  0.24510560  1
  Zn  Zn92  1  0.38732518  0.75040377  0.62420988  1
  Zn  Zn93  1  0.73178505  0.66572471  0.86606942  1
  Zn  Zn94  1  0.18787217  0.18825451  0.19117031  1
  Zn  Zn95  1  0.18778266  0.19147259  0.69291379  1
  Zn  Zn96  1  0.19144209  0.68246237  0.18167558  1
  Zn  Zn97  1  0.15402782  0.67678555  0.69711995  1
  Zn  Zn98  1  0.68011069  0.18401539  0.18999122  1
  Zn  Zn99  1  0.69338232  0.18760385  0.69072329  1
  Zn  Zn100  1  0.68856165  0.68422468  0.18653566  1
  Zn  Zn101  1  0.75429234  0.65801386  0.65433039  1
  Zn  Zn102  1  0.31344145  0.30941569  0.31612238  1
  Zn  Zn103  1  0.31213706  0.30803931  0.81788724  1
  Zn  Zn104  1  0.30994012  0.81181325  0.31215499  1
  Zn  Zn105  1  0.32729692  0.82362160  0.77991445  1
  Zn  Zn106  1  0.79892764  0.30525684  0.29981316  1
  Zn  Zn107  1  0.81470988  0.31635687  0.81140844  1
  Zn  Zn108  1  0.81622221  0.80900170  0.31064068  1
  Zn  Zn109  1  0.82490946  0.80191889  0.80389216  1
  Zn  Zn110  1  0.18268784  0.43610735  0.43493808  1
  Zn  Zn111  1  0.18625857  0.43030341  0.94212413  1
  Zn  Zn112  1  0.18657910  0.94377884  0.43871796  1
  Zn  Zn113  1  0.19011920  0.93563561  0.93983147  1
  Zn  Zn114  1  0.68863221  0.43337462  0.44165264  1
  Zn  Zn115  1  0.67755899  0.44655171  0.94344981  1
  Zn  Zn116  1  0.68387136  0.94105811  0.42944813  1
  Zn  Zn117  1  0.68647453  0.93237500  0.92932610  1
  Zn  Zn118  1  0.31520082  0.06168124  0.06106148  1
  Zn  Zn119  1  0.31932165  0.06902374  0.56099387  1
  Zn  Zn120  1  0.31321457  0.56349729  0.05827409  1
  Zn  Zn121  1  0.30255934  0.56522272  0.56643099  1
  Zn  Zn122  1  0.81242326  0.06073212  0.06134916  1
  Zn  Zn123  1  0.81182906  0.06093983  0.56497661  1
  Zn  Zn124  1  0.81181810  0.56863243  0.05083369  1
  Zn  Zn125  1  0.86241301  0.60103747  0.52157687  1
  Zn  Zn126  1  0.43967935  0.43689477  0.19797063  1
  Zn  Zn127  1  0.43375193  0.44221112  0.69434751  1
  Zn  Zn128  1  0.43638119  0.94213761  0.18140704  1
  Zn  Zn129  1  0.43935596  0.92854033  0.67607050  1
  Zn  Zn130  1  0.94706284  0.57530774  0.17742519  1
  Zn  Zn131  1  0.93943241  0.44551215  0.68464366  1
  Zn  Zn132  1  0.93389180  0.93767762  0.18558827  1
  Zn  Zn133  1  0.92891132  0.90414419  0.69862693  1
  Zn  Zn134  1  0.06078200  0.06530971  0.31647186  1
  Zn  Zn135  1  0.06702179  0.05780115  0.81295605  1
  Zn  Zn136  1  0.06580299  0.54320586  0.31351079  1
  Zn  Zn137  1  0.05488697  0.56907370  0.80985659  1
  Zn  Zn138  1  0.55914317  0.05571595  0.31199451  1
  Zn  Zn139  1  0.56518782  0.06309962  0.81103353  1
  Zn  Zn140  1  0.56257087  0.56913747  0.31527140  1
  Zn  Zn141  1  0.55547519  0.56410381  0.81428457  1
  Zn  Zn142  1  0.43717684  0.18088257  0.44013119  1
  Zn  Zn143  1  0.44205155  0.18775048  0.93601288  1
  Zn  Zn144  1  0.43490856  0.69625362  0.44523512  1
  Zn  Zn145  1  0.43685133  0.67622578  0.92747814  1
  Zn  Zn146  1  0.93810136  0.18754533  0.44263930  1
  Zn  Zn147  1  0.93765124  0.18653839  0.93919306  1
  Zn  Zn148  1  0.95291304  0.66106435  0.37339849  1
  Zn  Zn149  1  0.93737133  0.69095270  0.94652965  1
  Zn  Zn150  1  0.06187667  0.31239202  0.06026828  1
  Zn  Zn151  1  0.06331526  0.30607227  0.56213327  1
  Zn  Zn152  1  0.06057977  0.80970419  0.06572371  1
  Zn  Zn153  1  0.09654892  0.82887334  0.53997293  1
  Zn  Zn154  1  0.52493150  0.33810156  0.08492150  1
  Zn  Zn155  1  0.58215504  0.27976353  0.58046796  1
  Zn  Zn156  1  0.56424928  0.80503364  0.05761824  1
  Zn  Zn157  1  0.55943207  0.82376912  0.55751666  1
  O  O158  1  0.11762879  0.11677481  0.12219347  1
  O  O159  1  0.13256141  0.13032528  0.61333926  1
  O  O160  1  0.12745342  0.61550377  0.10957014  1
  O  O161  1  0.12078256  0.60780277  0.60247339  1
  O  O162  1  0.61881667  0.11285827  0.11586393  1
  O  O163  1  0.61227390  0.17263913  0.61835441  1
  O  O164  1  0.60957800  0.62392147  0.12740062  1
  O  O165  1  0.63556352  0.61748595  0.62019572  1
  O  O166  1  0.38077021  0.38098064  0.38195076  1
  O  O167  1  0.38305422  0.38621485  0.86540686  1
  O  O168  1  0.37039275  0.88856520  0.36893297  1
  O  O169  1  0.39075294  0.86952197  0.87902117  1
  O  O170  1  0.89188281  0.38017932  0.33765791  1
  O  O171  1  0.88279517  0.37835417  0.88659251  1
  O  O172  1  0.88462020  0.89014754  0.36833379  1
  O  O173  1  0.88868418  0.88589949  0.89209128  1
  O  O174  1  0.25542367  0.00603997  0.36606412  1
  O  O175  1  0.24890391  0.01468693  0.87957068  1
  O  O176  1  0.25959395  0.50502047  0.36680588  1
  O  O177  1  0.24661093  0.49539352  0.86954500  1
  O  O178  1  0.75825252  0.00415520  0.36708275  1
  O  O179  1  0.75784441  -0.00372543  0.86179690  1
  O  O180  1  0.74089126  0.51313105  0.37927298  1
  O  O181  1  0.75952592  0.48939610  0.86752773  1
  O  O182  1  0.24096821  0.50232755  0.12906980  1
  O  O183  1  0.22577906  0.49267992  0.61454539  1
  O  O184  1  0.24263545  1.00149233  0.13197424  1
  O  O185  1  0.25055477  1.00156647  0.63205795  1
  O  O186  1  0.78618899  0.50145761  0.15447394  1
  O  O187  1  0.73842919  0.49024244  0.63970905  1
  O  O188  1  0.74006044  1.00583717  0.13285682  1
  O  O189  1  0.75827330  0.98943609  0.63825789  1
  O  O190  1  -0.05321318  0.38490738  0.28845675  1
  O  O191  1  0.00471195  0.36960718  0.76231060  1
  O  O192  1  0.00496953  0.88336595  0.25683357  1
  O  O193  1  0.02333278  0.89623306  0.76923030  1
  O  O194  1  0.50497901  0.37054497  0.26967849  1
  O  O195  1  0.50800473  0.36984002  0.76038263  1
  O  O196  1  0.49672101  0.86135407  0.24121825  1
  O  O197  1  0.51497401  0.87847073  0.76061704  1
  O  O198  1  0.49277028  0.11951984  0.24132969  1
  O  O199  1  0.49358042  0.13124169  0.74898183  1
  O  O200  1  0.48722865  0.63370303  0.24449693  1
  O  O201  1  0.48404646  0.61308437  0.74725717  1
  O  O202  1  0.98606007  0.11551853  0.23846806  1
  O  O203  1  1.00531789  0.13699437  0.75829149  1
  O  O204  1  0.99151816  0.62086469  0.27100925  1
  O  O205  1  1.04089550  0.64919201  0.73382824  1
  O  O206  1  0.36315023  0.24467978  -0.00326921  1
  O  O207  1  0.38415802  0.25892699  0.51259238  1
  O  O208  1  0.37196835  0.75403637  -0.00004823  1
  O  O209  1  0.35206477  0.74782518  0.50574872  1
  O  O210  1  0.87388627  0.25864306  0.00475018  1
  O  O211  1  0.87098251  0.24753303  0.51719466  1
  O  O212  1  0.87419317  0.76641950  0.00611200  1
  O  O213  1  0.86068796  0.76053266  0.48702151  1
  O  O214  1  0.11757795  0.23019581  0.49106293  1
  O  O215  1  0.13289555  0.24375420  0.99488573  1
  O  O216  1  0.12710905  0.72582160  0.49382726  1
  O  O217  1  0.13396329  0.74536593  0.99694191  1
  O  O218  1  0.63653249  0.25814622  0.48188980  1
  O  O219  1  0.61620622  0.23756080  0.98846665  1
  O  O220  1  0.62673296  0.74815362  0.48892845  1
  O  O221  1  0.62144511  0.72465605  1.00899923  1
  O  O222  1  0.51146247  0.22733830  0.12708250  1
  O  O223  1  0.48436649  0.26317073  0.64302156  1
  O  O224  1  0.48948189  0.73993587  0.13164382  1
  O  O225  1  0.49922769  0.74571688  0.60725890  1
  O  O226  1  0.99582593  0.23755599  0.11780356  1
  O  O227  1  0.98647328  0.25369024  0.63546608  1
  O  O228  1  0.98439943  0.75007375  0.11987286  1
  O  O229  1  0.98947680  0.76789335  0.59130239  1
  O  O230  1  0.00774560  0.24312847  0.37276669  1
  O  O231  1  0.00302067  0.25687233  0.87182149  1
  O  O232  1  -0.00892418  0.77182621  0.37065561  1
  O  O233  1  0.01033615  0.76297452  0.88692029  1
  O  O234  1  0.51129647  0.25488050  0.38065756  1
  O  O235  1  0.50602268  0.25536253  0.86304711  1
  O  O236  1  0.50527624  0.74213058  0.36419963  1
  O  O237  1  0.50246491  0.75753713  0.87468284  1
  O  O238  1  0.23517323  0.11287008  0.49112639  1
  O  O239  1  0.24812495  0.13108915  0.99487197  1
  O  O240  1  0.24166556  0.63046435  0.48972426  1
  O  O241  1  0.24273384  0.63666490  1.00037325  1
  O  O242  1  0.75389790  0.14033441  0.50096594  1
  O  O243  1  0.73619649  0.11592647  0.99392906  1
  O  O244  1  0.73450170  0.64310404  0.49502662  1
  O  O245  1  0.73981320  0.62309000  0.98710820  1
  O  O246  1  0.25402809  0.35614041  -0.00315845  1
  O  O247  1  0.26541416  0.37755165  0.49640133  1
  O  O248  1  0.26264999  0.86820452  0.00058286  1
  O  O249  1  0.21421589  0.84995181  0.49950100  1
  O  O250  1  0.76111478  0.38000500  -0.00368166  1
  O  O251  1  0.74702932  0.36315633  0.51357767  1
  O  O252  1  0.76035162  0.88585595  0.00240625  1
  O  O253  1  0.73469743  0.87164239  0.50582008  1
  O  O254  1  0.13585365  0.50118325  0.23400446  1
  O  O255  1  0.11071909  0.49065774  0.73298044  1
  O  O256  1  0.13551733  1.00605705  0.24264869  1
  O  O257  1  0.14067882  0.99759807  0.75012561  1
  O  O258  1  0.61554466  0.49016655  0.25463932  1
  O  O259  1  0.63139353  0.48956089  0.74972414  1
  O  O260  1  0.63106050  0.99793746  0.24074199  1
  O  O261  1  0.63994095  0.99431284  0.75396173  1
  O  O262  1  0.36765700  0.00597410  0.25558775  1
  O  O263  1  0.36290706  0.01097287  0.74321381  1
  O  O264  1  0.36947072  0.50863977  0.25810580  1
  O  O265  1  0.36670303  0.50530964  0.76184796  1
  O  O266  1  0.86733796  0.00822525  0.25289191  1
  O  O267  1  0.86559353  -0.01734369  0.76186261  1
  O  O268  1  0.84297914  0.49905804  0.20392907  1
  O  O269  1  0.86731451  0.49374109  0.76209306  1
  O  O270  1  0.13188041  0.35101532  0.38149714  1
  O  O271  1  0.11474841  0.37005341  0.87021908  1
  O  O272  1  0.10853520  0.88566226  0.37106843  1
  O  O273  1  0.11863376  0.86855252  0.88094163  1
  O  O274  1  0.61759992  0.36971173  0.37095903  1
  O  O275  1  0.61595094  0.37112717  0.87114619  1
  O  O276  1  0.62460125  0.86227560  0.36711406  1
  O  O277  1  0.61610267  0.87111490  0.86318546  1
  O  O278  1  0.38530609  0.11442716  0.13535166  1
  O  O279  1  0.37470558  0.13636341  0.63732854  1
  O  O280  1  0.37849927  0.63275166  0.13047083  1
  O  O281  1  0.36773196  0.62678712  0.63684012  1
  O  O282  1  0.88006097  0.13379490  0.12535864  1
  O  O283  1  0.87259248  0.13646365  0.63085164  1
  O  O284  1  0.87720654  0.63843060  0.11355797  1
  O  O285  1  0.86356104  0.63931428  0.62679411  1
  O  O286  1  0.24895445  0.24060808  0.11122262  1
  O  O287  1  0.26415554  0.25613469  0.63443962  1
  O  O288  1  0.26398719  0.75121144  0.11354893  1
  O  O289  1  0.23038130  0.73719882  0.61221388  1
  O  O290  1  0.75577649  0.24066809  0.11857120  1
  O  O291  1  0.76403421  0.25796495  0.62387741  1
  O  O292  1  0.76634910  0.74927796  0.13221477  1
  O  O293  1  0.74396173  0.76499920  0.60763103  1
  O  O294  1  0.24818260  0.23422269  0.37423533  1
  O  O295  1  0.24363694  0.23721641  0.88127516  1
  O  O296  1  0.25277270  0.73587306  0.37721255  1
  O  O297  1  0.24142103  0.75914369  0.88545584  1
  O  O298  1  0.74335302  0.24823981  0.38244857  1
  O  O299  1  0.73667549  0.25070241  0.86724823  1
  O  O300  1  0.73936092  0.75168110  0.37961341  1
  O  O301  1  0.75213640  0.77233350  0.87511479  1
  O  O302  1  0.00546134  0.11634026  0.00733985  1
  O  O303  1  0.00881118  0.11422613  0.50470581  1
  O  O304  1  0.00924040  0.60949833  -0.00585480  1
  O  O305  1  0.00747912  0.62377329  0.47764041  1
  O  O306  1  0.50585151  0.11544529  0.00290493  1
  O  O307  1  0.48326910  0.10457611  0.50801821  1
  O  O308  1  0.49848026  0.62483579  0.01229889  1
  O  O309  1  0.51489030  0.62234306  0.49164740  1
  O  O310  1  0.49007209  0.38256913  0.48966484  1
  O  O311  1  0.49328065  0.36143189  0.97843616  1
  O  O312  1  0.50051326  0.89644832  0.49498217  1
  O  O313  1  0.49881486  0.87712238  0.98527426  1
  O  O314  1  0.99396997  0.36732085  0.49608128  1
  O  O315  1  0.99908605  0.38441936  0.98966893  1
  O  O316  1  0.99910370  0.88538175  0.48659132  1
  O  O317  1  1.00243304  0.88816920  0.99590672  1
  O  O318  1  0.48523660  0.49652845  0.37432549  1
  O  O319  1  0.50004172  0.48516259  0.87897551  1
  O  O320  1  0.48450840  1.00513523  0.38388049  1
  O  O321  1  0.50572488  0.99411705  0.88442828  1
  O  O322  1  1.00711072  0.48551839  0.38889073  1
  O  O323  1  0.99338267  0.49335618  0.87923032  1
  O  O324  1  0.99211689  0.99483674  0.38069045  1
  O  O325  1  0.99698151  0.99682949  0.88619337  1
  O  O326  1  0.00559331  0.00828329  0.11830095  1
  O  O327  1  -0.01231894  -0.01498875  0.60934014  1
  O  O328  1  0.01564012  0.50166428  0.11690390  1
  O  O329  1  0.01164433  0.48771875  0.60742441  1
  O  O330  1  0.50901943  0.00596740  0.11329785  1
  O  O331  1  0.50104621  -0.00272656  0.61326873  1
  O  O332  1  0.48901579  0.51755400  0.13162156  1
  O  O333  1  0.51892287  0.48990362  0.62894734  1
  O  O334  1  0.26147284  0.38704313  0.25057350  1
  O  O335  1  0.23195729  0.36819797  0.75536665  1
  O  O336  1  0.24990485  0.88672887  0.24447732  1
  O  O337  1  0.23981797  0.89724335  0.76373418  1
  O  O338  1  0.73214078  0.37998496  0.25334460  1
  O  O339  1  0.74178746  0.38034960  0.74557275  1
  O  O340  1  0.75045767  0.88979997  0.25332493  1
  O  O341  1  0.73746533  0.87850015  0.73897608  1
  O  O342  1  0.25822565  0.11616809  0.25622179  1
  O  O343  1  0.25409268  0.11562126  0.75621486  1
  O  O344  1  0.26132573  0.61724070  0.25392395  1
  O  O345  1  0.25068686  0.62448579  0.74415272  1
  O  O346  1  0.75926955  0.11586176  0.25111463  1
  O  O347  1  0.74996707  0.10909259  0.75113427  1
  O  O348  1  0.75087928  0.63021351  0.26887511  1
  O  O349  1  0.74299560  0.60951381  0.76016668  1
  O  O350  1  0.36610352  0.11420169  0.36896637  1
  O  O351  1  0.36838542  0.13107020  0.86170413  1
  O  O352  1  0.36863246  0.61891460  0.36871135  1
  O  O353  1  0.36762204  0.60560406  0.87041655  1
  O  O354  1  0.87628693  0.11870808  0.36398576  1
  O  O355  1  0.87401064  0.10832687  0.88437861  1
  O  O356  1  0.85102118  0.62535289  0.40179166  1
  O  O357  1  0.87630231  0.61059501  0.88619792  1
  O  O358  1  0.12590239  0.38803824  0.11759584  1
  O  O359  1  0.12547990  0.37591973  0.63240178  1
  O  O360  1  0.12614867  0.89001070  0.12493533  1
  O  O361  1  0.12046679  0.87323256  0.64418064  1
  O  O362  1  0.61296313  0.37007318  0.14582475  1
  O  O363  1  0.63429356  0.37500117  0.63722948  1
  O  O364  1  0.61732167  0.88732984  0.12091701  1
  O  O365  1  0.62977227  0.87630803  0.63858947  1
  O  O366  1  0.12358719  0.24199049  0.26413036  1
  O  O367  1  0.11414238  0.25749733  0.75587895  1
  O  O368  1  0.12433073  0.74874606  0.23996850  1
  O  O369  1  0.13937668  0.77425701  0.76561009  1
  O  O370  1  0.62452195  0.25685075  0.26485132  1
  O  O371  1  0.61858974  0.26037062  0.76042862  1
  O  O372  1  0.61400673  0.74992944  0.25417109  1
  O  O373  1  0.62434566  0.75615112  0.74358969  1
  O  O374  1  0.38053922  0.23282913  0.25958955  1
  O  O375  1  0.38121013  0.24287485  0.74736955  1
  O  O376  1  0.37693868  0.74371750  0.24124171  1
  O  O377  1  0.37291833  0.72152435  0.76768802  1
  O  O378  1  0.86637076  0.23994678  0.23130771  1
  O  O379  1  0.88164010  0.25349666  0.74115766  1
  O  O380  1  0.88491631  0.75555212  0.23580410  1
  O  O381  1  0.90642187  0.79214201  0.73446726  1
  O  O382  1  0.37374893  0.49615859  0.49345563  1
  O  O383  1  0.36074468  0.49361693  0.98125173  1
  O  O384  1  0.36359528  0.99422536  0.48599103  1
  O  O385  1  0.38639326  0.98663947  1.00474014  1
  O  O386  1  0.89291441  0.49300802  0.50356288  1
  O  O387  1  0.88243810  0.48679516  0.99710362  1
  O  O388  1  0.88569814  1.01212339  0.48803859  1
  O  O389  1  0.88408290  0.99156304  0.99833209  1
  O  O390  1  0.11953742  0.00584392  0.00910936  1
  O  O391  1  0.10925844  0.00965729  0.49848173  1
  O  O392  1  0.12235397  0.50423727  0.00643357  1
  O  O393  1  0.11182645  0.50002281  0.50335250  1
  O  O394  1  0.61850244  0.00468531  0.00188087  1
  O  O395  1  0.61583592  0.00920384  0.49029169  1
  O  O396  1  0.62355429  0.51843808  0.00974501  1
  O  O397  1  0.62688407  0.50900967  0.51104447  1
  O  O398  1  0.41519399  0.35945507  0.12270938  1
  O  O399  1  0.37194546  0.37375382  0.61940748  1
  O  O400  1  0.38018933  0.86427925  0.10978728  1
  O  O401  1  0.36257399  0.85038952  0.67143807  1
  O  O402  1  0.87202726  0.35722792  0.11086171  1
  O  O403  1  0.86381851  0.37263905  0.63383512  1
  O  O404  1  0.87604846  0.87147333  0.11199398  1
  O  O405  1  0.86421522  0.87725796  0.60122909  1
  O  O406  1  0.13166762  0.13060856  0.38058963  1
  O  O407  1  0.13312847  0.12888926  0.88207154  1
  O  O408  1  0.13718679  0.60748509  0.38351404  1
  O  O409  1  0.11967746  0.63882794  0.88749948  1
  O  O410  1  0.62399537  0.13820574  0.36888334  1
  O  O411  1  0.62658176  0.13397753  0.88033545  1
  O  O412  1  0.63361629  0.63556603  0.38172926  1
  O  O413  1  0.62204375  0.62178246  0.88510421  1
