# generated using pymatgen
data_V79Zn79O256
_symmetry_space_group_name_H-M   'P 1'
_cell_length_a   16.96294888
_cell_length_b   16.93149533
_cell_length_c   16.95422799
_cell_angle_alpha   89.90002576
_cell_angle_beta   89.88955069
_cell_angle_gamma   89.69772422
_symmetry_Int_Tables_number   1
_chemical_formula_structural   V79Zn79O256
_chemical_formula_sum   'V79 Zn79 O256'
_cell_volume   4869.30729561
_cell_formula_units_Z   1
loop_
 _symmetry_equiv_pos_site_id
 _symmetry_equiv_pos_as_xyz
  1  'x, y, z'
loop_
 _atom_site_type_symbol
 _atom_site_label
 _atom_site_symmetry_multiplicity
 _atom_site_fract_x
 _atom_site_fract_y
 _atom_site_fract_z
 _atom_site_occupancy
  V  V0  1  0.49881063  0.87478723  0.36919881  1
  V  V1  1  0.87267015  0.51315056  0.37874672  1
  V  V2  1  0.25689549  0.37378660  0.62021369  1
  V  V3  1  0.37152623  0.00162476  0.36609694  1
  V  V4  1  -0.01385155  0.24943578  0.24783536  1
  V  V5  1  -0.00108546  0.62332486  0.62251242  1
  V  V6  1  0.36895512  0.87671115  0.50215032  1
  V  V7  1  0.63116288  0.74774321  0.37488202  1
  V  V8  1  0.12021865  0.76041664  0.87969015  1
  V  V9  1  0.49402114  0.62136046  0.12532797  1
  V  V10  1  0.13983172  0.00422792  0.12697876  1
  V  V11  1  -0.00356393  0.37929184  0.38256218  1
  V  V12  1  -0.00089349  0.24458984  0.75082764  1
  V  V13  1  0.12674277  0.37494922  0.25024395  1
  V  V14  1  0.62213236  0.74803691  0.87028010  1
  V  V15  1  0.62780232  0.26397005  0.87158638  1
  V  V16  1  0.11385008  0.74964531  0.37557924  1
  V  V17  1  0.00075659  0.50039474  0.00462876  1
  V  V18  1  0.38195342  0.24701048  0.61783248  1
  V  V19  1  0.00726232  0.11612799  0.62863031  1
  V  V20  1  0.12568460  0.37572985  0.75160451  1
  V  V21  1  0.26236068  0.37267918  0.12858293  1
  V  V22  1  0.75271800  0.12159689  0.85712814  1
  V  V23  1  -0.00136842  -0.00781283  0.47882329  1
  V  V24  1  0.12877600  0.13101759  -0.00083281  1
  V  V25  1  0.87437957  0.62832718  0.75200322  1
  V  V26  1  0.62553728  0.49509412  0.62738946  1
  V  V27  1  0.75188062  0.37545411  0.63200207  1
  V  V28  1  0.37284096  0.48249141  0.38229146  1
  V  V29  1  0.49665429  0.74946057  0.74747159  1
  V  V30  1  0.50792508  0.11755718  0.12821420  1
  V  V31  1  0.63368093  0.62723401  0.49565864  1
  V  V32  1  0.37179125  0.12245956  0.77458929  1
  V  V33  1  -0.00259204  0.74090027  0.23298769  1
  V  V34  1  0.12204458  0.50200197  0.62289725  1
  V  V35  1  0.75006086  0.25180272  0.01576570  1
  V  V36  1  0.48984324  0.25784962  0.24860760  1
  V  V37  1  0.36712823  0.62517289  0.26459828  1
  V  V38  1  0.50393863  0.00147655  0.50253870  1
  V  V39  1  0.12585663  0.88459413  0.26064101  1
  V  V40  1  0.74835038  0.49867096  0.75069883  1
  V  V41  1  0.25168963  0.12091800  0.36881625  1
  V  V42  1  0.62474658  0.12191438  0.50264981  1
  V  V43  1  0.25486722  0.24878407  -0.00072728  1
  V  V44  1  0.12240871  0.50232450  0.12755800  1
  V  V45  1  0.50166033  0.26218289  0.76083942  1
  V  V46  1  0.62814668  0.49104652  0.12563060  1
  V  V47  1  0.74937616  -0.02940522  0.22621857  1
  V  V48  1  0.49267831  0.88681224  0.87571567  1
  V  V49  1  0.36702952  0.87718314  0.00228165  1
  V  V50  1  0.76743372  0.12721269  0.36959961  1
  V  V51  1  0.37133999  0.62152508  0.75414546  1
  V  V52  1  0.12964900  0.11982367  0.50542203  1
  V  V53  1  0.25015293  0.74625606  0.48935330  1
  V  V54  1  0.12641562  0.25049609  0.37838603  1
  V  V55  1  0.37984819  0.37571898  -0.01759122  1
  V  V56  1  0.75485400  0.51473663  0.24973296  1
  V  V57  1  0.49662011  0.62245759  0.62118649  1
  V  V58  1  0.75122795  0.25241882  0.50037000  1
  V  V59  1  0.86562082  0.75907888  0.61270125  1
  V  V60  1  0.62306454  0.62315760  -0.00294847  1
  V  V61  1  0.63254608  0.37270360  0.26075751  1
  V  V62  1  0.49655951  0.74952147  0.24998935  1
  V  V63  1  0.12710560  0.62303466  0.49555819  1
  V  V64  1  -0.01210107  0.12537846  0.13039231  1
  V  V65  1  0.74774302  0.63023974  0.87610347  1
  V  V66  1  0.00232704  0.36914486  0.87654994  1
  V  V67  1  0.87772730  0.24109997  0.62853124  1
  V  V68  1  0.87459137  0.49903052  0.87651858  1
  V  V69  1  0.49569508  0.49456310  -0.01216197  1
  V  V70  1  0.25045123  -0.00877194  0.75221606  1
  V  V71  1  0.24901345  0.62690493  0.87739456  1
  V  V72  1  0.87263453  0.36911805  0.01298651  1
  V  V73  1  0.62023336  0.88986130  0.73714503  1
  V  V74  1  0.49618637  0.48648726  0.49698544  1
  V  V75  1  0.12805243  0.62429350  0.00268684  1
  V  V76  1  0.36887157  0.75228365  0.62233207  1
  V  V77  1  0.25278802  0.50116723  0.75479087  1
  V  V78  1  -0.00044585  0.75908892  0.75615368  1
  Zn  Zn79  1  0.36776918  0.12636221  0.23664493  1
  Zn  Zn80  1  0.13340119  0.24248067  0.87123945  1
  Zn  Zn81  1  0.76719304  -0.00245881  0.71335889  1
  Zn  Zn82  1  0.61984342  0.25493288  0.38112700  1
  Zn  Zn83  1  0.26181026  0.25142202  0.49787959  1
  Zn  Zn84  1  0.50444316  0.11480929  0.63798488  1
  Zn  Zn85  1  -0.00092939  -0.00595624  -0.00569784  1
  Zn  Zn86  1  0.25061567  0.86815279  0.12791774  1
  Zn  Zn87  1  0.88235896  -0.00001309  0.87181933  1
  Zn  Zn88  1  0.12272185  0.89823755  0.70971996  1
  Zn  Zn89  1  0.24567921  0.50484036  0.25881112  1
  Zn  Zn90  1  0.34940664  0.73447769  0.10854202  1
  Zn  Zn91  1  0.87949605  0.38135315  0.50314372  1
  Zn  Zn92  1  0.63309936  0.11315496  0.00234373  1
  Zn  Zn93  1  0.50787563  -0.00189328  0.01052038  1
  Zn  Zn94  1  0.18715113  0.19243124  0.18522182  1
  Zn  Zn95  1  0.19314633  0.18479693  0.68983886  1
  Zn  Zn96  1  0.18416253  0.69129943  0.18980491  1
  Zn  Zn97  1  0.17066193  0.71688957  0.67476094  1
  Zn  Zn98  1  0.68772560  0.18229482  0.19214645  1
  Zn  Zn99  1  0.68530251  0.18536577  0.68422626  1
  Zn  Zn100  1  0.67728728  0.68643510  0.18657447  1
  Zn  Zn101  1  0.68603933  0.68881136  0.68683443  1
  Zn  Zn102  1  0.31133061  0.31080683  0.31380665  1
  Zn  Zn103  1  0.31325906  0.30947966  0.81047756  1
  Zn  Zn104  1  0.30904084  0.81356486  0.31019857  1
  Zn  Zn105  1  0.30897297  0.81071751  0.81692850  1
  Zn  Zn106  1  0.80896058  0.31990671  0.31459507  1
  Zn  Zn107  1  0.81709715  0.31069637  0.81684967  1
  Zn  Zn108  1  0.80850242  0.80317805  0.29705464  1
  Zn  Zn109  1  0.81990604  0.83704761  0.79259814  1
  Zn  Zn110  1  0.18942836  0.43839720  0.43855098  1
  Zn  Zn111  1  0.19075749  0.43544664  0.93930614  1
  Zn  Zn112  1  0.18752317  0.93800444  0.44185787  1
  Zn  Zn113  1  0.19104585  0.95208535  0.93216360  1
  Zn  Zn114  1  0.69175887  0.44266461  0.43898118  1
  Zn  Zn115  1  0.68845758  0.43640333  0.93964355  1
  Zn  Zn116  1  0.67394785  0.95557392  0.39563649  1
  Zn  Zn117  1  0.68194571  0.93989574  0.92678881  1
  Zn  Zn118  1  0.32424288  0.06500914  0.05543196  1
  Zn  Zn119  1  0.31380392  0.06331322  0.56537302  1
  Zn  Zn120  1  0.31026593  0.55323431  0.06467621  1
  Zn  Zn121  1  0.30949036  0.56163063  0.56137233  1
  Zn  Zn122  1  0.80780534  0.05392574  0.05943391  1
  Zn  Zn123  1  0.79681290  0.02871513  0.52492150  1
  Zn  Zn124  1  0.80833087  0.55827547  0.05984791  1
  Zn  Zn125  1  0.81448801  0.56676673  0.56264229  1
  Zn  Zn126  1  0.44229123  0.44096338  0.19392654  1
  Zn  Zn127  1  0.43726457  0.43600568  0.68737413  1
  Zn  Zn128  1  0.43485705  0.93768506  0.18262986  1
  Zn  Zn129  1  0.43104117  0.94067926  0.68917254  1
  Zn  Zn130  1  0.93727095  0.43822931  0.19299101  1
  Zn  Zn131  1  0.93585571  0.43636437  0.68988808  1
  Zn  Zn132  1  0.94064705  0.93754095  0.19372896  1
  Zn  Zn133  1  0.93343028  0.93567744  0.68523093  1
  Zn  Zn134  1  0.06321578  0.06758770  0.31069155  1
  Zn  Zn135  1  0.06462584  0.05392370  0.81664170  1
  Zn  Zn136  1  0.05650148  0.56388012  0.31388537  1
  Zn  Zn137  1  0.06237904  0.56478118  0.81321217  1
  Zn  Zn138  1  0.57591049  0.07156998  0.30680263  1
  Zn  Zn139  1  0.56494617  0.07321567  0.81707516  1
  Zn  Zn140  1  0.55792781  0.55864882  0.31436140  1
  Zn  Zn141  1  0.56022206  0.56011627  0.80827155  1
  Zn  Zn142  1  0.44255988  0.18672197  0.43020463  1
  Zn  Zn143  1  0.44382818  0.19235519  0.94870096  1
  Zn  Zn144  1  0.44093443  0.68521754  0.43889246  1
  Zn  Zn145  1  0.43661957  0.68991762  0.93701480  1
  Zn  Zn146  1  0.94230423  0.18894204  0.44645569  1
  Zn  Zn147  1  0.91489729  0.15657157  0.95944315  1
  Zn  Zn148  1  0.93933802  0.68831797  0.43706998  1
  Zn  Zn149  1  0.94022111  0.68622314  0.94045026  1
  Zn  Zn150  1  0.06367249  0.31102555  0.06434475  1
  Zn  Zn151  1  0.06628756  0.31215188  0.56553017  1
  Zn  Zn152  1  0.07080344  0.81272948  0.06734845  1
  Zn  Zn153  1  0.05463071  0.81113083  0.56245921  1
  Zn  Zn154  1  0.56101156  0.30783241  0.06572607  1
  Zn  Zn155  1  0.56544245  0.30871959  0.56854760  1
  Zn  Zn156  1  0.55204829  0.80283493  0.05537901  1
  Zn  Zn157  1  0.55813269  0.81236576  0.55603995  1
  O  O158  1  0.12468993  0.11683276  0.12364228  1
  O  O159  1  0.11998427  0.13730530  0.61402548  1
  O  O160  1  0.13342806  0.61051657  0.11642091  1
  O  O161  1  0.11855715  0.62102067  0.62076422  1
  O  O162  1  0.61402868  0.12994585  0.12417107  1
  O  O163  1  0.61598763  0.13474739  0.60843592  1
  O  O164  1  0.61477218  0.61496282  0.11548051  1
  O  O165  1  0.61546148  0.61978529  0.61476538  1
  O  O166  1  0.37706710  0.38369534  0.37450417  1
  O  O167  1  0.37482506  0.37826058  0.88405599  1
  O  O168  1  0.37903161  0.88047843  0.38076436  1
  O  O169  1  0.38744735  0.86662248  0.88347008  1
  O  O170  1  0.88293955  0.38285032  0.37803831  1
  O  O171  1  0.88476583  0.38010590  0.88364297  1
  O  O172  1  0.84179733  0.86194007  0.40710518  1
  O  O173  1  0.83766812  0.86376225  0.91565746  1
  O  O174  1  0.25823613  0.01014367  0.38132390  1
  O  O175  1  0.25153578  0.00740824  0.85618761  1
  O  O176  1  0.26578205  0.49638187  0.37579333  1
  O  O177  1  0.24395933  0.50757706  0.86203079  1
  O  O178  1  0.76299209  0.02759250  0.40696602  1
  O  O179  1  0.75238380  0.01998737  0.88008474  1
  O  O180  1  0.76035072  0.49905987  0.36174566  1
  O  O181  1  0.75349195  0.50690065  0.87026726  1
  O  O182  1  0.23830313  0.48958500  0.13161037  1
  O  O183  1  0.24381202  0.49414662  0.63401770  1
  O  O184  1  0.24073195  1.00417320  0.12272936  1
  O  O185  1  0.26107268  1.01192872  0.64872977  1
  O  O186  1  0.74068601  0.50510959  0.13647454  1
  O  O187  1  0.74455322  0.49475633  0.62856086  1
  O  O188  1  0.74001145  1.00077646  0.12922377  1
  O  O189  1  0.73479620  1.00812387  0.61038725  1
  O  O190  1  0.00877524  0.36626093  0.25762844  1
  O  O191  1  0.00625406  0.36988313  0.75753981  1
  O  O192  1  0.02256521  0.86600954  0.24057787  1
  O  O193  1  0.00876303  0.86075245  0.74178146  1
  O  O194  1  0.51176898  0.36481159  0.24597217  1
  O  O195  1  0.49404769  0.36182530  0.75385586  1
  O  O196  1  0.48954842  0.86253747  0.25856367  1
  O  O197  1  0.49762352  0.86955455  0.76051123  1
  O  O198  1  0.50309140  0.13479077  0.24321768  1
  O  O199  1  0.48905239  0.13545599  0.75237042  1
  O  O200  1  0.48765752  0.62739510  0.24424269  1
  O  O201  1  0.49069663  0.62613322  0.74003647  1
  O  O202  1  1.00419987  0.14101515  0.24422157  1
  O  O203  1  1.01391104  0.13928093  0.74478909  1
  O  O204  1  1.00443926  0.64120087  0.25227858  1
  O  O205  1  0.99409133  0.63233406  0.74493435  1
  O  O206  1  0.37038458  0.26751921  -0.00021589  1
  O  O207  1  0.38358028  0.24776242  0.51440990  1
  O  O208  1  0.38546920  0.76600089  0.00334037  1
  O  O209  1  0.36981503  0.75515996  0.50182302  1
  O  O210  1  0.85960384  0.25579850  -0.00351913  1
  O  O211  1  0.86886730  0.25614824  0.51217935  1
  O  O212  1  0.86856259  0.71489540  0.03301288  1
  O  O213  1  0.87550457  0.73826939  0.51446071  1
  O  O214  1  0.12341515  0.24250116  0.48819853  1
  O  O215  1  0.13589201  0.24714062  1.00056807  1
  O  O216  1  0.13199515  0.74235748  0.49163678  1
  O  O217  1  0.11343651  0.73565900  0.98915396  1
  O  O218  1  0.63284358  0.24682537  0.49999479  1
  O  O219  1  0.63639613  0.25784704  0.98794727  1
  O  O220  1  0.61656699  0.73636082  0.49003837  1
  O  O221  1  0.61116095  0.73097835  0.98322320  1
  O  O222  1  0.50584289  0.24198919  0.14199148  1
  O  O223  1  0.49076565  0.25368025  0.63885151  1
  O  O224  1  0.50355464  0.73479641  0.13524468  1
  O  O225  1  0.48918849  0.73815095  0.62516252  1
  O  O226  1  1.00792123  0.24569087  0.14269865  1
  O  O227  1  0.99648054  0.24732297  0.63248353  1
  O  O228  1  1.01253286  0.74252876  0.13354205  1
  O  O229  1  0.98780959  0.73771766  0.63450925  1
  O  O230  1  0.00789623  0.25615186  0.36586981  1
  O  O231  1  0.00197888  0.26196316  0.86738788  1
  O  O232  1  0.01208289  0.75394912  0.37661872  1
  O  O233  1  0.00711267  0.74809817  0.87141140  1
  O  O234  1  0.50612855  0.24427730  0.35509521  1
  O  O235  1  0.51372175  0.24889920  0.86942704  1
  O  O236  1  0.49930423  0.75675239  0.36837483  1
  O  O237  1  0.50654106  0.75062498  0.86503603  1
  O  O238  1  0.24449586  0.12944247  0.49225996  1
  O  O239  1  0.24400434  0.13804102  1.01075913  1
  O  O240  1  0.23849494  0.63351417  0.50411918  1
  O  O241  1  0.24140753  0.61205056  0.98906000  1
  O  O242  1  0.74510488  0.14453709  0.50027557  1
  O  O243  1  0.74978158  0.14444075  0.99245523  1
  O  O244  1  0.73185655  0.62143403  0.50232965  1
  O  O245  1  0.73301589  0.61387835  0.98787764  1
  O  O246  1  0.26400818  0.37476527  0.00819642  1
  O  O247  1  0.24365238  0.37028267  0.51599984  1
  O  O248  1  0.26598060  0.88444711  -0.00504249  1
  O  O249  1  0.26211118  0.86557032  0.49551276  1
  O  O250  1  0.75947937  0.36374186  -0.00501246  1
  O  O251  1  0.74934779  0.36780475  0.51113230  1
  O  O252  1  0.77546854  0.86607378  -0.03795183  1
  O  O253  1  0.78583186  0.87433854  0.45479739  1
  O  O254  1  0.12295113  0.49144593  0.24652412  1
  O  O255  1  0.13346376  0.49768187  0.74167229  1
  O  O256  1  0.12398361  0.99254410  0.24193008  1
  O  O257  1  0.14011216  1.00096556  0.74849267  1
  O  O258  1  0.63081843  0.49502305  0.24616358  1
  O  O259  1  0.63068276  0.50870656  0.73431907  1
  O  O260  1  0.65880393  0.99524802  0.28426008  1
  O  O261  1  0.60929259  0.98998288  0.74800636  1
  O  O262  1  0.37763916  0.00085671  0.26342619  1
  O  O263  1  0.37415830  0.01722776  0.75436144  1
  O  O264  1  0.37829886  0.51007798  0.26552308  1
  O  O265  1  0.36586559  0.51090094  0.74198585  1
  O  O266  1  0.85001173  -0.01887452  0.24761715  1
  O  O267  1  0.85755595  -0.04778704  0.76896077  1
  O  O268  1  0.86054774  0.49883093  0.25368485  1
  O  O269  1  0.86956615  0.50675550  0.75755808  1
  O  O270  1  0.11993499  0.37158095  0.36953881  1
  O  O271  1  0.11624304  0.37719819  0.87057075  1
  O  O272  1  0.12934414  0.87048684  0.36509346  1
  O  O273  1  0.12965628  0.85862913  0.88767871  1
  O  O274  1  0.62594418  0.38089604  0.36392012  1
  O  O275  1  0.63067529  0.36394193  0.87076442  1
  O  O276  1  0.61044960  0.85711333  0.38403413  1
  O  O277  1  0.60960772  0.86487885  0.86454507  1
  O  O278  1  0.39451144  0.12188667  0.12567989  1
  O  O279  1  0.38030351  0.14116852  0.63130575  1
  O  O280  1  0.38193571  0.62007520  0.13159437  1
  O  O281  1  0.38125855  0.62883169  0.63076495  1
  O  O282  1  0.89037272  0.12555258  0.12537584  1
  O  O283  1  0.89100843  0.13997644  0.62471729  1
  O  O284  1  0.86333580  0.66191906  0.09003462  1
  O  O285  1  0.88349928  0.62470750  0.63319127  1
  O  O286  1  0.24500115  0.26373494  0.11504609  1
  O  O287  1  0.26538074  0.25601483  0.62592910  1
  O  O288  1  0.23958819  0.75407345  0.11713013  1
  O  O289  1  0.26686522  0.73877403  0.61199845  1
  O  O290  1  0.74291038  0.24898917  0.11352021  1
  O  O291  1  0.75766784  0.25779737  0.62425741  1
  O  O292  1  0.70878949  0.77320734  0.11051023  1
  O  O293  1  0.76715073  0.74273398  0.63277906  1
  O  O294  1  0.24274981  0.24481689  0.38008438  1
  O  O295  1  0.24801450  0.26075705  0.89261713  1
  O  O296  1  0.24110817  0.75085936  0.38465946  1
  O  O297  1  0.23418155  0.73686736  0.87047148  1
  O  O298  1  0.74887939  0.24899748  0.38609266  1
  O  O299  1  0.73687217  0.24411211  0.86534149  1
  O  O300  1  0.72884947  0.74835280  0.36443913  1
  O  O301  1  0.73514561  0.73560825  0.86520428  1
  O  O302  1  0.01387492  0.14177675  0.02335310  1
  O  O303  1  0.01203953  0.11852629  0.50864089  1
  O  O304  1  0.01109204  0.60701591  -0.00627790  1
  O  O305  1  0.01231170  0.62975065  0.51401198  1
  O  O306  1  0.50651409  0.12670660  0.01651102  1
  O  O307  1  0.50816698  0.11618649  0.49477552  1
  O  O308  1  0.50198656  0.61479616  0.00633308  1
  O  O309  1  0.50222336  0.61544266  0.51039450  1
  O  O310  1  0.50623262  0.38790028  0.50785201  1
  O  O311  1  0.48630251  0.37891850  1.00650508  1
  O  O312  1  0.48851688  0.87944643  0.48852807  1
  O  O313  1  0.49866556  0.87446960  0.98573167  1
  O  O314  1  1.00282614  0.37071913  0.48656225  1
  O  O315  1  0.99623363  0.37956939  0.99406171  1
  O  O316  1  1.01601964  0.89384006  0.49940188  1
  O  O317  1  0.97334171  0.88021014  1.03377486  1
  O  O318  1  0.48505832  0.50435203  0.38497045  1
  O  O319  1  0.50489686  0.50256145  0.88863067  1
  O  O320  1  0.49208489  0.99042820  0.37914293  1
  O  O321  1  0.49943843  0.98620581  0.87213640  1
  O  O322  1  0.98339222  0.49022543  0.36380275  1
  O  O323  1  0.99598941  0.49033710  0.88239523  1
  O  O324  1  1.00251050  1.00221339  0.37852848  1
  O  O325  1  0.99777378  0.99126082  0.87895243  1
  O  O326  1  0.00967197  0.01873939  0.13172335  1
  O  O327  1  0.00133283  0.01523877  0.63752246  1
  O  O328  1  0.01101741  0.49094797  0.11704815  1
  O  O329  1  0.01186310  0.50891209  0.63514194  1
  O  O330  1  0.50776482  0.01167374  0.13476395  1
  O  O331  1  0.48835407  0.00116396  0.60681873  1
  O  O332  1  0.50734667  0.50793231  0.12102181  1
  O  O333  1  0.50577663  0.50473916  0.62047578  1
  O  O334  1  0.23957370  0.37473727  0.24627589  1
  O  O335  1  0.24642268  0.38221810  0.74333213  1
  O  O336  1  0.23176695  0.86944378  0.24601498  1
  O  O337  1  0.25703967  0.88713584  0.75081592  1
  O  O338  1  0.73632139  0.38585029  0.24946993  1
  O  O339  1  0.75736835  0.38196822  0.73945006  1
  O  O340  1  0.74141384  0.86934836  0.23555693  1
  O  O341  1  0.72086706  0.87791633  0.75196665  1
  O  O342  1  0.25093843  0.13467175  0.26410564  1
  O  O343  1  0.26929732  0.13436247  0.75768608  1
  O  O344  1  0.26481645  0.62323559  0.24627508  1
  O  O345  1  0.25571720  0.61834901  0.75625111  1
  O  O346  1  0.75045705  0.12768642  0.26925106  1
  O  O347  1  0.74084752  0.11373200  0.75359010  1
  O  O348  1  0.74412884  0.61484071  0.24679105  1
  O  O349  1  0.75362586  0.61774282  0.75817232  1
  O  O350  1  0.36656612  0.11772584  0.37456570  1
  O  O351  1  0.38217218  0.13124458  0.87313068  1
  O  O352  1  0.37431199  0.62435873  0.36609246  1
  O  O353  1  0.36549413  0.63351435  0.86272639  1
  O  O354  1  0.86624986  0.14231488  0.37805633  1
  O  O355  1  0.85413648  0.13950603  0.86182236  1
  O  O356  1  0.88153743  0.61196268  0.37492072  1
  O  O357  1  0.86580352  0.62072031  0.87377782  1
  O  O358  1  0.13099397  0.38180684  0.13486125  1
  O  O359  1  0.13214396  0.38294920  0.63162499  1
  O  O360  1  0.12853119  0.89435234  0.12568978  1
  O  O361  1  0.13839046  0.82203687  0.63419443  1
  O  O362  1  0.61954084  0.38765439  0.13315232  1
  O  O363  1  0.63631450  0.38691682  0.62164106  1
  O  O364  1  0.65951314  0.83282548  0.10361066  1
  O  O365  1  0.60553186  0.86819820  0.63979209  1
  O  O366  1  0.12204007  0.25952930  0.26194748  1
  O  O367  1  0.11960755  0.25814757  0.75181027  1
  O  O368  1  0.11795271  0.75631972  0.26032254  1
  O  O369  1  0.11318561  0.73899675  0.77233986  1
  O  O370  1  0.62745659  0.26670865  0.25248084  1
  O  O371  1  0.61073583  0.24685622  0.75678418  1
  O  O372  1  0.60683385  0.73524638  0.26599987  1
  O  O373  1  0.61398910  0.74986509  0.75501715  1
  O  O374  1  0.38683758  0.25024084  0.25184908  1
  O  O375  1  0.38676408  0.24268319  0.75003651  1
  O  O376  1  0.38029224  0.73708703  0.24977725  1
  O  O377  1  0.37609828  0.74148063  0.74074186  1
  O  O378  1  0.88846402  0.26148399  0.25125996  1
  O  O379  1  0.88991446  0.25952781  0.74097016  1
  O  O380  1  0.89958720  0.76457549  0.25049142  1
  O  O381  1  0.88284322  0.74797678  0.74971982  1
  O  O382  1  0.37998963  0.50284064  0.49022320  1
  O  O383  1  0.38235553  0.48559179  1.00412376  1
  O  O384  1  0.37987762  0.99296261  0.49029447  1
  O  O385  1  0.38956841  0.98251144  1.00510112  1
  O  O386  1  0.86506721  0.49921774  0.48362814  1
  O  O387  1  0.88225234  0.49271840  0.99729281  1
  O  O388  1  0.90315877  1.00621894  0.50405269  1
  O  O389  1  0.88963994  1.03902960  0.98444073  1
  O  O390  1  0.12209715  0.00991045  0.01321657  1
  O  O391  1  0.11929051  0.01402641  0.49595079  1
  O  O392  1  0.11955240  0.50135661  0.00833653  1
  O  O393  1  0.13312564  0.50833241  0.51383177  1
  O  O394  1  0.62009410  -0.00058206  -0.00399656  1
  O  O395  1  0.61170191  0.00633148  0.48660390  1
  O  O396  1  0.61642092  0.50250692  0.00657551  1
  O  O397  1  0.61764878  0.51043819  0.50590182  1
  O  O398  1  0.36313389  0.38390028  0.13280860  1
  O  O399  1  0.36656432  0.36255649  0.63308455  1
  O  O400  1  0.37211207  0.87007880  0.11432755  1
  O  O401  1  0.38455658  0.86301411  0.61299805  1
  O  O402  1  0.88250759  0.37780998  0.11173327  1
  O  O403  1  0.86777048  0.37146671  0.62211229  1
  O  O404  1  0.91435436  0.88031563  0.08788916  1
  O  O405  1  0.87934525  0.85858006  0.61931088  1
  O  O406  1  0.13263896  0.13293009  0.38122134  1
  O  O407  1  0.11758676  0.12618700  0.89593423  1
  O  O408  1  0.11823472  0.63016019  0.38765480  1
  O  O409  1  0.13159974  0.62515988  0.88573850  1
  O  O410  1  0.63785664  0.13289411  0.38927477  1
  O  O411  1  0.63637112  0.13840138  0.87959738  1
  O  O412  1  0.61435665  0.63106310  0.38852303  1
  O  O413  1  0.62804196  0.62675526  0.87694215  1
