# generated using pymatgen
data_V79Zn79O256
_symmetry_space_group_name_H-M   'P 1'
_cell_length_a   16.94575227
_cell_length_b   16.95016861
_cell_length_c   16.98364090
_cell_angle_alpha   90.01416359
_cell_angle_beta   90.09332762
_cell_angle_gamma   90.23220786
_symmetry_Int_Tables_number   1
_chemical_formula_structural   V79Zn79O256
_chemical_formula_sum   'V79 Zn79 O256'
_cell_volume   4878.22151726
_cell_formula_units_Z   1
loop_
 _symmetry_equiv_pos_site_id
 _symmetry_equiv_pos_as_xyz
  1  'x, y, z'
loop_
 _atom_site_type_symbol
 _atom_site_label
 _atom_site_symmetry_multiplicity
 _atom_site_fract_x
 _atom_site_fract_y
 _atom_site_fract_z
 _atom_site_occupancy
  V  V0  1  -0.00142140  0.49770270  0.00376293  1
  V  V1  1  0.63375138  0.49646626  0.61797576  1
  V  V2  1  0.62535568  0.13304745  -0.02824123  1
  V  V3  1  0.25581919  0.87786399  0.62707771  1
  V  V4  1  0.25123807  0.75024598  0.50018608  1
  V  V5  1  0.75761040  0.37570207  0.11572688  1
  V  V6  1  0.37820182  0.62668347  0.23710868  1
  V  V7  1  0.12862472  0.87595542  0.75419647  1
  V  V8  1  0.37010990  0.12243539  0.23839126  1
  V  V9  1  0.75105012  0.74115289  0.47772986  1
  V  V10  1  -0.00389842  0.13623501  0.13005573  1
  V  V11  1  0.49946288  0.51421961  0.00844025  1
  V  V12  1  0.49940911  0.74717735  0.23699452  1
  V  V13  1  0.51176364  0.86901411  0.37646071  1
  V  V14  1  0.00165974  0.87540445  0.37096774  1
  V  V15  1  0.75412770  0.11418699  0.38378436  1
  V  V16  1  0.25170150  0.00141129  0.75255888  1
  V  V17  1  0.12319279  0.50376197  0.62502355  1
  V  V18  1  0.24909165  0.24460467  0.00610289  1
  V  V19  1  0.74348971  0.85494146  0.10269279  1
  V  V20  1  0.13730696  0.74347284  0.87472924  1
  V  V21  1  0.62304830  0.38368357  0.24132843  1
  V  V22  1  0.37602431  0.36514389  0.00618541  1
  V  V23  1  0.24204765  0.12883632  0.87625936  1
  V  V24  1  0.25574822  0.74426127  0.00281352  1
  V  V25  1  0.76553832  0.51179016  0.24973768  1
  V  V26  1  0.49511159  0.25152119  0.24280061  1
  V  V27  1  0.49726021  0.37963931  0.37643621  1
  V  V28  1  0.75023952  0.27552154  0.49836380  1
  V  V29  1  0.00518000  0.74487460  0.74106052  1
  V  V30  1  0.74657035  0.00404475  0.22682879  1
  V  V31  1  0.62961207  0.73699613  0.87557666  1
  V  V32  1  0.86964122  0.27752581  0.61897474  1
  V  V33  1  0.62248207  0.88058769  0.24234815  1
  V  V34  1  0.25175050  0.62456490  0.37502788  1
  V  V35  1  0.50104727  0.37106103  0.87830465  1
  V  V36  1  0.62641254  0.25719803  0.37341844  1
  V  V37  1  -0.01270324  0.12232881  0.62698663  1
  V  V38  1  0.36870537  0.13318702  0.74567770  1
  V  V39  1  0.37520297  0.37486496  0.50147504  1
  V  V40  1  0.50174429  0.87618702  0.86687985  1
  V  V41  1  0.49102367  0.13417521  0.62165810  1
  V  V42  1  0.52046068  0.12582831  0.12733021  1
  V  V43  1  0.50435155  0.74370959  0.74650355  1
  V  V44  1  -0.01321399  -0.01024282  0.00827712  1
  V  V45  1  0.24407585  0.36990845  0.12883886  1
  V  V46  1  0.25135638  0.24929895  0.50188555  1
  V  V47  1  -0.00978766  0.87229671  0.88255964  1
  V  V48  1  0.12559738  0.00110798  0.62782048  1
  V  V49  1  0.49563106  0.25330483  0.75164609  1
  V  V50  1  0.87548031  0.50355377  0.86835769  1
  V  V51  1  -0.00246965  0.24781808  0.74631008  1
  V  V52  1  0.11381898  0.25837842  0.36245389  1
  V  V53  1  0.25360230  0.37165720  0.62800886  1
  V  V54  1  0.25156201  0.11937616  0.37184294  1
  V  V55  1  0.37782781  0.74562675  0.62830928  1
  V  V56  1  0.37576533  0.87104920  0.00126846  1
  V  V57  1  0.63032952  0.37584850  0.75346568  1
  V  V58  1  0.12653615  -0.00748076  0.13084243  1
  V  V59  1  0.49564777  0.61508104  0.61785367  1
  V  V60  1  0.12893681  0.37258399  0.75285528  1
  V  V61  1  0.37722941  0.87760323  0.49746582  1
  V  V62  1  0.12367648  0.12566766  0.49891127  1
  V  V63  1  -0.00161725  -0.00164565  0.49824430  1
  V  V64  1  0.37543422  0.50006426  0.37784634  1
  V  V65  1  0.50266475  0.00173688  0.00581911  1
  V  V66  1  0.87421300  0.87624408  0.50148938  1
  V  V67  1  0.12336576  0.11947961  -0.00272597  1
  V  V68  1  0.86433517  0.74345420  0.62545432  1
  V  V69  1  0.13093755  0.61959667  0.00689251  1
  V  V70  1  0.24390458  0.49478557  0.24863171  1
  V  V71  1  0.00094534  0.36870278  0.87736838  1
  V  V72  1  0.12592136  0.75068733  0.36750377  1
  V  V73  1  -0.00390158  0.48231412  0.49631249  1
  V  V74  1  0.50453635  0.00653936  0.49699148  1
  V  V75  1  0.62245541  0.13610612  0.50524610  1
  V  V76  1  0.36630077  0.50778619  0.87191310  1
  V  V77  1  0.25662631  0.87456437  0.13239969  1
  V  V78  1  0.11772943  0.62552046  0.50320416  1
  Zn  Zn79  1  0.37213089  -0.00163466  0.36792992  1
  Zn  Zn80  1  0.87363421  0.62543604  0.74647272  1
  Zn  Zn81  1  0.73481157  0.51993270  0.76229792  1
  Zn  Zn82  1  0.62164382  0.63140928  0.48805327  1
  Zn  Zn83  1  0.88557313  0.49438766  0.37122337  1
  Zn  Zn84  1  0.11957449  0.49793518  0.13145868  1
  Zn  Zn85  1  0.62105786  0.51847328  0.12632102  1
  Zn  Zn86  1  0.88171629  0.12465125  0.25428818  1
  Zn  Zn87  1  0.68105476  0.66981945  0.03827943  1
  Zn  Zn88  1  0.13309855  0.87836759  0.25415406  1
  Zn  Zn89  1  0.37312644  0.00052378  0.87464216  1
  Zn  Zn90  1  0.77084170  0.12185259  0.85239721  1
  Zn  Zn91  1  0.25435460  0.52594066  0.75217403  1
  Zn  Zn92  1  0.68082018  -0.06929079  0.68100894  1
  Zn  Zn93  1  0.74934528  0.27079676  -0.01132319  1
  Zn  Zn94  1  0.18245258  0.18468037  0.18540312  1
  Zn  Zn95  1  0.18130826  0.18760766  0.68633323  1
  Zn  Zn96  1  0.19271654  0.68588192  0.18534984  1
  Zn  Zn97  1  0.19139790  0.68792978  0.68665916  1
  Zn  Zn98  1  0.71042251  0.19624922  0.19644765  1
  Zn  Zn99  1  0.68567274  0.20168477  0.68524770  1
  Zn  Zn100  1  0.68372424  0.68981478  0.20415914  1
  Zn  Zn101  1  0.68407663  0.68311563  0.68780344  1
  Zn  Zn102  1  0.30809931  0.30676228  0.31293688  1
  Zn  Zn103  1  0.31182828  0.31286404  0.82003137  1
  Zn  Zn104  1  0.31838918  0.80820287  0.31352014  1
  Zn  Zn105  1  0.31720981  0.80765765  0.81294027  1
  Zn  Zn106  1  0.80953883  0.30743716  0.29510648  1
  Zn  Zn107  1  0.81539084  0.31741194  0.80789397  1
  Zn  Zn108  1  0.81550343  0.81707575  0.30487985  1
  Zn  Zn109  1  0.81101453  0.81259033  0.80909496  1
  Zn  Zn110  1  0.18476497  0.43581483  0.43647834  1
  Zn  Zn111  1  0.18695062  0.43242314  0.93957055  1
  Zn  Zn112  1  0.18710227  0.93898256  0.44082449  1
  Zn  Zn113  1  0.18505863  0.93600857  0.93961128  1
  Zn  Zn114  1  0.67954901  0.46906599  0.41901647  1
  Zn  Zn115  1  0.70970071  0.49506682  0.96493949  1
  Zn  Zn116  1  0.71891839  0.96933757  0.50315203  1
  Zn  Zn117  1  0.67961197  0.94088416  0.92969485  1
  Zn  Zn118  1  0.31483154  0.05679664  0.06364607  1
  Zn  Zn119  1  0.31457447  0.06279977  0.56133147  1
  Zn  Zn120  1  0.31350831  0.55434108  0.05972372  1
  Zn  Zn121  1  0.30789962  0.55997444  0.56263554  1
  Zn  Zn122  1  0.81750799  0.09561193  0.04206950  1
  Zn  Zn123  1  0.79618186  0.06039480  0.67485529  1
  Zn  Zn124  1  0.82626286  0.56726771  0.07563925  1
  Zn  Zn125  1  0.81555857  0.56146936  0.56264307  1
  Zn  Zn126  1  0.43069378  0.43764661  0.18712944  1
  Zn  Zn127  1  0.43438189  0.43800897  0.69003798  1
  Zn  Zn128  1  0.43885086  0.94163125  0.18688887  1
  Zn  Zn129  1  0.48212563  0.92144818  0.66314588  1
  Zn  Zn130  1  0.93452909  0.42753276  0.18393320  1
  Zn  Zn131  1  0.94630182  0.44219006  0.68902763  1
  Zn  Zn132  1  0.91980746  0.91869584  0.18966428  1
  Zn  Zn133  1  0.93977952  0.92551549  0.68510204  1
  Zn  Zn134  1  0.06524083  0.06438809  0.31132923  1
  Zn  Zn135  1  -0.02584442  0.06874458  0.82584696  1
  Zn  Zn136  1  0.06190422  0.56105121  0.31944106  1
  Zn  Zn137  1  0.06973229  0.56049260  0.81251769  1
  Zn  Zn138  1  0.56403648  0.06314581  0.31507729  1
  Zn  Zn139  1  0.55761089  0.06036875  0.80521063  1
  Zn  Zn140  1  0.56477532  0.56924135  0.31206348  1
  Zn  Zn141  1  0.55022129  0.55934352  0.81150779  1
  Zn  Zn142  1  0.43365521  0.19252777  0.42941875  1
  Zn  Zn143  1  0.43448789  0.18532930  0.93660363  1
  Zn  Zn144  1  0.43761163  0.68729517  0.43656811  1
  Zn  Zn145  1  0.43697824  0.68896764  0.93544482  1
  Zn  Zn146  1  0.93332677  0.19197995  0.44286191  1
  Zn  Zn147  1  0.89971409  0.20570188  0.92352761  1
  Zn  Zn148  1  0.94100804  0.69166209  0.43778093  1
  Zn  Zn149  1  0.96713299  0.66643071  0.91277896  1
  Zn  Zn150  1  0.06674639  0.30869759  0.05973970  1
  Zn  Zn151  1  0.06658781  0.30883286  0.56287489  1
  Zn  Zn152  1  0.06732879  0.80774884  0.06285805  1
  Zn  Zn153  1  0.06746120  0.81340558  0.56238020  1
  Zn  Zn154  1  0.57087568  0.31067547  0.06029807  1
  Zn  Zn155  1  0.55886953  0.31767531  0.56627828  1
  Zn  Zn156  1  0.56403343  0.81168318  0.05782009  1
  Zn  Zn157  1  0.57448335  0.80779656  0.56040893  1
  O  O158  1  0.11714847  0.11200329  0.11916724  1
  O  O159  1  0.11499967  0.12028792  0.61760841  1
  O  O160  1  0.12962800  0.62103856  0.11255835  1
  O  O161  1  0.13602846  0.61456176  0.61396461  1
  O  O162  1  0.61983212  0.13088989  0.12885708  1
  O  O163  1  0.61076075  0.14401537  0.61016634  1
  O  O164  1  0.62328669  0.63068124  0.12825519  1
  O  O165  1  0.61400723  0.61203065  0.61954393  1
  O  O166  1  0.37753283  0.38019565  0.37991375  1
  O  O167  1  0.38119908  0.37796100  0.88747212  1
  O  O168  1  0.37890682  0.87736463  0.38604890  1
  O  O169  1  0.38248850  0.87462863  0.88610316  1
  O  O170  1  0.90256119  0.37035742  0.33176816  1
  O  O171  1  0.89611480  0.38619878  0.86655346  1
  O  O172  1  0.89558463  0.86677905  0.38987166  1
  O  O173  1  0.89243896  0.86045656  0.87808404  1
  O  O174  1  0.25002542  0.01431165  0.38001157  1
  O  O175  1  0.24962883  0.00749044  0.86848974  1
  O  O176  1  0.25598896  0.50261904  0.36736259  1
  O  O177  1  0.26330660  0.49061191  0.87782479  1
  O  O178  1  0.74740715  0.01627099  0.40096460  1
  O  O179  1  0.70765146  0.00366835  0.83860878  1
  O  O180  1  0.77235905  0.48106671  0.35357187  1
  O  O181  1  0.77307664  0.48430309  0.86892106  1
  O  O182  1  0.24850395  0.48941350  0.13353761  1
  O  O183  1  0.24252326  0.48885411  0.62801596  1
  O  O184  1  0.24189383  0.98338391  0.11777469  1
  O  O185  1  0.24668361  0.99675652  0.63109894  1
  O  O186  1  0.74781805  0.49307361  0.13595054  1
  O  O187  1  0.73582528  0.50490182  0.62857799  1
  O  O188  1  0.74243679  1.02418166  0.13113247  1
  O  O189  1  0.73231240  0.99951239  0.60756654  1
  O  O190  1  -0.03738619  0.36357545  0.27767952  1
  O  O191  1  0.01085520  0.36965488  0.75541641  1
  O  O192  1  0.00858130  0.88983205  0.27123133  1
  O  O193  1  0.00765515  0.86819439  0.76341294  1
  O  O194  1  0.50029830  0.36962097  0.25564509  1
  O  O195  1  0.49473681  0.36760564  0.75830918  1
  O  O196  1  0.49848578  0.87003157  0.25917250  1
  O  O197  1  0.48709481  0.86749937  0.76463609  1
  O  O198  1  0.49516235  0.13174337  0.24384013  1
  O  O199  1  0.48976222  0.13166687  0.74166793  1
  O  O200  1  0.49530536  0.63978314  0.25577017  1
  O  O201  1  0.49923648  0.63323578  0.73256013  1
  O  O202  1  0.99881034  0.11650668  0.23553701  1
  O  O203  1  1.00563355  0.13617825  0.74056742  1
  O  O204  1  0.96889241  0.62880062  0.29213555  1
  O  O205  1  0.99802020  0.64111200  0.76500438  1
  O  O206  1  0.36309926  0.25433750  -0.00282053  1
  O  O207  1  0.36194600  0.26200251  0.49089979  1
  O  O208  1  0.36903886  0.75993616  -0.00325186  1
  O  O209  1  0.37150645  0.75891135  0.50650556  1
  O  O210  1  0.84381471  0.20915186  0.02015727  1
  O  O211  1  0.86696333  0.25481042  0.51237269  1
  O  O212  1  0.93028910  0.70256999  0.08904784  1
  O  O213  1  0.86994383  0.75229123  0.50535209  1
  O  O214  1  0.13473926  0.24356069  0.49410891  1
  O  O215  1  0.13574233  0.23147943  1.00469167  1
  O  O216  1  0.13336595  0.74389962  0.49525432  1
  O  O217  1  0.13554182  0.74098350  0.99419064  1
  O  O218  1  0.62737825  0.25596014  0.49239360  1
  O  O219  1  0.63030122  0.23459349  0.99651047  1
  O  O220  1  0.64666265  0.74951580  0.49843329  1
  O  O221  1  0.61340201  0.74310657  0.98124351  1
  O  O222  1  0.50640018  0.24308454  0.13674829  1
  O  O223  1  0.49420886  0.24426479  0.63476166  1
  O  O224  1  0.49657519  0.75951401  0.13921758  1
  O  O225  1  0.49465699  0.74114171  0.62813695  1
  O  O226  1  1.00367246  0.23540774  0.11959048  1
  O  O227  1  0.98797468  0.24361226  0.62439276  1
  O  O228  1  0.99279900  0.73701552  0.12534661  1
  O  O229  1  1.00373565  0.75339622  0.63728961  1
  O  O230  1  0.01590224  0.23868574  0.38187796  1
  O  O231  1  -0.01085088  0.26204374  0.86449052  1
  O  O232  1  0.01530005  0.76602303  0.38420900  1
  O  O233  1  0.01472147  0.75995137  0.87140261  1
  O  O234  1  0.50679394  0.26103245  0.36588191  1
  O  O235  1  0.49197171  0.25778918  0.86306925  1
  O  O236  1  0.49595704  0.76613258  0.37390311  1
  O  O237  1  0.49927363  0.75528846  0.86395366  1
  O  O238  1  0.24711660  0.13176005  0.49409638  1
  O  O239  1  0.24608130  0.12556366  0.99651857  1
  O  O240  1  0.24374345  0.62964784  0.49342958  1
  O  O241  1  0.24794402  0.63468982  1.00564802  1
  O  O242  1  0.73429532  0.14700589  0.48798217  1
  O  O243  1  0.72543397  0.10371291  0.97132821  1
  O  O244  1  0.75741373  0.63987815  0.49695648  1
  O  O245  1  0.75280093  0.59667674  0.99744044  1
  O  O246  1  0.25437558  0.36269251  0.00600113  1
  O  O247  1  0.25487746  0.36859855  0.50714761  1
  O  O248  1  0.25863809  0.86733320  0.00641300  1
  O  O249  1  0.25991576  0.87321627  0.50667693  1
  O  O250  1  0.73780005  0.39042472  0.01311356  1
  O  O251  1  0.74282997  0.37269115  0.48609638  1
  O  O252  1  0.72660440  0.87412644  0.00517774  1
  O  O253  1  0.77010696  0.86289982  0.49318214  1
  O  O254  1  0.13880090  0.50946462  0.25065723  1
  O  O255  1  0.12856580  0.49098829  0.74162348  1
  O  O256  1  0.12600538  0.99892548  0.23528888  1
  O  O257  1  0.14010768  0.99357374  0.74447776  1
  O  O258  1  0.63040537  0.49252462  0.24971578  1
  O  O259  1  0.62014601  0.49091238  0.74468461  1
  O  O260  1  0.62704024  0.98785027  0.25408513  1
  O  O261  1  0.64772459  0.99370260  0.77827117  1
  O  O262  1  0.38125070  0.01795974  0.25146018  1
  O  O263  1  0.35885962  0.01398216  0.74958394  1
  O  O264  1  0.36594102  0.50701747  0.25893078  1
  O  O265  1  0.37076798  0.49227650  0.76718922  1
  O  O266  1  0.84929983  0.00466378  0.24676599  1
  O  O267  1  0.84304697  -0.03611000  0.73799810  1
  O  O268  1  0.86790682  0.50637526  0.23672438  1
  O  O269  1  0.88482435  0.50409422  0.76080697  1
  O  O270  1  0.12983596  0.35782570  0.37658328  1
  O  O271  1  0.11649987  0.37828398  0.86191108  1
  O  O272  1  0.12354593  0.86807467  0.37609176  1
  O  O273  1  0.12397895  0.86266900  0.87168613  1
  O  O274  1  0.61329248  0.37534879  0.36595500  1
  O  O275  1  0.60674895  0.38176701  0.85888909  1
  O  O276  1  0.61006253  0.87711827  0.36643694  1
  O  O277  1  0.60267002  0.86206080  0.87839732  1
  O  O278  1  0.37891404  0.12467132  0.13617053  1
  O  O279  1  0.37653477  0.12796340  0.63475669  1
  O  O280  1  0.37070756  0.61889506  0.13896917  1
  O  O281  1  0.38419712  0.63297522  0.61392999  1
  O  O282  1  0.89771973  0.11179111  0.12434478  1
  O  O283  1  0.88775688  0.11834416  0.62683179  1
  O  O284  1  0.90148600  0.64117157  0.13240983  1
  O  O285  1  0.88060085  0.64131437  0.62186138  1
  O  O286  1  0.24667605  0.25379154  0.11598961  1
  O  O287  1  0.24252384  0.25918375  0.61316544  1
  O  O288  1  0.24712586  0.76351883  0.11421458  1
  O  O289  1  0.25995260  0.75835354  0.61937673  1
  O  O290  1  0.72384247  0.27717644  0.11547016  1
  O  O291  1  0.76301636  0.26047772  0.61513005  1
  O  O292  1  0.74195581  0.75268792  0.11596693  1
  O  O293  1  0.76311592  0.75161565  0.62147301  1
  O  O294  1  0.24152423  0.23964760  0.38307580  1
  O  O295  1  0.24944598  0.23701689  0.88681760  1
  O  O296  1  0.24606757  0.74575638  0.38166027  1
  O  O297  1  0.24487107  0.75657389  0.88756184  1
  O  O298  1  0.73633038  0.25332546  0.37859497  1
  O  O299  1  0.78464809  0.24209449  0.88308090  1
  O  O300  1  0.76096016  0.75078590  0.37846074  1
  O  O301  1  0.72687608  0.76082602  0.86305533  1
  O  O302  1  0.01001690  0.10243583  0.01418379  1
  O  O303  1  0.00171665  0.11491306  0.50750216  1
  O  O304  1  0.01286627  0.60518370  -0.00209531  1
  O  O305  1  0.01572983  0.62283704  0.49649236  1
  O  O306  1  0.50709179  0.12369550  0.00707465  1
  O  O307  1  0.49984099  0.12816516  0.50175050  1
  O  O308  1  0.48912660  0.61270645  0.00200325  1
  O  O309  1  0.50423099  0.63346447  0.51323340  1
  O  O310  1  0.48709178  0.36736728  0.48758359  1
  O  O311  1  0.49153297  0.36780480  0.99346562  1
  O  O312  1  0.49759802  0.88299082  0.48964481  1
  O  O313  1  0.49260228  0.88191648  0.99472300  1
  O  O314  1  1.00184146  0.38334878  0.50512115  1
  O  O315  1  1.01422551  0.37941492  0.98272434  1
  O  O316  1  1.00180045  0.88190428  0.49503502  1
  O  O317  1  1.00599165  0.87619356  0.99111750  1
  O  O318  1  0.48517190  0.48852255  0.36484433  1
  O  O319  1  0.48690123  0.49030663  0.88521730  1
  O  O320  1  0.49509491  0.99171654  0.38162237  1
  O  O321  1  0.49520811  0.98713249  0.87698560  1
  O  O322  1  1.00389492  0.49334484  0.39163530  1
  O  O323  1  0.99934879  0.49010725  0.88120034  1
  O  O324  1  1.01192832  0.99060707  0.38987762  1
  O  O325  1  1.00593674  0.98036056  0.88966019  1
  O  O326  1  0.00677211  -0.02163433  0.11545462  1
  O  O327  1  0.00538522  0.00307068  0.62196513  1
  O  O328  1  0.00377192  0.47996212  0.10781227  1
  O  O329  1  0.01599998  0.49733150  0.61446503  1
  O  O330  1  0.49776153  0.01132377  0.11492694  1
  O  O331  1  0.49407527  0.02346177  0.61102957  1
  O  O332  1  0.49256488  0.49603711  0.11096536  1
  O  O333  1  0.49859704  0.51260711  0.62788136  1
  O  O334  1  0.26010610  0.38315436  0.24117590  1
  O  O335  1  0.24277476  0.36517460  0.74145937  1
  O  O336  1  0.25742745  0.86945833  0.23559864  1
  O  O337  1  0.25124207  0.88239583  0.74680040  1
  O  O338  1  0.73810824  0.38320700  0.23618127  1
  O  O339  1  0.73093511  0.37474435  0.75425289  1
  O  O340  1  0.73792921  0.88933715  0.23834932  1
  O  O341  1  0.78574406  0.89879590  0.73509524  1
  O  O342  1  0.26448123  0.13258760  0.25439246  1
  O  O343  1  0.24917120  0.12342961  0.75628678  1
  O  O344  1  0.25975403  0.61843535  0.25580142  1
  O  O345  1  0.24589038  0.63478162  0.76338751  1
  O  O346  1  0.72441400  0.10244565  0.27543357  1
  O  O347  1  0.75127769  0.13596093  0.74269196  1
  O  O348  1  0.74951791  0.61048979  0.25274181  1
  O  O349  1  0.75914438  0.62762974  0.74772460  1
  O  O350  1  0.36700336  0.12411711  0.36550927  1
  O  O351  1  0.36320429  0.12219343  0.86522075  1
  O  O352  1  0.37116487  0.61594971  0.37179799  1
  O  O353  1  0.37693299  0.60657731  0.88049359  1
  O  O354  1  0.85589286  0.13310229  0.37692516  1
  O  O355  1  0.88299542  0.10397390  0.87598134  1
  O  O356  1  0.91054265  0.62181662  0.34774825  1
  O  O357  1  0.87962247  0.60769865  0.87602538  1
  O  O358  1  0.13951044  0.37581756  0.12046564  1
  O  O359  1  0.13440102  0.38258225  0.63098267  1
  O  O360  1  0.13751296  0.87492366  0.12879372  1
  O  O361  1  0.13538051  0.88015784  0.63252710  1
  O  O362  1  0.61615006  0.38746832  0.13549749  1
  O  O363  1  0.60966577  0.38881744  0.64168572  1
  O  O364  1  0.63062231  0.87327471  0.13274514  1
  O  O365  1  0.58883482  0.88551500  0.63673513  1
  O  O366  1  0.12695559  0.24413658  0.26334705  1
  O  O367  1  0.10966598  0.26132006  0.73872532  1
  O  O368  1  0.13373233  0.74965590  0.26422559  1
  O  O369  1  0.12240188  0.75666136  0.75638097  1
  O  O370  1  0.61770996  0.26224737  0.25876758  1
  O  O371  1  0.60903444  0.26803961  0.74265549  1
  O  O372  1  0.60768534  0.76416809  0.25400197  1
  O  O373  1  0.61065841  0.75093212  0.75359580  1
  O  O374  1  0.38743666  0.23899611  0.25727660  1
  O  O375  1  0.37844095  0.24076995  0.75408103  1
  O  O376  1  0.38863803  0.74036417  0.25546866  1
  O  O377  1  0.38351932  0.75492917  0.73398183  1
  O  O378  1  0.81999236  0.21670660  0.23190626  1
  O  O379  1  0.88749195  0.26236600  0.72971642  1
  O  O380  1  0.89152772  0.81093138  0.22716323  1
  O  O381  1  0.88475451  0.75357517  0.73545533  1
  O  O382  1  0.36503531  0.48893426  0.48675621  1
  O  O383  1  0.38129725  0.48677298  0.99237626  1
  O  O384  1  0.38467485  0.99225921  0.49883252  1
  O  O385  1  0.38523434  0.99273498  0.99591574  1
  O  O386  1  0.89376325  0.50603127  0.49950632  1
  O  O387  1  0.89544110  0.49820387  0.99000001  1
  O  O388  1  0.88803323  0.98033106  0.50595913  1
  O  O389  1  0.88987821  0.99853923  1.00625909  1
  O  O390  1  0.12195862  0.00183723  0.01206513  1
  O  O391  1  0.11817004  0.00469706  0.50911424  1
  O  O392  1  0.12118975  0.50497705  -0.00021058  1
  O  O393  1  0.11924216  0.50533386  0.50495398  1
  O  O394  1  0.60580112  0.01382429  -0.01152869  1
  O  O395  1  0.60990833  0.02045924  0.49262378  1
  O  O396  1  0.60083113  0.49833937  -0.00001133  1
  O  O397  1  0.62237091  0.48319893  0.52054531  1
  O  O398  1  0.36289160  0.37652099  0.11285788  1
  O  O399  1  0.36506423  0.38309872  0.61383813  1
  O  O400  1  0.36520452  0.88296364  0.11527814  1
  O  O401  1  0.37991928  0.86818563  0.61303641  1
  O  O402  1  0.85718387  0.36987739  0.12215776  1
  O  O403  1  0.87814106  0.37558828  0.62138785  1
  O  O404  1  0.83848345  0.88684867  0.11222297  1
  O  O405  1  0.89044859  0.85535407  0.60620457  1
  O  O406  1  0.13375799  0.12941333  0.38050995  1
  O  O407  1  0.13411375  0.11465527  0.89043790  1
  O  O408  1  0.13254427  0.63311792  0.38334066  1
  O  O409  1  0.11987677  0.63615673  0.88817945  1
  O  O410  1  0.62195046  0.14216948  0.38468849  1
  O  O411  1  0.60683997  0.13778552  0.87459064  1
  O  O412  1  0.63682786  0.57577024  0.39433833  1
  O  O413  1  0.61856077  0.63672560  0.86448246  1
