# generated using pymatgen
data_V79Zn79O256
_symmetry_space_group_name_H-M   'P 1'
_cell_length_a   16.91810711
_cell_length_b   16.90893340
_cell_length_c   16.91955950
_cell_angle_alpha   89.88122042
_cell_angle_beta   89.93843434
_cell_angle_gamma   89.86274792
_symmetry_Int_Tables_number   1
_chemical_formula_structural   V79Zn79O256
_chemical_formula_sum   'V79 Zn79 O256'
_cell_volume   4840.10304585
_cell_formula_units_Z   1
loop_
 _symmetry_equiv_pos_site_id
 _symmetry_equiv_pos_as_xyz
  1  'x, y, z'
loop_
 _atom_site_type_symbol
 _atom_site_label
 _atom_site_symmetry_multiplicity
 _atom_site_fract_x
 _atom_site_fract_y
 _atom_site_fract_z
 _atom_site_occupancy
  V  V0  1  0.50277719  0.88391754  0.37772081  1
  V  V1  1  0.85358370  0.52578006  0.87520554  1
  V  V2  1  0.50183939  0.75189270  0.25100238  1
  V  V3  1  0.87019158  0.88171510  0.00449151  1
  V  V4  1  0.49647706  0.10960471  0.61743155  1
  V  V5  1  0.24859050  0.13075036  0.37482429  1
  V  V6  1  0.38019091  0.88041615  0.49848976  1
  V  V7  1  0.24440224  0.74915719  0.49810735  1
  V  V8  1  0.25036567  0.74305456  -0.00308932  1
  V  V9  1  0.24831927  -0.00276956  0.75175814  1
  V  V10  1  0.50390293  0.00383926  -0.00424162  1
  V  V11  1  0.62740695  0.62358071  0.00796205  1
  V  V12  1  0.87029756  0.25425543  0.62342133  1
  V  V13  1  0.24297741  0.12995436  0.87349285  1
  V  V14  1  0.75846914  0.25478587  -0.00899913  1
  V  V15  1  0.00986291  0.49423403  0.49992132  1
  V  V16  1  0.37234727  -0.00018291  0.87291122  1
  V  V17  1  0.37007586  -0.00057870  0.36859266  1
  V  V18  1  0.36859378  0.26019299  0.61273340  1
  V  V19  1  0.62477466  0.48802710  0.13721200  1
  V  V20  1  0.49874116  0.74265613  0.74944115  1
  V  V21  1  0.61694164  0.11317865  0.49816783  1
  V  V22  1  0.25008201  0.87382894  0.62462034  1
  V  V23  1  0.86774308  0.74546162  0.13340516  1
  V  V24  1  0.50648727  0.25119510  0.24778197  1
  V  V25  1  0.75205984  0.74754487  -0.00143922  1
  V  V26  1  0.25233972  0.37546461  0.12412945  1
  V  V27  1  0.63592110  0.75170071  0.37731198  1
  V  V28  1  0.50426194  0.61943296  0.61979906  1
  V  V29  1  0.24884205  0.25026932  -0.00415722  1
  V  V30  1  0.48846052  0.49443772  0.49260636  1
  V  V31  1  0.87835596  0.11564079  0.76928466  1
  V  V32  1  0.12002053  0.50367549  0.12714614  1
  V  V33  1  0.12349088  0.37069273  0.26167640  1
  V  V34  1  0.11714714  0.62210861  0.00368469  1
  V  V35  1  0.12952900  0.12724449  0.49996947  1
  V  V36  1  0.51966850  0.24988823  0.74430590  1
  V  V37  1  0.74826903  0.12852098  0.37124434  1
  V  V38  1  0.75252163  0.75769116  0.51460144  1
  V  V39  1  -0.00315219  0.13357221  0.13458536  1
  V  V40  1  -0.01698937  0.74128380  0.74961250  1
  V  V41  1  0.37548742  0.62529647  0.25937016  1
  V  V42  1  -0.00228708  0.12345647  0.62733119  1
  V  V43  1  0.73083407  0.10563565  0.88006766  1
  V  V44  1  0.11855104  0.76920213  0.37499176  1
  V  V45  1  0.24077185  0.87895363  0.13403959  1
  V  V46  1  0.62723575  0.73656039  0.87570760  1
  V  V47  1  -0.01310244  0.39422185  0.90590931  1
  V  V48  1  0.73566323  0.38309595  0.63504503  1
  V  V49  1  0.37400786  0.74911800  0.62320327  1
  V  V50  1  0.63130282  0.87722446  0.24598040  1
  V  V51  1  0.77431123  0.36822903  0.13633225  1
  V  V52  1  0.36535969  0.61006918  0.75794234  1
  V  V53  1  0.12442730  -0.00369755  0.62541875  1
  V  V54  1  0.62940004  0.88344284  0.74498558  1
  V  V55  1  0.87118261  0.87678241  0.51277628  1
  V  V56  1  0.37541721  0.75021178  0.12487917  1
  V  V57  1  0.87807248  0.14209230  0.25086978  1
  V  V58  1  0.49839686  0.49733227  -0.00662920  1
  V  V59  1  0.12752575  0.74115373  0.87450271  1
  V  V60  1  0.86880172  0.51337594  0.38797465  1
  V  V61  1  0.62718882  -0.00043536  0.12054627  1
  V  V62  1  0.74973856  0.25283588  0.50139835  1
  V  V63  1  0.00903404  0.75708395  0.24864196  1
  V  V64  1  0.12262217  0.86704614  0.75232608  1
  V  V65  1  0.12357724  0.12107851  0.00318777  1
  V  V66  1  -0.00540750  0.88055876  0.87836817  1
  V  V67  1  -0.00018185  -0.00737562  0.49675107  1
  V  V68  1  0.87831016  -0.00533440  0.37307234  1
  V  V69  1  0.75377758  0.00204101  0.24235814  1
  V  V70  1  0.00881766  0.26466016  0.75545317  1
  V  V71  1  0.63593815  0.61948554  0.49923785  1
  V  V72  1  -0.00899937  0.62694296  0.61284697  1
  V  V73  1  0.49838438  0.87085028  0.87513720  1
  V  V74  1  0.25467673  0.49913217  0.25887579  1
  V  V75  1  0.49708147  0.12252814  0.11886686  1
  V  V76  1  0.24008995  0.62731953  0.37553789  1
  V  V77  1  0.76062681  0.51568803  0.25362447  1
  V  V78  1  0.36745112  0.11983737  0.24456154  1
  Zn  Zn79  1  0.12050449  -0.00502141  0.14462939  1
  Zn  Zn80  1  0.12243494  0.25063164  0.37750026  1
  Zn  Zn81  1  -0.00902125  0.61915439  0.13440013  1
  Zn  Zn82  1  0.49795063  0.38101539  0.37189872  1
  Zn  Zn83  1  0.25958920  0.40807162  0.64656427  1
  Zn  Zn84  1  -0.02222162  0.35739237  0.38083510  1
  Zn  Zn85  1  0.37215099  0.87125218  -0.00030804  1
  Zn  Zn86  1  -0.00341216  0.00395555  0.00163415  1
  Zn  Zn87  1  0.62668065  0.25756691  0.37056570  1
  Zn  Zn88  1  0.37210695  0.12949265  0.74365400  1
  Zn  Zn89  1  0.37176064  0.38485902  -0.01502219  1
  Zn  Zn90  1  0.73942796  0.92414207  0.63025020  1
  Zn  Zn91  1  0.51143432  0.37100972  0.86436647  1
  Zn  Zn92  1  0.37773139  0.25271692  0.11919577  1
  Zn  Zn93  1  0.49997149  0.62175493  0.13112950  1
  Zn  Zn94  1  0.18588209  0.18746563  0.18490786  1
  Zn  Zn95  1  0.18751883  0.18884650  0.68596021  1
  Zn  Zn96  1  0.18760357  0.69019659  0.18871902  1
  Zn  Zn97  1  0.18532488  0.57418965  0.67595292  1
  Zn  Zn98  1  0.67311618  0.20299669  0.15103402  1
  Zn  Zn99  1  0.69865304  0.14260669  0.68221699  1
  Zn  Zn100  1  0.68919292  0.68999670  0.18626550  1
  Zn  Zn101  1  0.68504528  0.69663546  0.68372404  1
  Zn  Zn102  1  0.32172457  0.30833776  0.31473115  1
  Zn  Zn103  1  0.33180380  0.31187632  0.81070867  1
  Zn  Zn104  1  0.31160503  0.81264675  0.31259872  1
  Zn  Zn105  1  0.31096150  0.80544007  0.81105860  1
  Zn  Zn106  1  0.80622738  0.32596517  0.31558463  1
  Zn  Zn107  1  0.81623807  0.31433511  0.80892043  1
  Zn  Zn108  1  0.81623697  0.81462479  0.31413523  1
  Zn  Zn109  1  0.80794667  0.81944301  0.81701301  1
  Zn  Zn110  1  0.19265821  0.44569997  0.44933441  1
  Zn  Zn111  1  0.15813827  0.41902501  0.94823780  1
  Zn  Zn112  1  0.19032236  0.94258288  0.43315976  1
  Zn  Zn113  1  0.18566226  0.93335514  0.94372181  1
  Zn  Zn114  1  0.68354163  0.43231816  0.43176732  1
  Zn  Zn115  1  0.69921874  0.42509703  0.94773710  1
  Zn  Zn116  1  0.69357872  0.93722285  0.43336695  1
  Zn  Zn117  1  0.68562098  0.92793453  0.93570769  1
  Zn  Zn118  1  0.31236576  0.05809813  0.05733502  1
  Zn  Zn119  1  0.31297598  0.06233641  0.55999808  1
  Zn  Zn120  1  0.31081099  0.56346686  0.06654447  1
  Zn  Zn121  1  0.31941694  0.56572787  0.55722708  1
  Zn  Zn122  1  0.81484122  0.07307898  0.06048282  1
  Zn  Zn123  1  0.81415558  0.06749571  0.56079680  1
  Zn  Zn124  1  0.81441002  0.55735090  0.05838783  1
  Zn  Zn125  1  0.81593613  0.56670468  0.57428472  1
  Zn  Zn126  1  0.43439593  0.43684950  0.18876796  1
  Zn  Zn127  1  0.44735390  0.43223541  0.68496532  1
  Zn  Zn128  1  0.43700382  0.93471589  0.18610805  1
  Zn  Zn129  1  0.43909698  0.93422578  0.68960194  1
  Zn  Zn130  1  0.93971677  0.43997424  0.20365623  1
  Zn  Zn131  1  0.92551692  0.44866206  0.69107241  1
  Zn  Zn132  1  0.94175465  0.93798396  0.18344556  1
  Zn  Zn133  1  0.93636518  0.93648881  0.69099843  1
  Zn  Zn134  1  0.06554417  0.05761849  0.31180824  1
  Zn  Zn135  1  0.06196936  0.06312700  0.81308722  1
  Zn  Zn136  1  0.05611056  0.56956848  0.31659015  1
  Zn  Zn137  1  0.05614462  0.55527655  0.82063645  1
  Zn  Zn138  1  0.56195120  0.06686741  0.30802290  1
  Zn  Zn139  1  0.55670273  0.06753670  0.80768166  1
  Zn  Zn140  1  0.56854862  0.56644942  0.31553604  1
  Zn  Zn141  1  0.63799525  0.51110180  0.83206949  1
  Zn  Zn142  1  0.43404850  0.19040993  0.43411615  1
  Zn  Zn143  1  0.43583651  0.19281365  0.92892150  1
  Zn  Zn144  1  0.44226079  0.69021718  0.43638765  1
  Zn  Zn145  1  0.43829620  0.67538712  0.93789992  1
  Zn  Zn146  1  0.93959614  0.18347757  0.43811347  1
  Zn  Zn147  1  0.94147328  0.20147980  0.94353327  1
  Zn  Zn148  1  0.93180402  0.69164093  0.43219948  1
  Zn  Zn149  1  0.93712890  0.68824144  0.93831061  1
  Zn  Zn150  1  0.06481749  0.31065943  0.06947450  1
  Zn  Zn151  1  0.05925163  0.31238416  0.56440772  1
  Zn  Zn152  1  0.05879011  0.80972635  0.06236506  1
  Zn  Zn153  1  0.05977966  0.80590398  0.56722652  1
  Zn  Zn154  1  0.57261579  0.31185881  0.05427715  1
  Zn  Zn155  1  0.56329035  0.30553025  0.56230004  1
  Zn  Zn156  1  0.56165141  0.81352785  0.06250708  1
  Zn  Zn157  1  0.56450007  0.81445600  0.56265544  1
  O  O158  1  0.11632654  0.12083138  0.12123944  1
  O  O159  1  0.11791435  0.11504047  0.62039302  1
  O  O160  1  0.12710039  0.61860624  0.12120131  1
  O  O161  1  0.08845805  0.61583117  0.64374199  1
  O  O162  1  0.60989847  0.10675152  0.12769448  1
  O  O163  1  0.60823796  0.12294486  0.60604745  1
  O  O164  1  0.62284001  0.62227434  0.11986441  1
  O  O165  1  0.61252014  0.64240590  0.60612126  1
  O  O166  1  0.38913324  0.38587716  0.35032240  1
  O  O167  1  0.39597733  0.37556418  0.87538372  1
  O  O168  1  0.38231449  0.87967732  0.37809025  1
  O  O169  1  0.38383212  0.87902434  0.87179102  1
  O  O170  1  0.87758204  0.40192442  0.36009349  1
  O  O171  1  0.89072528  0.37027150  0.87349217  1
  O  O172  1  0.86651822  0.89052376  0.38713673  1
  O  O173  1  0.88309863  0.86868645  0.89132568  1
  O  O174  1  0.26405594  0.00719917  0.37281679  1
  O  O175  1  0.25610523  0.00203058  0.87305917  1
  O  O176  1  0.24592007  0.51210175  0.36859084  1
  O  O177  1  0.20957387  0.45848268  0.80408343  1
  O  O178  1  0.75670244  0.01028852  0.36427685  1
  O  O179  1  0.74520817  0.00653104  0.87957969  1
  O  O180  1  0.75676269  0.49802342  0.36357822  1
  O  O181  1  0.74799803  0.50727823  0.88078121  1
  O  O182  1  0.24285416  0.49447917  0.13559453  1
  O  O183  1  0.23727124  0.50761450  0.60105264  1
  O  O184  1  0.25343159  0.98035552  0.11616329  1
  O  O185  1  0.24548882  0.99289195  0.63010370  1
  O  O186  1  0.74291116  0.49757427  0.13360723  1
  O  O187  1  0.75810253  0.47959708  0.61716410  1
  O  O188  1  0.74122821  1.01130346  0.13307447  1
  O  O189  1  0.74018454  1.03725323  0.63772625  1
  O  O190  1  0.02144062  0.38468133  0.26146709  1
  O  O191  1  -0.00511472  0.36168511  0.73052169  1
  O  O192  1  -0.00943045  0.85734230  0.25010507  1
  O  O193  1  0.00458253  0.86802473  0.75669311  1
  O  O194  1  0.49767721  0.35066995  0.23109037  1
  O  O195  1  0.51298062  0.35532284  0.73919399  1
  O  O196  1  0.51030853  0.87232248  0.25788051  1
  O  O197  1  0.50445971  0.86211459  0.75664829  1
  O  O198  1  0.48958066  0.12617870  0.23682926  1
  O  O199  1  0.49602395  0.12541119  0.72952745  1
  O  O200  1  0.49230598  0.63321566  0.25414826  1
  O  O201  1  0.49284121  0.63747252  0.73758414  1
  O  O202  1  0.99292316  0.12013797  0.24188343  1
  O  O203  1  0.99653982  0.13159808  0.74364764  1
  O  O204  1  1.00226558  0.64535978  0.24977181  1
  O  O205  1  0.99623431  0.64221659  0.76465519  1
  O  O206  1  0.36172347  0.25063731  0.00020882  1
  O  O207  1  0.38192580  0.25302487  0.51199147  1
  O  O208  1  0.36966377  0.74448458  0.00776437  1
  O  O209  1  0.37032390  0.76069413  0.50355366  1
  O  O210  1  0.85771552  0.24062638  0.01016784  1
  O  O211  1  0.86547201  0.23468632  0.51417435  1
  O  O212  1  0.86716887  0.75634909  0.00786550  1
  O  O213  1  0.86517673  0.76803758  0.49100056  1
  O  O214  1  0.11792448  0.22785489  0.50448310  1
  O  O215  1  0.13917761  0.23797619  1.00583719  1
  O  O216  1  0.13279426  0.75878446  0.48888027  1
  O  O217  1  0.13084932  0.74332758  0.99347296  1
  O  O218  1  0.63413782  0.23421295  0.49579493  1
  O  O219  1  0.65728406  0.23833369  1.03631548  1
  O  O220  1  0.63473735  0.75233036  0.49346945  1
  O  O221  1  0.62960095  0.74569115  0.99618931  1
  O  O222  1  0.50026940  0.23447057  0.12171724  1
  O  O223  1  0.49026195  0.23983775  0.62737767  1
  O  O224  1  0.49177900  0.75138875  0.13198623  1
  O  O225  1  0.49084279  0.74814041  0.62899148  1
  O  O226  1  1.00581533  0.23287527  0.12860081  1
  O  O227  1  0.98901855  0.24077020  0.62442941  1
  O  O228  1  0.99265272  0.74837563  0.13657076  1
  O  O229  1  0.99639646  0.74271017  0.63979306  1
  O  O230  1  0.00811808  0.25049172  0.38290850  1
  O  O231  1  -0.00343127  0.25824414  0.85818637  1
  O  O232  1  0.01269064  0.74943326  0.36834934  1
  O  O233  1  0.00763944  0.75967125  0.86915204  1
  O  O234  1  0.49948344  0.24290362  0.35395689  1
  O  O235  1  0.50376619  0.23912116  0.85028390  1
  O  O236  1  0.51112948  0.76271243  0.37014670  1
  O  O237  1  0.50480518  0.75276744  0.86946519  1
  O  O238  1  0.23976804  0.11349675  0.48885127  1
  O  O239  1  0.24465950  0.12964063  0.99345694  1
  O  O240  1  0.25996200  0.64303843  0.48797225  1
  O  O241  1  0.24098638  0.63663725  1.00696430  1
  O  O242  1  0.74140538  0.12905727  0.48626455  1
  O  O243  1  0.75656484  0.13163109  0.98122131  1
  O  O244  1  0.73961767  0.63718223  0.50916652  1
  O  O245  1  0.73872880  0.63834927  1.00854055  1
  O  O246  1  0.24546126  0.36900228  0.00353144  1
  O  O247  1  0.21197318  0.35479131  0.51750047  1
  O  O248  1  0.25257492  0.85933617  0.00671238  1
  O  O249  1  0.25885461  0.86838165  0.50264761  1
  O  O250  1  0.75370235  0.36270482  0.02365071  1
  O  O251  1  0.74530066  0.35610295  0.50635941  1
  O  O252  1  0.76138623  0.86445473  -0.00264384  1
  O  O253  1  0.75283501  0.87674450  0.51018011  1
  O  O254  1  0.13801861  0.49557142  0.24746941  1
  O  O255  1  0.14537686  0.49360406  0.76062356  1
  O  O256  1  0.13646479  0.99811323  0.25491258  1
  O  O257  1  0.12722313  0.98668652  0.74657957  1
  O  O258  1  0.63259406  0.50633139  0.24053696  1
  O  O259  1  0.66137439  0.55012481  0.72688797  1
  O  O260  1  0.63243115  0.99539447  0.24291090  1
  O  O261  1  0.61281405  0.98093378  0.75606248  1
  O  O262  1  0.38124629  0.00743666  0.25693390  1
  O  O263  1  0.36826302  -0.00224544  0.75910256  1
  O  O264  1  0.36507721  0.51457664  0.24194867  1
  O  O265  1  0.38407294  0.51256436  0.73978844  1
  O  O266  1  0.86838719  0.00099476  0.25570714  1
  O  O267  1  0.88295832  0.01669259  0.75262033  1
  O  O268  1  0.86393483  0.51468018  0.24986950  1
  O  O269  1  0.87264240  0.50003287  0.77441379  1
  O  O270  1  0.14054664  0.37555069  0.36406835  1
  O  O271  1  0.08664421  0.38262857  0.87376468  1
  O  O272  1  0.12491168  0.86815013  0.37531832  1
  O  O273  1  0.11809406  0.86583891  0.87063184  1
  O  O274  1  0.61189462  0.36906077  0.37386075  1
  O  O275  1  0.61966572  0.40535297  0.86923571  1
  O  O276  1  0.61983249  0.87327027  0.36666098  1
  O  O277  1  0.61357302  0.86268724  0.86750644  1
  O  O278  1  0.38175327  0.11868365  0.12831188  1
  O  O279  1  0.38623319  0.12872026  0.61739207  1
  O  O280  1  0.37371301  0.63746684  0.13801537  1
  O  O281  1  0.38601182  0.63673081  0.62483538  1
  O  O282  1  0.88766048  0.12231035  0.13562138  1
  O  O283  1  0.88816305  0.12783001  0.63288542  1
  O  O284  1  0.87580180  0.64158157  0.11609520  1
  O  O285  1  0.89023609  0.62276030  0.63751865  1
  O  O286  1  0.25161904  0.25956229  0.11602183  1
  O  O287  1  0.26981085  0.23853625  0.62794117  1
  O  O288  1  0.25696321  0.75663459  0.11870633  1
  O  O289  1  0.26210513  0.75601605  0.61316757  1
  O  O290  1  0.76656763  0.26718462  0.14857651  1
  O  O291  1  0.76087132  0.23818318  0.62000157  1
  O  O292  1  0.76085003  0.75265615  0.11842311  1
  O  O293  1  0.75203520  0.75587416  0.61511173  1
  O  O294  1  0.25087915  0.23451187  0.37208611  1
  O  O295  1  0.25795603  0.23704284  0.87943809  1
  O  O296  1  0.23755188  0.75066633  0.37878764  1
  O  O297  1  0.23856828  0.75452622  0.88360156  1
  O  O298  1  0.75235196  0.24257651  0.38086255  1
  O  O299  1  0.74815249  0.26165573  0.89085266  1
  O  O300  1  0.73989518  0.76126581  0.38402709  1
  O  O301  1  0.73662207  0.75521329  0.88536035  1
  O  O302  1  0.00776914  0.12761940  0.00957094  1
  O  O303  1  0.00587644  0.11065045  0.51010595  1
  O  O304  1  0.01441749  0.63539017  0.00972299  1
  O  O305  1  -0.00663477  0.62848872  0.50913524  1
  O  O306  1  0.49134338  0.11190969  0.00306331  1
  O  O307  1  0.50864269  0.12519948  0.50032941  1
  O  O308  1  0.50983503  0.61793093  0.00992656  1
  O  O309  1  0.50855108  0.62086345  0.50269768  1
  O  O310  1  0.50651748  0.39397715  0.50593118  1
  O  O311  1  0.50472651  0.38909943  1.00392337  1
  O  O312  1  0.49176167  0.86877752  0.48946414  1
  O  O313  1  0.49770126  0.88025889  0.98842463  1
  O  O314  1  1.00584658  0.38922878  0.49664945  1
  O  O315  1  0.99531640  0.37142319  1.00502080  1
  O  O316  1  0.99010801  0.88619948  0.51204698  1
  O  O317  1  0.98903956  0.87314755  0.99418649  1
  O  O318  1  0.50959226  0.50501697  0.39044019  1
  O  O319  1  0.50713600  0.51097048  0.89648875  1
  O  O320  1  0.49228350  0.99015817  0.36908101  1
  O  O321  1  0.49247616  0.99244267  0.87777521  1
  O  O322  1  0.98758503  0.50882398  0.38842975  1
  O  O323  1  0.98284642  0.49932238  0.88627013  1
  O  O324  1  0.99003375  1.00673715  0.38699306  1
  O  O325  1  1.00761461  0.98484360  0.88034051  1
  O  O326  1  0.00374310  0.01062084  0.12048777  1
  O  O327  1  0.00492357  0.00574158  0.62033095  1
  O  O328  1  0.01662623  0.50270711  0.13930787  1
  O  O329  1  -0.01474192  0.50588794  0.60562574  1
  O  O330  1  0.50364147  0.00197329  0.11446881  1
  O  O331  1  0.49177730  0.00969230  0.62119721  1
  O  O332  1  0.51448189  0.50083865  0.12901684  1
  O  O333  1  0.50050719  0.51351192  0.61222543  1
  O  O334  1  0.24715224  0.38311470  0.24219691  1
  O  O335  1  0.23739735  0.39117057  0.76338145  1
  O  O336  1  0.25275140  0.86784782  0.23319433  1
  O  O337  1  0.24155252  0.87650018  0.74573926  1
  O  O338  1  0.75147321  0.39488604  0.23963704  1
  O  O339  1  0.74942376  0.36569460  0.73374925  1
  O  O340  1  0.74071236  0.88838206  0.25611958  1
  O  O341  1  0.73321137  0.87471488  0.75035272  1
  O  O342  1  0.26105550  0.12838469  0.25413943  1
  O  O343  1  0.24733605  0.11486881  0.75834003  1
  O  O344  1  0.25552505  0.62043948  0.25746865  1
  O  O345  1  0.26731606  0.62505229  0.73922062  1
  O  O346  1  0.75949834  0.11747726  0.25671257  1
  O  O347  1  0.76818114  0.13484762  0.77837559  1
  O  O348  1  0.74336867  0.61492471  0.25086809  1
  O  O349  1  0.72473033  0.59787972  0.73074535  1
  O  O350  1  0.36951780  0.11710633  0.36703299  1
  O  O351  1  0.36459389  0.11182085  0.87252869  1
  O  O352  1  0.36321659  0.64061480  0.36417465  1
  O  O353  1  0.37653632  0.62753593  0.85731003  1
  O  O354  1  0.86772213  0.11476128  0.36950968  1
  O  O355  1  0.89216663  0.12367054  0.86839042  1
  O  O356  1  0.86988887  0.61481258  0.37603165  1
  O  O357  1  0.86431879  0.62746528  0.87800130  1
  O  O358  1  0.13470104  0.38358694  0.13406802  1
  O  O359  1  0.16448568  0.36164704  0.58614923  1
  O  O360  1  0.13691337  0.87334432  0.11852484  1
  O  O361  1  0.12907323  0.87594955  0.63327625  1
  O  O362  1  0.63293552  0.38802985  0.12755762  1
  O  O363  1  0.63688407  0.37222928  0.61951980  1
  O  O364  1  0.61880587  0.88492830  0.13643464  1
  O  O365  1  0.62396453  0.87295810  0.64013382  1
  O  O366  1  0.13350980  0.26800049  0.25015373  1
  O  O367  1  0.10743320  0.24870359  0.73695213  1
  O  O368  1  0.11824861  0.75558426  0.25960491  1
  O  O369  1  0.11662185  0.76125688  0.75879074  1
  O  O370  1  0.60899891  0.23427341  0.24287354  1
  O  O371  1  0.61546984  0.22411131  0.73048138  1
  O  O372  1  0.62475624  0.75952295  0.25659587  1
  O  O373  1  0.61623250  0.75321182  0.75834136  1
  O  O374  1  0.38515460  0.23441425  0.23968752  1
  O  O375  1  0.38707121  0.24440461  0.73519538  1
  O  O376  1  0.38043674  0.74548748  0.24394055  1
  O  O377  1  0.38137032  0.74764099  0.73926541  1
  O  O378  1  0.87371533  0.23933305  0.26472786  1
  O  O379  1  0.88472416  0.23705794  0.73721641  1
  O  O380  1  0.87553532  0.75342787  0.23774941  1
  O  O381  1  0.88524534  0.75911777  0.75779965  1
  O  O382  1  0.38919944  0.50391352  0.49312364  1
  O  O383  1  0.39328420  0.50496692  1.01171984  1
  O  O384  1  0.37154503  0.98622365  0.48911814  1
  O  O385  1  0.38401967  0.99323352  0.98742880  1
  O  O386  1  0.87311477  0.50413318  0.48954498  1
  O  O387  1  0.86658367  0.50004987  0.97896826  1
  O  O388  1  0.88043947  0.99737447  0.49305649  1
  O  O389  1  0.87275346  0.98442303  1.00900826  1
  O  O390  1  0.12577564  0.01265461  0.00516424  1
  O  O391  1  0.11730091  0.00154545  0.50480827  1
  O  O392  1  0.13410458  0.51090502  0.01342989  1
  O  O393  1  0.10735800  0.51129678  0.49293161  1
  O  O394  1  0.61377750  -0.01304466  0.00794640  1
  O  O395  1  0.62785433  0.01411588  0.48824691  1
  O  O396  1  0.61974430  0.50862621  0.01753938  1
  O  O397  1  0.63077821  0.51898321  0.49653368  1
  O  O398  1  0.36008347  0.37745728  0.11777132  1
  O  O399  1  0.36685850  0.36576537  0.63118042  1
  O  O400  1  0.36945473  0.86281892  0.12287917  1
  O  O401  1  0.37259000  0.86869903  0.61776419  1
  O  O402  1  0.87277683  0.38284772  0.13290789  1
  O  O403  1  0.86561280  0.35533680  0.62553381  1
  O  O404  1  0.88123753  0.86127345  0.11137115  1
  O  O405  1  0.86160227  0.89205677  0.61599536  1
  O  O406  1  0.13379644  0.12303457  0.38298670  1
  O  O407  1  0.13593269  0.11831004  0.88408594  1
  O  O408  1  0.13701861  0.63849107  0.37096356  1
  O  O409  1  0.11913188  0.63444384  0.88516997  1
  O  O410  1  0.63288845  0.12865725  0.37742622  1
  O  O411  1  0.63204573  0.11921901  0.87414130  1
  O  O412  1  0.62180874  0.64120830  0.38990868  1
  O  O413  1  0.62183970  0.63229598  0.88817760  1
