# generated using pymatgen
data_V79Zn79O256
_symmetry_space_group_name_H-M   'P 1'
_cell_length_a   16.94454248
_cell_length_b   16.89568542
_cell_length_c   16.95608787
_cell_angle_alpha   89.86869131
_cell_angle_beta   89.98993771
_cell_angle_gamma   90.02354285
_symmetry_Int_Tables_number   1
_chemical_formula_structural   V79Zn79O256
_chemical_formula_sum   'V79 Zn79 O256'
_cell_volume   4854.33938565
_cell_formula_units_Z   1
loop_
 _symmetry_equiv_pos_site_id
 _symmetry_equiv_pos_as_xyz
  1  'x, y, z'
loop_
 _atom_site_type_symbol
 _atom_site_label
 _atom_site_symmetry_multiplicity
 _atom_site_fract_x
 _atom_site_fract_y
 _atom_site_fract_z
 _atom_site_occupancy
  V  V0  1  0.87699248  0.63579244  0.24426918  1
  V  V1  1  0.74765402  0.24494581  0.49649345  1
  V  V2  1  0.61681978  0.00425195  0.12737448  1
  V  V3  1  0.87592172  0.50156958  0.87282129  1
  V  V4  1  0.62036329  0.11917857  0.49961844  1
  V  V5  1  0.74901817  0.25131444  0.00236823  1
  V  V6  1  0.12802617  0.25978180  0.86920050  1
  V  V7  1  0.39593908  0.63722049  0.24548050  1
  V  V8  1  0.37483316  -0.00374280  0.87978035  1
  V  V9  1  0.00163386  0.23767353  0.75080097  1
  V  V10  1  0.67935404  0.94362090  0.68532565  1
  V  V11  1  0.24864927  -0.00774460  0.75466644  1
  V  V12  1  0.25605394  0.86816652  0.60350810  1
  V  V13  1  0.61383329  0.87145787  0.24929758  1
  V  V14  1  0.75262672  0.12122596  0.87236431  1
  V  V15  1  0.88039709  0.63008537  0.73655060  1
  V  V16  1  0.61302202  0.50395402  0.12533596  1
  V  V17  1  0.87263519  -0.02501188  0.88335463  1
  V  V18  1  0.12092864  0.25352924  0.39058472  1
  V  V19  1  0.00561999  0.51344371  0.00463809  1
  V  V20  1  0.49408218  -0.00645306  0.50434426  1
  V  V21  1  0.61574641  0.62392131  0.50250330  1
  V  V22  1  -0.00201652  0.38457408  0.37463104  1
  V  V23  1  0.12400974  0.37923993  0.23762570  1
  V  V24  1  0.24414011  0.49767518  0.75435379  1
  V  V25  1  0.74778881  0.62785540  0.37577188  1
  V  V26  1  0.13027748  0.00986626  0.61725518  1
  V  V27  1  0.49718474  0.24609550  0.24226343  1
  V  V28  1  0.50285471  0.49230626  -0.02610396  1
  V  V29  1  0.37596525  0.74460170  0.61451455  1
  V  V30  1  0.75148466  0.50288718  0.24801591  1
  V  V31  1  0.01878247  0.74767996  0.25374205  1
  V  V32  1  0.13343976  0.91149863  0.25201358  1
  V  V33  1  0.50645783  0.74822519  0.74825324  1
  V  V34  1  0.37001560  0.12217967  0.24413996  1
  V  V35  1  0.74890961  0.49607370  0.74748385  1
  V  V36  1  0.61520423  0.75079700  0.37307660  1
  V  V37  1  0.11625015  0.12242265  0.01100931  1
  V  V38  1  0.75180067  0.86733512  0.12198388  1
  V  V39  1  -0.00192171  0.24154490  0.24414804  1
  V  V40  1  0.49535806  0.00003156  0.00041995  1
  V  V41  1  0.48666454  0.87348234  0.37185383  1
  V  V42  1  0.36394730  -0.00185220  0.37406535  1
  V  V43  1  0.61781569  0.25437175  0.87547809  1
  V  V44  1  0.61860316  0.12746224  0.00458922  1
  V  V45  1  0.37705956  0.37905754  -0.00610155  1
  V  V46  1  0.25987982  0.37904896  0.62341232  1
  V  V47  1  0.00432189  0.37429982  0.86879293  1
  V  V48  1  0.75701094  0.76368274  0.50933204  1
  V  V49  1  0.49693590  0.24985715  0.74430252  1
  V  V50  1  0.87502390  0.38085558  0.49877170  1
  V  V51  1  0.61715086  0.37227775  0.75498893  1
  V  V52  1  0.24961188  0.25964554  0.00915387  1
  V  V53  1  0.37464971  0.12982520  0.74513018  1
  V  V54  1  0.36799919  0.49320404  0.38207010  1
  V  V55  1  0.76235814  0.12234752  0.37027106  1
  V  V56  1  0.61878705  0.63205558  -0.00397556  1
  V  V57  1  0.25247410  0.88985101  0.12653612  1
  V  V58  1  0.74190290  0.62917113  0.87059721  1
  V  V59  1  0.87803018  0.24119737  0.62819403  1
  V  V60  1  0.51485392  0.87158032  0.87142401  1
  V  V61  1  0.24546008  0.12978924  0.87579264  1
  V  V62  1  0.61835932  0.50029923  0.62150030  1
  V  V63  1  0.24524317  0.63966970  0.38153366  1
  V  V64  1  0.25292339  0.49856686  0.23937330  1
  V  V65  1  0.27768548  0.25597799  0.50459862  1
  V  V66  1  0.37403623  0.61652212  0.75812340  1
  V  V67  1  0.87636564  0.37832498  0.00302071  1
  V  V68  1  0.10432533  0.62187119  0.50475149  1
  V  V69  1  0.62393796  0.37557498  0.24964232  1
  V  V70  1  0.24246745  0.12691448  0.38071605  1
  V  V71  1  -0.00960121  0.87980968  0.37681067  1
  V  V72  1  0.87657915  0.23865736  0.12826250  1
  V  V73  1  0.75771215  0.00166685  0.25425188  1
  V  V74  1  0.74550724  0.36522525  0.62451707  1
  V  V75  1  0.49554339  0.37410765  0.38140278  1
  V  V76  1  0.75092189  0.37969989  0.12620343  1
  V  V77  1  0.02906130  0.86244684  0.88881341  1
  V  V78  1  0.62299515  0.24616994  0.37180628  1
  Zn  Zn79  1  0.12622456  0.52522167  0.11727387  1
  Zn  Zn80  1  0.02263095  0.73007422  0.74699753  1
  Zn  Zn81  1  0.75399963  0.76215084  -0.01571116  1
  Zn  Zn82  1  0.34201564  0.82800479  0.00077026  1
  Zn  Zn83  1  0.49834953  0.12223094  0.62521456  1
  Zn  Zn84  1  0.87357045  0.12051976  0.75602360  1
  Zn  Zn85  1  0.37099155  0.25744930  0.12810337  1
  Zn  Zn86  1  0.49189033  0.49708089  0.50524692  1
  Zn  Zn87  1  0.21956568  0.67296200  -0.06873647  1
  Zn  Zn88  1  0.13723471  0.85369081  0.75044540  1
  Zn  Zn89  1  0.11409550  0.49623176  0.62325483  1
  Zn  Zn90  1  0.88058404  0.50753457  0.37940197  1
  Zn  Zn91  1  -0.00110251  -0.01307204  0.01487885  1
  Zn  Zn92  1  0.89226745  0.75580321  0.10748479  1
  Zn  Zn93  1  -0.00932765  -0.03694983  0.52188431  1
  Zn  Zn94  1  0.18398051  0.18602615  0.19358854  1
  Zn  Zn95  1  0.19053094  0.19373715  0.68417333  1
  Zn  Zn96  1  0.21075447  0.69310520  0.19008887  1
  Zn  Zn97  1  0.19150970  0.67833264  0.67715711  1
  Zn  Zn98  1  0.68989184  0.18726335  0.18748455  1
  Zn  Zn99  1  0.71867749  0.13403775  0.65943250  1
  Zn  Zn100  1  0.67842571  0.68467636  0.18638569  1
  Zn  Zn101  1  0.68931187  0.68715882  0.68461646  1
  Zn  Zn102  1  0.30707035  0.31227918  0.31294913  1
  Zn  Zn103  1  0.31594747  0.32033390  0.81485314  1
  Zn  Zn104  1  0.30351030  0.81191388  0.28550133  1
  Zn  Zn105  1  0.31959602  0.80325436  0.81858114  1
  Zn  Zn106  1  0.81400597  0.31241784  0.31144379  1
  Zn  Zn107  1  0.81059253  0.30873201  0.81319240  1
  Zn  Zn108  1  0.80706564  0.81597508  0.31727747  1
  Zn  Zn109  1  0.80188318  0.81059797  0.79493456  1
  Zn  Zn110  1  0.18445321  0.43610733  0.43994714  1
  Zn  Zn111  1  0.21434980  0.47572188  0.95861742  1
  Zn  Zn112  1  0.17769932  0.93261381  0.43533925  1
  Zn  Zn113  1  0.18934293  0.94119586  0.94737424  1
  Zn  Zn114  1  0.68686292  0.43678165  0.43658625  1
  Zn  Zn115  1  0.68864989  0.44147367  0.93805763  1
  Zn  Zn116  1  0.68295563  0.93870893  0.43729365  1
  Zn  Zn117  1  0.68613966  0.94170339  0.93737843  1
  Zn  Zn118  1  0.30561135  0.06595267  0.06372026  1
  Zn  Zn119  1  0.30926288  0.06250587  0.56037091  1
  Zn  Zn120  1  0.32902454  0.57079950  0.06286592  1
  Zn  Zn121  1  0.30936288  0.56495178  0.56483605  1
  Zn  Zn122  1  0.81062191  0.05442640  0.06304605  1
  Zn  Zn123  1  0.84491739  0.02062433  0.60289618  1
  Zn  Zn124  1  0.82821161  0.59531930  0.04241385  1
  Zn  Zn125  1  0.80339630  0.56376252  0.56054263  1
  Zn  Zn126  1  0.43249785  0.43342353  0.18736714  1
  Zn  Zn127  1  0.43327770  0.43101568  0.68439311  1
  Zn  Zn128  1  0.43040374  0.93605593  0.18380537  1
  Zn  Zn129  1  0.43343613  0.93335537  0.68983508  1
  Zn  Zn130  1  0.93964181  0.44288476  0.18804088  1
  Zn  Zn131  1  0.93604050  0.43785555  0.68857683  1
  Zn  Zn132  1  0.94281217  0.93096156  0.18876182  1
  Zn  Zn133  1  0.95957273  0.88474285  0.67577392  1
  Zn  Zn134  1  0.05255459  0.06611409  0.32688820  1
  Zn  Zn135  1  0.02136642  0.01511603  0.77200004  1
  Zn  Zn136  1  0.06834064  0.56635179  0.31369884  1
  Zn  Zn137  1  0.07250937  0.56862153  0.81912306  1
  Zn  Zn138  1  0.55558319  0.05912810  0.31188904  1
  Zn  Zn139  1  0.56259172  0.06615198  0.81425257  1
  Zn  Zn140  1  0.56136279  0.55825480  0.31683021  1
  Zn  Zn141  1  0.56134137  0.56631780  0.80412346  1
  Zn  Zn142  1  0.43900218  0.17973448  0.42894935  1
  Zn  Zn143  1  0.43238846  0.18935044  0.93602711  1
  Zn  Zn144  1  0.43029953  0.68262471  0.43085881  1
  Zn  Zn145  1  0.42490305  0.68841889  0.93194319  1
  Zn  Zn146  1  0.93778999  0.20129953  0.43555519  1
  Zn  Zn147  1  0.93881595  0.19082353  0.94089285  1
  Zn  Zn148  1  0.93856329  0.69673732  0.43596025  1
  Zn  Zn149  1  0.93655576  0.69505827  0.92876344  1
  Zn  Zn150  1  0.06183489  0.31143467  0.05883077  1
  Zn  Zn151  1  0.05157743  0.34036862  0.57952480  1
  Zn  Zn152  1  0.08161679  0.80054223  0.07608300  1
  Zn  Zn153  1  0.07066099  0.79591845  0.56320046  1
  Zn  Zn154  1  0.56041742  0.31735530  0.06347218  1
  Zn  Zn155  1  0.55955886  0.30725022  0.56345492  1
  Zn  Zn156  1  0.56320076  0.81682922  0.05709406  1
  Zn  Zn157  1  0.56332734  0.81333890  0.56326300  1
  O  O158  1  0.12941541  0.13460005  0.10943063  1
  O  O159  1  0.14923405  0.10860835  0.62064592  1
  O  O160  1  0.14072424  0.64790546  0.10907342  1
  O  O161  1  0.12049725  0.61618501  0.61242002  1
  O  O162  1  0.62991726  0.11605906  0.11665422  1
  O  O163  1  0.61863411  0.13199590  0.60301275  1
  O  O164  1  0.62956296  0.61613651  0.10673039  1
  O  O165  1  0.63220903  0.61085754  0.61471576  1
  O  O166  1  0.38131634  0.38516086  0.36871834  1
  O  O167  1  0.38280655  0.36979839  0.89329910  1
  O  O168  1  0.37948518  0.88417468  0.35853141  1
  O  O169  1  0.37775230  0.89097087  0.88744341  1
  O  O170  1  0.87830041  0.37717683  0.38141782  1
  O  O171  1  0.87756348  0.38239134  0.88379732  1
  O  O172  1  0.88928453  0.87430987  0.36783233  1
  O  O173  1  0.85510607  0.87640459  0.87780568  1
  O  O174  1  0.25528414  0.01291514  0.39018520  1
  O  O175  1  0.25665424  0.00911593  0.87449973  1
  O  O176  1  0.26208886  0.49880753  0.36953689  1
  O  O177  1  0.25436878  0.48293474  0.85123191  1
  O  O178  1  0.74128719  0.00616740  0.36137891  1
  O  O179  1  0.75875860  0.01336766  0.88263021  1
  O  O180  1  0.74357332  0.51012893  0.36341454  1
  O  O181  1  0.75815902  0.50297278  0.86759563  1
  O  O182  1  0.24908772  0.50388615  0.13912852  1
  O  O183  1  0.25092580  0.49002803  0.62851270  1
  O  O184  1  0.24548690  0.99313632  0.12499743  1
  O  O185  1  0.25152714  0.98586946  0.63109748  1
  O  O186  1  0.74013169  0.49762995  0.13724115  1
  O  O187  1  0.73920780  0.48422831  0.62755147  1
  O  O188  1  0.73772720  0.99079731  0.13463831  1
  O  O189  1  0.73586376  1.01809570  0.63253811  1
  O  O190  1  0.00592606  0.37321685  0.25616164  1
  O  O191  1  -0.00942517  0.36232882  0.76634303  1
  O  O192  1  0.01214882  0.86748253  0.25841761  1
  O  O193  1  0.02395483  0.89209846  0.77419975  1
  O  O194  1  0.50466018  0.36666540  0.25952095  1
  O  O195  1  0.50997417  0.36757659  0.74619300  1
  O  O196  1  0.50537558  0.88106504  0.25638184  1
  O  O197  1  0.49159784  0.86696579  0.76500796  1
  O  O198  1  0.48224418  0.13478667  0.25996290  1
  O  O199  1  0.49205681  0.13129200  0.74960625  1
  O  O200  1  0.49515530  0.61923164  0.25005909  1
  O  O201  1  0.49037510  0.63834295  0.75045817  1
  O  O202  1  1.00021005  0.14381504  0.25731403  1
  O  O203  1  0.99751831  0.13491108  0.76079933  1
  O  O204  1  0.98497688  0.63488507  0.26072434  1
  O  O205  1  0.98317846  0.61848761  0.75631221  1
  O  O206  1  0.36886382  0.25820424  0.00269619  1
  O  O207  1  0.37611921  0.25265890  0.49328918  1
  O  O208  1  0.41792181  0.74196490  0.03856603  1
  O  O209  1  0.38996431  0.74732096  0.51596849  1
  O  O210  1  0.87091678  0.26148422  0.00861953  1
  O  O211  1  0.86537242  0.25808402  0.50933765  1
  O  O212  1  0.85719431  0.71381565  0.00904767  1
  O  O213  1  0.85450714  0.74450265  0.49363006  1
  O  O214  1  0.11072219  0.25788558  0.48830461  1
  O  O215  1  0.13287509  0.24834100  0.99092974  1
  O  O216  1  0.12921530  0.72249913  0.50223997  1
  O  O217  1  0.13797216  0.70022077  1.04346426  1
  O  O218  1  0.62575729  0.24350469  0.48709026  1
  O  O219  1  0.62714887  0.24682330  0.99667382  1
  O  O220  1  0.62829689  0.74265155  0.49237503  1
  O  O221  1  0.62614224  0.73452961  0.99993377  1
  O  O222  1  0.50250703  0.25207346  0.13957469  1
  O  O223  1  0.50220085  0.24513577  0.63969037  1
  O  O224  1  0.47516478  0.74979546  0.09493156  1
  O  O225  1  0.48652643  0.76569097  0.64057299  1
  O  O226  1  0.99223443  0.25466004  0.13601387  1
  O  O227  1  0.98657356  0.25611821  0.63745384  1
  O  O228  1  0.99691708  0.75854614  0.14889992  1
  O  O229  1  1.00153059  0.78300519  0.64927682  1
  O  O230  1  0.00347069  0.26081674  0.36120444  1
  O  O231  1  0.00769075  0.25575820  0.87043498  1
  O  O232  1  -0.00488540  0.75936976  0.35764755  1
  O  O233  1  -0.00904710  0.76781844  0.86170343  1
  O  O234  1  0.50651710  0.25511609  0.36570384  1
  O  O235  1  0.51319139  0.24319165  0.86939601  1
  O  O236  1  0.50751096  0.75963916  0.38378054  1
  O  O237  1  0.49450909  0.76432371  0.86728367  1
  O  O238  1  0.25836046  0.14309185  0.49110107  1
  O  O239  1  0.24642323  0.13854755  0.99219506  1
  O  O240  1  0.26389649  0.62795469  0.48065153  1
  O  O241  1  0.24980919  0.58043027  0.98882038  1
  O  O242  1  0.73479155  0.12906737  0.48371154  1
  O  O243  1  0.73676840  0.13086753  0.99514299  1
  O  O244  1  0.73802431  0.62947071  0.48920836  1
  O  O245  1  0.73109053  0.61341359  0.98483532  1
  O  O246  1  0.26597217  0.37449278  -0.00371234  1
  O  O247  1  0.25397586  0.36089555  0.50030961  1
  O  O248  1  0.23240582  0.86654117  0.02357509  1
  O  O249  1  0.25306118  0.87655043  0.50517724  1
  O  O250  1  0.75888237  0.37378224  0.00459423  1
  O  O251  1  0.75082521  0.36514379  0.50523596  1
  O  O252  1  0.73795206  0.87447844  0.01643866  1
  O  O253  1  0.74473046  0.86301223  0.49088943  1
  O  O254  1  0.13315783  0.49967522  0.24127020  1
  O  O255  1  0.14064356  0.50677875  0.74547942  1
  O  O256  1  0.11455917  1.00924060  0.24746707  1
  O  O257  1  0.14626168  1.00534053  0.74803259  1
  O  O258  1  0.63150680  0.49702926  0.24463488  1
  O  O259  1  0.62827274  0.49144088  0.74145502  1
  O  O260  1  0.62319932  0.99300225  0.24230643  1
  O  O261  1  0.61884256  0.99797365  0.74621437  1
  O  O262  1  0.37810216  0.01525182  0.25785827  1
  O  O263  1  0.36861944  0.00745891  0.76182962  1
  O  O264  1  0.36372009  0.50005191  0.25603963  1
  O  O265  1  0.37430564  0.51254137  0.73710478  1
  O  O266  1  0.85446230  -0.00804108  0.24732839  1
  O  O267  1  0.89300662  0.00932499  0.78411537  1
  O  O268  1  0.86464675  0.51022543  0.25342862  1
  O  O269  1  0.86896957  0.50010269  0.75773296  1
  O  O270  1  0.11583216  0.37083506  0.36644524  1
  O  O271  1  0.11462046  0.36531037  0.88092347  1
  O  O272  1  0.11893497  0.88063935  0.35425707  1
  O  O273  1  0.13100471  0.86521433  0.88138223  1
  O  O274  1  0.61926212  0.36514396  0.36888027  1
  O  O275  1  0.63385797  0.36739693  0.86504087  1
  O  O276  1  0.61171911  0.86981595  0.36625351  1
  O  O277  1  0.61423956  0.87680780  0.87460646  1
  O  O278  1  0.36616905  0.12955428  0.14190984  1
  O  O279  1  0.37321861  0.11769605  0.64213038  1
  O  O280  1  0.36984129  0.62603335  0.14812145  1
  O  O281  1  0.37252556  0.63956863  0.63000106  1
  O  O282  1  0.86325805  0.14058849  0.11969120  1
  O  O283  1  0.85275714  0.13684413  0.63735034  1
  O  O284  1  0.86902997  0.62442692  0.14394717  1
  O  O285  1  0.86915169  0.61061700  0.63873697  1
  O  O286  1  0.24749114  0.25074639  0.11176338  1
  O  O287  1  0.25747460  0.25531469  0.61019008  1
  O  O288  1  0.26652273  0.78703412  0.16966253  1
  O  O289  1  0.26295233  0.75916492  0.62337133  1
  O  O290  1  0.75603201  0.25987667  0.12307399  1
  O  O291  1  0.75151979  0.25317560  0.61886161  1
  O  O292  1  0.73835948  0.76508518  0.12840207  1
  O  O293  1  0.74311413  0.75018437  0.60873143  1
  O  O294  1  0.24182190  0.24931360  0.38897538  1
  O  O295  1  0.24524237  0.24946238  0.88045232  1
  O  O296  1  0.25481352  0.73721972  0.36331544  1
  O  O297  1  0.31021572  0.74602007  0.91974710  1
  O  O298  1  0.73956406  0.24325744  0.37322266  1
  O  O299  1  0.73834726  0.24491201  0.88353016  1
  O  O300  1  0.73477302  0.74374858  0.37958795  1
  O  O301  1  0.75021837  0.73397832  0.86958828  1
  O  O302  1  0.01557982  0.13201044  -0.00343070  1
  O  O303  1  -0.02016641  0.12604076  0.51392896  1
  O  O304  1  -0.00357643  0.61138960  -0.01293544  1
  O  O305  1  0.00427819  0.62025659  0.48748020  1
  O  O306  1  0.51166142  0.11763095  -0.00885099  1
  O  O307  1  0.50285641  0.11384406  0.49810958  1
  O  O308  1  0.51323597  0.60938724  -0.01497485  1
  O  O309  1  0.51302932  0.61948553  0.49052923  1
  O  O310  1  0.50680837  0.37374149  0.48471961  1
  O  O311  1  0.49864129  0.38531845  0.99579362  1
  O  O312  1  0.50173890  0.88695410  0.48677517  1
  O  O313  1  0.50374274  0.88864970  0.98586491  1
  O  O314  1  0.98335204  0.36228061  0.48314984  1
  O  O315  1  0.98855863  0.37910475  0.99132424  1
  O  O316  1  1.01466668  0.85699445  0.47722931  1
  O  O317  1  1.02038630  0.85720362  0.99451169  1
  O  O318  1  0.48790601  0.48948139  0.37422391  1
  O  O319  1  0.50690384  0.49163951  0.87580162  1
  O  O320  1  0.48564005  0.99211955  0.37928178  1
  O  O321  1  0.49436310  0.99251030  0.87979012  1
  O  O322  1  0.99812066  0.48889771  0.36717823  1
  O  O323  1  0.99406376  0.49256400  0.88049710  1
  O  O324  1  0.99986680  0.98437088  0.38288468  1
  O  O325  1  0.98869489  0.96977259  0.89577497  1
  O  O326  1  -0.02007477  0.00680301  0.12021836  1
  O  O327  1  0.03303564  -0.00024788  0.64902560  1
  O  O328  1  -0.00150290  0.50453844  0.10925901  1
  O  O329  1  0.01240881  0.44712946  0.61319025  1
  O  O330  1  0.50864372  -0.00510843  0.11524550  1
  O  O331  1  0.48750373  -0.00259078  0.60699715  1
  O  O332  1  0.51296498  0.49588565  0.12798989  1
  O  O333  1  0.51490988  0.48800611  0.62105816  1
  O  O334  1  0.23844556  0.38893678  0.25661694  1
  O  O335  1  0.26291863  0.38409301  0.73493903  1
  O  O336  1  0.23879469  0.90642702  0.25456878  1
  O  O337  1  0.25524776  0.88339676  0.76121141  1
  O  O338  1  0.74480326  0.38372582  0.24763816  1
  O  O339  1  0.74045150  0.37431254  0.74184381  1
  O  O340  1  0.73425191  0.88486336  0.24567172  1
  O  O341  1  0.74207104  0.88481320  0.73886208  1
  O  O342  1  0.26169090  0.13843837  0.26533963  1
  O  O343  1  0.25791997  0.12326186  0.76009694  1
  O  O344  1  0.25186391  0.60906060  0.26359835  1
  O  O345  1  0.26387648  0.60959968  0.74363250  1
  O  O346  1  0.74248029  0.11050477  0.25511453  1
  O  O347  1  0.74638808  0.13075992  0.77093401  1
  O  O348  1  0.75204123  0.62161329  0.25655860  1
  O  O349  1  0.75420929  0.61538172  0.75373475  1
  O  O350  1  0.36368894  0.11752218  0.36682866  1
  O  O351  1  0.36610613  0.11887500  0.86849861  1
  O  O352  1  0.37009461  0.61026656  0.36232821  1
  O  O353  1  0.37979661  0.61345136  0.85762813  1
  O  O354  1  0.86037374  0.13555702  0.37517730  1
  O  O355  1  0.85585747  0.13722777  0.88250655  1
  O  O356  1  0.85995452  0.62550977  0.36650831  1
  O  O357  1  0.86466139  0.61273203  0.86569413  1
  O  O358  1  0.11779867  0.37686660  0.13663048  1
  O  O359  1  0.15378045  0.37107981  0.61951745  1
  O  O360  1  0.13352989  0.87472659  0.14939182  1
  O  O361  1  0.14981857  0.87755559  0.63042162  1
  O  O362  1  0.63165025  0.38323431  0.13061013  1
  O  O363  1  0.63132188  0.37526338  0.63152342  1
  O  O364  1  0.62625642  0.88236423  0.13255490  1
  O  O365  1  0.62283160  0.88791700  0.62283810  1
  O  O366  1  0.11329140  0.26001456  0.25420211  1
  O  O367  1  0.11813539  0.24484923  0.75974450  1
  O  O368  1  0.11576683  0.73353732  0.25294004  1
  O  O369  1  0.13771419  0.73720043  0.75796434  1
  O  O370  1  0.61893228  0.25294870  0.25554310  1
  O  O371  1  0.61523840  0.25811481  0.75990145  1
  O  O372  1  0.62495563  0.75897244  0.26007852  1
  O  O373  1  0.60584722  0.74225558  0.74376343  1
  O  O374  1  0.38021480  0.24430750  0.25120292  1
  O  O375  1  0.38665524  0.24190242  0.76274318  1
  O  O376  1  0.38959244  0.73511906  0.26589449  1
  O  O377  1  0.38007652  0.73589963  0.74464536  1
  O  O378  1  0.88800358  0.25907449  0.24135900  1
  O  O379  1  0.88120753  0.24705411  0.74581694  1
  O  O380  1  0.86677391  0.73860737  0.24972218  1
  O  O381  1  0.86831230  0.73027190  0.74701811  1
  O  O382  1  0.37527191  0.50441432  0.48454686  1
  O  O383  1  0.39672447  0.49172070  1.00209552  1
  O  O384  1  0.38487910  1.00625839  0.48670112  1
  O  O385  1  0.38648816  1.01737664  0.99172042  1
  O  O386  1  0.86046120  0.48463571  0.49699570  1
  O  O387  1  0.88180087  0.49732460  0.99123809  1
  O  O388  1  0.92951250  1.06341253  0.50940082  1
  O  O389  1  0.87464086  1.00330457  0.98559427  1
  O  O390  1  0.12243443  0.01962765  -0.00405975  1
  O  O391  1  0.11565804  -0.00933580  0.51611724  1
  O  O392  1  0.10787265  0.49225870  0.00198009  1
  O  O393  1  0.13518336  0.51486980  0.50151518  1
  O  O394  1  0.61673306  0.00837127  0.00732580  1
  O  O395  1  0.60516943  0.00858818  0.48580460  1
  O  O396  1  0.61336327  0.49972636  0.00528033  1
  O  O397  1  0.62500897  0.50557734  0.50541226  1
  O  O398  1  0.38358077  0.37137248  0.10681321  1
  O  O399  1  0.36325741  0.37752664  0.61398091  1
  O  O400  1  0.36067059  0.89011609  0.10949450  1
  O  O401  1  0.36174460  0.86542601  0.62985177  1
  O  O402  1  0.87069189  0.37495506  0.11653053  1
  O  O403  1  0.85980208  0.36386740  0.62013644  1
  O  O404  1  0.85433508  0.86878583  0.13280737  1
  O  O405  1  0.90216640  0.92802170  0.59116300  1
  O  O406  1  0.13415594  0.13834360  0.37092452  1
  O  O407  1  0.13967157  0.13941445  0.88487703  1
  O  O408  1  0.14045001  0.61878646  0.38522675  1
  O  O409  1  0.12902387  0.65490662  0.86582722  1
  O  O410  1  0.62258250  0.13448955  0.37619774  1
  O  O411  1  0.63408558  0.13205801  0.88480567  1
  O  O412  1  0.62918414  0.63179376  0.37939233  1
  O  O413  1  0.63166794  0.61618557  0.88157709  1
