# generated using pymatgen
data_V79Zn79O256
_symmetry_space_group_name_H-M   'P 1'
_cell_length_a   16.96821566
_cell_length_b   16.96368770
_cell_length_c   16.93892974
_cell_angle_alpha   89.97856919
_cell_angle_beta   89.97694024
_cell_angle_gamma   89.99491911
_symmetry_Int_Tables_number   1
_chemical_formula_structural   V79Zn79O256
_chemical_formula_sum   'V79 Zn79 O256'
_cell_volume   4875.76025976
_cell_formula_units_Z   1
loop_
 _symmetry_equiv_pos_site_id
 _symmetry_equiv_pos_as_xyz
  1  'x, y, z'
loop_
 _atom_site_type_symbol
 _atom_site_label
 _atom_site_symmetry_multiplicity
 _atom_site_fract_x
 _atom_site_fract_y
 _atom_site_fract_z
 _atom_site_occupancy
  V  V0  1  0.37169832  0.75197587  0.12469056  1
  V  V1  1  0.73731248  0.00426474  0.74269572  1
  V  V2  1  0.74781292  0.87423787  0.11235782  1
  V  V3  1  0.89329878  0.49728882  0.37221746  1
  V  V4  1  0.24592113  0.75305483  0.00012992  1
  V  V5  1  0.11324919  0.11019222  0.50857444  1
  V  V6  1  0.48082402  0.34852828  0.92708320  1
  V  V7  1  0.88182308  0.49060484  0.87984616  1
  V  V8  1  0.12877294  0.38251222  0.77468861  1
  V  V9  1  0.25154911  -0.00428353  0.24422965  1
  V  V10  1  0.38536736  0.50358656  0.87659896  1
  V  V11  1  0.90276046  0.11549488  0.70485974  1
  V  V12  1  0.86792641  0.75733526  0.11037976  1
  V  V13  1  0.87160241  0.33423822  0.56608638  1
  V  V14  1  0.12856884  0.87597773  0.23961421  1
  V  V15  1  0.48592523  0.13061017  0.12854666  1
  V  V16  1  0.37716842  0.87212554  0.49551524  1
  V  V17  1  0.25287475  0.01569634  0.74798663  1
  V  V18  1  0.50460977  -0.00319793  0.49891027  1
  V  V19  1  -0.00266393  0.75870244  0.24919650  1
  V  V20  1  0.62631650  0.60046204  0.50108228  1
  V  V21  1  0.37105054  0.87586537  0.00159884  1
  V  V22  1  0.88278864  0.24661376  0.12271135  1
  V  V23  1  0.24943380  0.12368104  0.36894564  1
  V  V24  1  0.87638253  -0.00488443  0.38097794  1
  V  V25  1  0.75733357  0.86557904  0.62280773  1
  V  V26  1  0.62584195  0.87331256  0.24876897  1
  V  V27  1  0.24769795  0.61954142  0.36739156  1
  V  V28  1  0.62623492  0.50146150  0.11553796  1
  V  V29  1  0.23742466  0.36838169  0.62432278  1
  V  V30  1  0.62946594  0.63076887  -0.00184514  1
  V  V31  1  0.75083146  0.62398028  0.37589143  1
  V  V32  1  0.61754753  0.13813561  -0.00267489  1
  V  V33  1  0.75663901  0.74906464  0.50430654  1
  V  V34  1  -0.00154919  0.62372554  0.12231277  1
  V  V35  1  0.11949667  0.62908642  -0.00922695  1
  V  V36  1  0.26370196  0.36703441  0.11568471  1
  V  V37  1  0.63836076  0.26816229  0.84314841  1
  V  V38  1  0.50466224  0.37972203  0.38105744  1
  V  V39  1  0.49851073  0.74426047  0.74589337  1
  V  V40  1  0.37159441  0.24042382  0.62520300  1
  V  V41  1  0.87481707  0.63153908  0.24938532  1
  V  V42  1  0.74924374  0.49723349  0.24954754  1
  V  V43  1  0.24475838  0.87635694  0.62997137  1
  V  V44  1  0.24765739  0.14443380  0.89353439  1
  V  V45  1  0.49512921  0.26997041  0.74269168  1
  V  V46  1  0.10401486  0.25026981  0.36712595  1
  V  V47  1  -0.00287388  0.87559366  0.38582411  1
  V  V48  1  0.74741289  0.01079798  0.25027891  1
  V  V49  1  0.12311176  0.75036434  0.37483654  1
  V  V50  1  0.48475607  0.24790293  0.25052806  1
  V  V51  1  0.61916234  0.87629267  0.73772024  1
  V  V52  1  0.63044979  0.75094039  0.87420665  1
  V  V53  1  0.49738810  0.87383860  0.87436675  1
  V  V54  1  0.03475974  0.86748652  0.87365396  1
  V  V55  1  0.37223069  0.61547621  0.24722403  1
  V  V56  1  0.49846098  0.60770614  0.61871541  1
  V  V57  1  0.38035366  0.74492553  0.62227351  1
  V  V58  1  0.25792035  0.62521235  0.87320225  1
  V  V59  1  0.24875636  0.24540400  0.49453405  1
  V  V60  1  0.50052731  0.61906687  0.11844915  1
  V  V61  1  0.75892805  0.62301388  0.87371710  1
  V  V62  1  0.88925253  0.12883825  0.25274649  1
  V  V63  1  0.62212382  0.00190653  0.12346305  1
  V  V64  1  0.75641927  0.37234405  0.11464216  1
  V  V65  1  0.75367455  0.11817567  0.87323432  1
  V  V66  1  0.49622248  0.00051218  0.00067163  1
  V  V67  1  0.01005470  0.74927367  0.73611548  1
  V  V68  1  0.37419075  0.00427358  0.36889752  1
  V  V69  1  0.50138505  0.74814712  0.25009076  1
  V  V70  1  0.12917798  0.39738346  0.25311054  1
  V  V71  1  0.50263775  0.87185129  0.37212435  1
  V  V72  1  0.49901571  0.11240855  0.63309860  1
  V  V73  1  0.87690333  0.63007341  0.73258941  1
  V  V74  1  0.37292705  0.49907753  0.38429733  1
  V  V75  1  0.24697134  0.74904200  0.49105820  1
  V  V76  1  0.62290813  0.12312042  0.48837341  1
  V  V77  1  0.11893796  0.01524592  0.11948234  1
  V  V78  1  0.01205226  0.24962585  0.75146556  1
  Zn  Zn79  1  0.75386674  0.25497261  -0.00754763  1
  Zn  Zn80  1  0.63454868  0.24521535  0.36736949  1
  Zn  Zn81  1  0.24308437  0.52594866  0.72660099  1
  Zn  Zn82  1  0.62526055  0.74595757  0.37821677  1
  Zn  Zn83  1  0.37577814  0.37840385  0.50363266  1
  Zn  Zn84  1  0.74963913  0.23869470  0.49508319  1
  Zn  Zn85  1  0.37722488  0.00613176  0.86451234  1
  Zn  Zn86  1  0.62348275  0.37180281  0.24761209  1
  Zn  Zn87  1  0.00202945  0.48050645  -0.00098420  1
  Zn  Zn88  1  0.14949755  0.51428670  0.13583810  1
  Zn  Zn89  1  0.90006917  0.94333247  -0.05760213  1
  Zn  Zn90  1  -0.00501255  0.46800654  0.52427474  1
  Zn  Zn91  1  0.94174809  0.93746398  0.56672771  1
  Zn  Zn92  1  0.09352580  0.56803636  0.59129679  1
  Zn  Zn93  1  0.70445960  0.40849863  0.68468830  1
  Zn  Zn94  1  0.19032370  0.19155466  0.18661271  1
  Zn  Zn95  1  0.18081472  0.18641895  0.69164917  1
  Zn  Zn96  1  0.18570658  0.68917542  0.18686954  1
  Zn  Zn97  1  0.19495931  0.69392927  0.67906399  1
  Zn  Zn98  1  0.67826010  0.19173245  0.18600807  1
  Zn  Zn99  1  0.68041155  0.18303320  0.67613208  1
  Zn  Zn100  1  0.68806336  0.68930268  0.18658543  1
  Zn  Zn101  1  0.69192715  0.57490267  0.69054776  1
  Zn  Zn102  1  0.30861739  0.31781518  0.30944572  1
  Zn  Zn103  1  0.31625838  0.31723119  0.81414702  1
  Zn  Zn104  1  0.31447867  0.81239812  0.30750344  1
  Zn  Zn105  1  0.31232370  0.80959905  0.81348111  1
  Zn  Zn106  1  0.81638382  0.31326416  0.31638237  1
  Zn  Zn107  1  0.82749609  0.29797034  0.78893343  1
  Zn  Zn108  1  0.80868541  0.81582664  0.31046311  1
  Zn  Zn109  1  0.81132352  0.80928419  0.80733616  1
  Zn  Zn110  1  0.18112977  0.43236194  0.43700544  1
  Zn  Zn111  1  0.19143474  0.44480330  0.95199310  1
  Zn  Zn112  1  0.18396361  0.93393403  0.43652240  1
  Zn  Zn113  1  0.19404723  0.94807233  0.93737413  1
  Zn  Zn114  1  0.71356791  0.41358630  0.43712144  1
  Zn  Zn115  1  0.68101264  0.43764153  0.84806266  1
  Zn  Zn116  1  0.69105788  0.93540768  0.43520284  1
  Zn  Zn117  1  0.67945600  0.94073744  0.93403224  1
  Zn  Zn118  1  0.30590659  0.06540866  0.05992023  1
  Zn  Zn119  1  0.31025278  0.06000091  0.55808378  1
  Zn  Zn120  1  0.31395802  0.55514652  0.05807398  1
  Zn  Zn121  1  0.29292712  0.56584211  0.56174301  1
  Zn  Zn122  1  0.80498746  0.07210777  0.06051239  1
  Zn  Zn123  1  0.80116487  0.05333241  0.56064309  1
  Zn  Zn124  1  0.81226010  0.56350158  0.05651245  1
  Zn  Zn125  1  0.81758211  0.54080079  0.55760170  1
  Zn  Zn126  1  0.43670074  0.43553645  0.18844965  1
  Zn  Zn127  1  0.41252579  0.43914696  0.69202550  1
  Zn  Zn128  1  0.43834379  0.93744865  0.18556392  1
  Zn  Zn129  1  0.43250072  0.93262356  0.68591176  1
  Zn  Zn130  1  0.93954558  0.43764996  0.19725604  1
  Zn  Zn131  1  0.94362700  0.44384467  0.70262153  1
  Zn  Zn132  1  0.91643146  0.96628973  0.13811940  1
  Zn  Zn133  1  0.92921984  0.94176918  0.75779699  1
  Zn  Zn134  1  0.06392922  0.06065851  0.31314810  1
  Zn  Zn135  1  0.07319792  0.05945649  0.81561654  1
  Zn  Zn136  1  0.05712476  0.57978926  0.41936198  1
  Zn  Zn137  1  0.05771923  0.56271055  0.80775102  1
  Zn  Zn138  1  0.55908376  0.06171477  0.30770961  1
  Zn  Zn139  1  0.56594426  0.06371142  0.81743851  1
  Zn  Zn140  1  0.56121986  0.55906725  0.30961743  1
  Zn  Zn141  1  0.56452347  0.56414832  0.80533752  1
  Zn  Zn142  1  0.43805957  0.18887453  0.43535501  1
  Zn  Zn143  1  0.43124886  0.17816044  0.92919963  1
  Zn  Zn144  1  0.43975810  0.68042129  0.43687166  1
  Zn  Zn145  1  0.43839392  0.68723057  0.93784512  1
  Zn  Zn146  1  0.93002523  0.17982566  0.44656386  1
  Zn  Zn147  1  0.94006263  0.31217936  0.93794717  1
  Zn  Zn148  1  0.94934818  0.69561249  0.55210627  1
  Zn  Zn149  1  0.94241671  0.70270873  0.93059803  1
  Zn  Zn150  1  0.05035504  0.33621296  0.10518401  1
  Zn  Zn151  1  0.05914439  0.29100613  0.56638501  1
  Zn  Zn152  1  0.05744050  0.81868393  0.05833752  1
  Zn  Zn153  1  0.08017565  0.93303474  0.67838551  1
  Zn  Zn154  1  0.55927991  0.31731963  0.07181993  1
  Zn  Zn155  1  0.55855352  0.30275792  0.55882855  1
  Zn  Zn156  1  0.55978907  0.81114688  0.06209426  1
  Zn  Zn157  1  0.57020334  0.80135887  0.55764594  1
  O  O158  1  0.12994999  0.11428805  0.13040461  1
  O  O159  1  0.12750700  0.13230090  0.60681113  1
  O  O160  1  0.11385135  0.62641085  0.12223219  1
  O  O161  1  0.19680098  0.59309728  0.62900340  1
  O  O162  1  0.61447226  0.12051716  0.11574168  1
  O  O163  1  0.60256011  0.12285952  0.60922592  1
  O  O164  1  0.62033473  0.62409736  0.11815263  1
  O  O165  1  0.61250549  0.61222320  0.61028711  1
  O  O166  1  0.37975522  0.38487067  0.37622966  1
  O  O167  1  0.39445855  0.38485150  0.87451774  1
  O  O168  1  0.38120706  0.87949990  0.38038842  1
  O  O169  1  0.38162986  0.87170648  0.88580992  1
  O  O170  1  0.88360315  0.39822933  0.35703128  1
  O  O171  1  0.86687621  0.39043284  0.87155292  1
  O  O172  1  0.88369385  0.88650789  0.36260789  1
  O  O173  1  0.87569059  0.89093243  0.84774284  1
  O  O174  1  0.25671756  0.00398874  0.36946585  1
  O  O175  1  0.25381293  0.00609278  0.85871424  1
  O  O176  1  0.25449506  0.51288965  0.37952959  1
  O  O177  1  0.25008856  0.52162521  0.88322848  1
  O  O178  1  0.76613469  -0.01183744  0.36232679  1
  O  O179  1  0.73710864  0.01013019  0.86360111  1
  O  O180  1  0.75951128  0.50608524  0.36643906  1
  O  O181  1  0.76046099  0.51698564  0.87950478  1
  O  O182  1  0.25941785  0.49103501  0.12922768  1
  O  O183  1  0.26974901  0.46551176  0.62195982  1
  O  O184  1  0.24736452  1.00455162  0.14085079  1
  O  O185  1  0.26292233  0.98314568  0.63057883  1
  O  O186  1  0.74818442  0.49342674  0.12968707  1
  O  O187  1  0.75139877  0.49806567  0.63431469  1
  O  O188  1  0.73969841  0.99401130  0.13252439  1
  O  O189  1  0.74088831  0.98887886  0.63514761  1
  O  O190  1  0.02697355  0.37357931  0.22573881  1
  O  O191  1  0.02559244  0.36980304  0.75315524  1
  O  O192  1  0.00786878  0.86340084  0.25262594  1
  O  O193  1  0.02158339  0.85853656  0.75501077  1
  O  O194  1  0.49979904  0.36430687  0.25850078  1
  O  O195  1  0.50022711  0.36751405  0.73030246  1
  O  O196  1  0.50600050  0.86864929  0.25259133  1
  O  O197  1  0.50241294  0.86754645  0.75306573  1
  O  O198  1  0.50083813  0.13725344  0.24393106  1
  O  O199  1  0.49967765  0.11370388  0.73347078  1
  O  O200  1  0.49206262  0.63012904  0.24247777  1
  O  O201  1  0.50877719  0.63392420  0.72804227  1
  O  O202  1  0.98717678  0.12395186  0.24984525  1
  O  O203  1  1.00021556  0.13499322  0.75442478  1
  O  O204  1  0.98757544  0.64236817  0.23683545  1
  O  O205  1  0.98526032  0.63545007  0.75461152  1
  O  O206  1  0.44115669  0.27522918  -0.01581166  1
  O  O207  1  0.36322798  0.24688327  0.50505715  1
  O  O208  1  0.37074462  0.75505961  0.00795512  1
  O  O209  1  0.37251040  0.75705923  0.49938037  1
  O  O210  1  0.86990133  0.24996321  0.01761011  1
  O  O211  1  0.86334306  0.23792506  0.52164132  1
  O  O212  1  0.87450832  0.75164844  0.01246644  1
  O  O213  1  0.85611578  0.73840252  0.50271088  1
  O  O214  1  0.13172194  0.24193035  0.48733314  1
  O  O215  1  0.07244941  0.20948799  0.98466003  1
  O  O216  1  0.14242466  0.76170841  0.48185449  1
  O  O217  1  0.13663122  0.74221348  1.01278567  1
  O  O218  1  0.61212072  0.22828978  0.48747792  1
  O  O219  1  0.62601685  0.24195022  1.00779519  1
  O  O220  1  0.63745678  0.73335826  0.49608511  1
  O  O221  1  0.61553695  0.74268961  0.98629175  1
  O  O222  1  0.50252311  0.24549376  0.14199007  1
  O  O223  1  0.49152238  0.23594056  0.63032077  1
  O  O224  1  0.49261350  0.73965237  0.12995368  1
  O  O225  1  0.49488631  0.74409893  0.62649731  1
  O  O226  1  0.98072577  0.24664233  0.12944662  1
  O  O227  1  0.98986862  0.25152712  0.65254415  1
  O  O228  1  0.98519959  0.74964774  0.12886660  1
  O  O229  1  0.98637521  0.76085821  0.63903981  1
  O  O230  1  0.00610564  0.24518373  0.38236976  1
  O  O231  1  -0.05609261  0.26495475  0.83156931  1
  O  O232  1  0.01104129  0.75764268  0.36422075  1
  O  O233  1  0.00096002  0.76319328  0.85762644  1
  O  O234  1  0.49906977  0.26060174  0.36558978  1
  O  O235  1  0.50299625  0.25511937  0.84936623  1
  O  O236  1  0.50061260  0.75374431  0.36816498  1
  O  O237  1  0.50305430  0.75130007  0.86456732  1
  O  O238  1  0.24303611  0.12864737  0.49004172  1
  O  O239  1  0.24472234  0.13072320  0.99408454  1
  O  O240  1  0.25891685  0.64124097  0.47931071  1
  O  O241  1  0.23850700  0.63403285  0.99548917  1
  O  O242  1  0.72644988  0.12091493  0.50791565  1
  O  O243  1  0.73280109  0.12315692  0.98722858  1
  O  O244  1  0.74099763  0.62348888  0.49303581  1
  O  O245  1  0.73835313  0.62957418  0.99055354  1
  O  O246  1  0.25121606  0.37550763  0.01433881  1
  O  O247  1  0.24946568  0.35986087  0.50510182  1
  O  O248  1  0.26366894  0.86700892  -0.00423658  1
  O  O249  1  0.26318209  0.86914695  0.49928275  1
  O  O250  1  0.75518655  0.37632178  0.01582207  1
  O  O251  1  0.80313645  0.39027626  0.51807064  1
  O  O252  1  0.74114439  0.88294465  0.01270237  1
  O  O253  1  0.73942820  0.86632223  0.51327500  1
  O  O254  1  0.12860757  0.49543508  0.25992434  1
  O  O255  1  0.13421888  0.48731243  0.75916020  1
  O  O256  1  0.13446004  0.99303433  0.24643118  1
  O  O257  1  0.14865814  0.99914874  0.74214365  1
  O  O258  1  0.63662553  0.50524306  0.23758670  1
  O  O259  1  0.63630382  0.49375753  0.75575706  1
  O  O260  1  0.62731533  0.99235695  0.24414597  1
  O  O261  1  0.62443897  0.98472842  0.75508975  1
  O  O262  1  0.36782649  -0.01081128  0.26126945  1
  O  O263  1  0.35808424  -0.01393484  0.74992518  1
  O  O264  1  0.37903811  0.51299829  0.25864038  1
  O  O265  1  0.34893885  0.49177966  0.76969240  1
  O  O266  1  0.86426410  0.01661796  0.24209993  1
  O  O267  1  0.85055925  0.03200386  0.74469980  1
  O  O268  1  0.86602331  0.51351668  0.24803165  1
  O  O269  1  0.88005964  0.52140106  0.77004727  1
  O  O270  1  0.12568789  0.35878475  0.36322518  1
  O  O271  1  0.13805168  0.37747294  0.87253326  1
  O  O272  1  0.11612313  0.87066075  0.36413646  1
  O  O273  1  0.13379034  0.86671765  0.87982643  1
  O  O274  1  0.60731645  0.38590402  0.37354904  1
  O  O275  1  0.59877202  0.35738765  0.88644977  1
  O  O276  1  0.61933625  0.87239855  0.36675114  1
  O  O277  1  0.61612210  0.86662170  0.86902343  1
  O  O278  1  0.38761535  0.12259001  0.11932187  1
  O  O279  1  0.38625960  0.13127362  0.61355625  1
  O  O280  1  0.38336381  0.63009220  0.12858327  1
  O  O281  1  0.38736642  0.63652583  0.60804009  1
  O  O282  1  0.86146819  0.13983067  0.14011100  1
  O  O283  1  0.89187650  0.10593025  0.60550358  1
  O  O284  1  0.87392368  0.63972709  0.12933314  1
  O  O285  1  0.87251396  0.62335306  0.63188781  1
  O  O286  1  0.24666844  0.26612652  0.12892327  1
  O  O287  1  0.25382066  0.25029581  0.61584428  1
  O  O288  1  0.26427980  0.74277116  0.11691074  1
  O  O289  1  0.26283264  0.75817264  0.60979839  1
  O  O290  1  0.74814399  0.26494216  0.12614175  1
  O  O291  1  0.71883005  0.26968361  0.60737142  1
  O  O292  1  0.75961703  0.75815596  0.12765202  1
  O  O293  1  0.74562106  0.76358834  0.62023574  1
  O  O294  1  0.24982898  0.23943416  0.38125583  1
  O  O295  1  0.25965283  0.24360160  0.87655019  1
  O  O296  1  0.24562022  0.74688439  0.37396055  1
  O  O297  1  0.25953527  0.74024086  0.89129930  1
  O  O298  1  0.73588421  0.29809426  0.39801314  1
  O  O299  1  0.74187169  0.23411320  0.87582341  1
  O  O300  1  0.74935441  0.73879760  0.37946722  1
  O  O301  1  0.73611501  0.74326307  0.86890034  1
  O  O302  1  0.03895434  0.14566314  -0.00981657  1
  O  O303  1  0.01445587  0.12162979  0.49496209  1
  O  O304  1  0.01251550  0.64209182  0.00564066  1
  O  O305  1  0.03311923  0.63506859  0.51594922  1
  O  O306  1  0.50304178  0.12045692  0.00599062  1
  O  O307  1  0.50303336  0.11204613  0.50014377  1
  O  O308  1  0.50882629  0.62928772  0.01170545  1
  O  O309  1  0.51452672  0.62098222  0.50531962  1
  O  O310  1  0.49523048  0.36622097  0.48554323  1
  O  O311  1  0.51252692  0.40306364  1.00434461  1
  O  O312  1  0.49546424  0.87744031  0.49427214  1
  O  O313  1  0.49249123  0.87921800  0.99464514  1
  O  O314  1  0.96757323  0.35687763  0.53021491  1
  O  O315  1  1.00855761  0.36816630  1.00587428  1
  O  O316  1  0.99524535  0.87555559  0.48551788  1
  O  O317  1  0.99984371  0.86822626  0.97430776  1
  O  O318  1  0.48884849  0.48766716  0.36822835  1
  O  O319  1  0.48455828  0.51432322  0.86589427  1
  O  O320  1  0.49125701  0.99274547  0.37867759  1
  O  O321  1  0.49656988  0.99323212  0.88234708  1
  O  O322  1  0.98902440  0.51631400  0.35051376  1
  O  O323  1  0.98741332  0.50356268  0.87935410  1
  O  O324  1  0.98555113  0.98945576  0.36443687  1
  O  O325  1  1.00867691  0.97327019  0.85550557  1
  O  O326  1  0.02165572  -0.00055472  0.13667773  1
  O  O327  1  -0.01785806  -0.01631802  0.66040018  1
  O  O328  1  -0.01338951  0.52078979  0.11906774  1
  O  O329  1  0.00404029  0.50598903  0.63165013  1
  O  O330  1  0.50363015  0.00908932  0.12217447  1
  O  O331  1  0.48812546  0.00565001  0.61207120  1
  O  O332  1  0.51171345  0.51216396  0.13599185  1
  O  O333  1  0.48110400  0.51137855  0.62828136  1
  O  O334  1  0.23431331  0.37172617  0.24620853  1
  O  O335  1  0.23555572  0.35924742  0.73639255  1
  O  O336  1  0.24037108  0.88394714  0.25723942  1
  O  O337  1  0.25156926  0.86201173  0.73092617  1
  O  O338  1  0.74717263  0.38938849  0.24698370  1
  O  O339  1  0.71758334  0.34327991  0.78283889  1
  O  O340  1  0.74162342  0.88281663  0.23928966  1
  O  O341  1  0.73818992  0.87988592  0.73874632  1
  O  O342  1  0.24616574  0.11431069  0.26398039  1
  O  O343  1  0.25892390  0.11559582  0.73786172  1
  O  O344  1  0.26234413  0.63455837  0.25659143  1
  O  O345  1  0.24594656  0.63885235  0.77325154  1
  O  O346  1  0.73779281  0.11165822  0.24895977  1
  O  O347  1  0.71970057  0.11450681  0.76077466  1
  O  O348  1  0.75437871  0.62004482  0.25446346  1
  O  O349  1  0.76365300  0.62971380  0.76486666  1
  O  O350  1  0.36635448  0.11082058  0.38249180  1
  O  O351  1  0.35721490  0.11861515  0.87659147  1
  O  O352  1  0.37012442  0.61881166  0.36584230  1
  O  O353  1  0.36518587  0.62110454  0.87711937  1
  O  O354  1  0.87703777  0.10847901  0.36418379  1
  O  O355  1  0.84876985  0.12145628  0.87939482  1
  O  O356  1  0.86298548  0.61838585  0.35957528  1
  O  O357  1  0.86123321  0.63162485  0.88428762  1
  O  O358  1  0.14335070  0.39229608  0.13597413  1
  O  O359  1  0.13690355  0.36560539  0.61871351  1
  O  O360  1  0.12293375  0.87562038  0.13741220  1
  O  O361  1  0.14735876  0.87121345  0.61075525  1
  O  O362  1  0.63808803  0.38606043  0.12747838  1
  O  O363  1  0.65991227  0.33563516  0.60492113  1
  O  O364  1  0.62745852  0.87941370  0.12886955  1
  O  O365  1  0.62384888  0.86985951  0.63428554  1
  O  O366  1  0.11996408  0.23722272  0.26826787  1
  O  O367  1  0.11653162  0.25542262  0.75967844  1
  O  O368  1  0.11967359  0.75813241  0.25377957  1
  O  O369  1  0.10804386  0.72816605  0.73706055  1
  O  O370  1  0.61443317  0.25459319  0.25574217  1
  O  O371  1  0.60323950  0.24184450  0.74236643  1
  O  O372  1  0.61859712  0.75474374  0.25192737  1
  O  O373  1  0.60991723  0.76021558  0.75952287  1
  O  O374  1  0.38602308  0.24882248  0.25721877  1
  O  O375  1  0.38709059  0.25292788  0.73916141  1
  O  O376  1  0.38144918  0.74301963  0.24136245  1
  O  O377  1  0.38754076  0.75476149  0.73563547  1
  O  O378  1  0.86461450  0.23318317  0.25171878  1
  O  O379  1  0.84707999  0.19592331  0.72532913  1
  O  O380  1  0.87909741  0.74579904  0.24630207  1
  O  O381  1  0.87893375  0.73372451  0.75119744  1
  O  O382  1  0.36775696  0.50190481  0.48788991  1
  O  O383  1  0.37350251  0.50335875  0.97743551  1
  O  O384  1  0.38229278  0.98880290  0.48939592  1
  O  O385  1  0.37848559  0.98772239  1.00441216  1
  O  O386  1  0.89409819  0.51453787  0.47682650  1
  O  O387  1  0.87990271  0.50637074  0.98553199  1
  O  O388  1  0.87078683  0.99529210  0.48338845  1
  O  O389  1  0.88392110  1.00068263  1.03231340  1
  O  O390  1  0.13613609  -0.00612901  0.02166738  1
  O  O391  1  0.12890378  0.01001590  0.49849724  1
  O  O392  1  0.11889464  0.52177776  0.00644946  1
  O  O393  1  0.10246028  0.49377854  0.48718039  1
  O  O394  1  0.61373162  0.01046260  0.00374225  1
  O  O395  1  0.61114165  0.00387035  0.49097316  1
  O  O396  1  0.62966654  0.51653015  0.01361875  1
  O  O397  1  0.63864333  0.50316105  0.49144380  1
  O  O398  1  0.36514780  0.37431403  0.13156587  1
  O  O399  1  0.36795580  0.35371649  0.62065551  1
  O  O400  1  0.38419679  0.86157941  0.11590164  1
  O  O401  1  0.37377099  0.86309419  0.60994459  1
  O  O402  1  0.86260940  0.36170967  0.14120134  1
  O  O403  1  0.86554377  0.35974036  0.66815788  1
  O  O404  1  0.86380960  0.86222381  0.13029697  1
  O  O405  1  0.85580222  0.87784227  0.62589152  1
  O  O406  1  0.13101723  0.13087363  0.38351916  1
  O  O407  1  0.15103168  0.12496651  0.86355874  1
  O  O408  1  0.13730281  0.64149750  0.36332138  1
  O  O409  1  0.12807387  0.62740515  0.88844412  1
  O  O410  1  0.62174312  0.11989854  0.38407188  1
  O  O411  1  0.61839508  0.14413739  0.88295749  1
  O  O412  1  0.63353485  0.61957340  0.38217130  1
  O  O413  1  0.63319723  0.63144089  0.87907810  1
