# generated using pymatgen
data_V79Zn79O256
_symmetry_space_group_name_H-M   'P 1'
_cell_length_a   16.93211143
_cell_length_b   16.93692491
_cell_length_c   16.88525418
_cell_angle_alpha   90.15131157
_cell_angle_beta   90.26800922
_cell_angle_gamma   89.94136451
_symmetry_Int_Tables_number   1
_chemical_formula_structural   V79Zn79O256
_chemical_formula_sum   'V79 Zn79 O256'
_cell_volume   4842.24539423
_cell_formula_units_Z   1
loop_
 _symmetry_equiv_pos_site_id
 _symmetry_equiv_pos_as_xyz
  1  'x, y, z'
loop_
 _atom_site_type_symbol
 _atom_site_label
 _atom_site_symmetry_multiplicity
 _atom_site_fract_x
 _atom_site_fract_y
 _atom_site_fract_z
 _atom_site_occupancy
  V  V0  1  0.73179084  0.12635217  0.87439567  1
  V  V1  1  0.50712366  0.12698151  0.12556248  1
  V  V2  1  0.47933086  0.74264099  0.25628850  1
  V  V3  1  0.62278278  0.87965791  0.75045362  1
  V  V4  1  0.87250023  0.50098874  0.36168522  1
  V  V5  1  0.00282337  0.24391271  0.24581569  1
  V  V6  1  0.37200139  0.00052631  0.87336766  1
  V  V7  1  0.74809579  0.62086653  0.35065635  1
  V  V8  1  0.37238166  0.25661669  0.62634738  1
  V  V9  1  -0.00317063  0.75079210  0.74445811  1
  V  V10  1  0.25771124  0.74849786  0.00466959  1
  V  V11  1  0.87399692  0.37552714  -0.00497731  1
  V  V12  1  0.48370878  0.62903089  0.12894629  1
  V  V13  1  0.88141238  0.37326438  0.49717605  1
  V  V14  1  0.25632217  0.62191045  0.86618746  1
  V  V15  1  0.50256569  0.87863349  0.38223532  1
  V  V16  1  0.74817791  0.24971465  0.50093790  1
  V  V17  1  0.24962711  0.48549698  0.74547777  1
  V  V18  1  0.13491931  0.00542952  0.61007403  1
  V  V19  1  0.88742766  0.12331204  0.75412026  1
  V  V20  1  0.25067768  0.22941251  0.49314217  1
  V  V21  1  0.12527336  0.10936639  0.01639695  1
  V  V22  1  0.12285082  0.49670407  0.62629353  1
  V  V23  1  0.86340865  0.87925362  -0.00676769  1
  V  V24  1  0.75319420  0.38298941  0.12967576  1
  V  V25  1  0.38111442  0.12845227  0.75041518  1
  V  V26  1  0.37118978  0.12416392  0.24972031  1
  V  V27  1  0.24346380  0.12778765  0.86892370  1
  V  V28  1  0.63427695  0.63121818  -0.00876240  1
  V  V29  1  0.62504088  0.25421794  0.37169680  1
  V  V30  1  0.37696120  0.51488986  0.37467365  1
  V  V31  1  0.62220127  0.11670369  0.49892234  1
  V  V32  1  0.12750648  0.23747194  0.37593489  1
  V  V33  1  0.87997148  0.87863385  0.50216951  1
  V  V34  1  0.62672994  0.38463811  0.24968150  1
  V  V35  1  0.52069833  0.62469759  0.62532956  1
  V  V36  1  0.14201202  0.88544903  0.74955007  1
  V  V37  1  0.24451646  0.87656863  0.12551052  1
  V  V38  1  0.25325826  0.36912787  0.12635033  1
  V  V39  1  0.37641740  0.36843609  0.00336829  1
  V  V40  1  0.24606194  0.24652999  0.00371381  1
  V  V41  1  0.49823215  0.12399666  0.61866388  1
  V  V42  1  0.26102931  0.50892023  0.24755138  1
  V  V43  1  0.37225772  0.88044565  0.51178090  1
  V  V44  1  0.12845010  0.86540283  0.26121695  1
  V  V45  1  0.62670460  0.74250860  0.37407176  1
  V  V46  1  0.35905907  0.38347626  0.50210610  1
  V  V47  1  0.24478222  0.00046311  0.24985261  1
  V  V48  1  0.74785734  0.88317407  0.61753843  1
  V  V49  1  0.49981219  0.74662201  0.75641153  1
  V  V50  1  -0.00250300  0.50915714  0.50108951  1
  V  V51  1  0.37450496  0.00330374  0.37692344  1
  V  V52  1  0.51262513  0.50325692  0.50723653  1
  V  V53  1  0.73897653  0.50264129  0.75633423  1
  V  V54  1  0.12530296  0.38101084  0.25587248  1
  V  V55  1  -0.00111871  0.62807209  0.12545356  1
  V  V56  1  0.37767913  0.49925144  0.86818151  1
  V  V57  1  0.24154263  0.74326477  0.49843926  1
  V  V58  1  0.74344592  0.37683995  0.62391146  1
  V  V59  1  0.36776620  0.73775848  0.62962977  1
  V  V60  1  0.37453556  0.87534226  0.00958927  1
  V  V61  1  0.87893123  0.23802771  0.12661740  1
  V  V62  1  0.10518949  0.36278187  0.76087136  1
  V  V63  1  0.63066816  0.51439294  0.13100704  1
  V  V64  1  0.48964364  0.25379560  0.24621121  1
  V  V65  1  0.50552028  0.36177511  0.87288444  1
  V  V66  1  0.74995807  0.73825271  0.51293502  1
  V  V67  1  0.87572178  0.62189714  0.75037326  1
  V  V68  1  0.50885792  0.00386855  0.00574152  1
  V  V69  1  0.62212426  0.35820057  0.74944949  1
  V  V70  1  0.86857607  0.74974122  0.11446085  1
  V  V71  1  0.12615135  0.74946376  0.87319251  1
  V  V72  1  0.49932599  0.37944643  0.37881811  1
  V  V73  1  0.12595199  0.62352505  -0.00072939  1
  V  V74  1  -0.00142906  0.75100519  0.25867870  1
  V  V75  1  0.75217049  0.12421652  0.35651706  1
  V  V76  1  -0.00032626  0.88671453  0.88235683  1
  V  V77  1  0.88442722  0.00593068  0.37025920  1
  V  V78  1  -0.00134211  0.49902519  -0.00858386  1
  Zn  Zn79  1  0.68517872  0.77669318  0.91253532  1
  Zn  Zn80  1  0.50453573  0.87353636  0.87969812  1
  Zn  Zn81  1  0.00206204  0.63446148  0.61946120  1
  Zn  Zn82  1  0.61631641  -0.00145925  0.61856401  1
  Zn  Zn83  1  0.22689950  0.63649768  0.36968488  1
  Zn  Zn84  1  -0.04063468  0.05214892  0.06181833  1
  Zn  Zn85  1  0.67892800  0.92542771  0.20194693  1
  Zn  Zn86  1  0.75858409  0.00024760  0.75365105  1
  Zn  Zn87  1  0.50107955  0.50295580  -0.00080309  1
  Zn  Zn88  1  0.12717354  0.49496663  0.12103122  1
  Zn  Zn89  1  0.73021718  0.25007879  -0.01159893  1
  Zn  Zn90  1  0.00282622  0.11400719  0.61026517  1
  Zn  Zn91  1  0.89356814  0.24990866  0.63272184  1
  Zn  Zn92  1  0.87172466  0.50212613  0.87381128  1
  Zn  Zn93  1  0.01018203  0.88629092  0.38483198  1
  Zn  Zn94  1  0.19042139  0.18878707  0.18760299  1
  Zn  Zn95  1  0.18686847  0.19002207  0.68221198  1
  Zn  Zn96  1  0.18738156  0.68943519  0.18524886  1
  Zn  Zn97  1  0.18321231  0.68351724  0.68384438  1
  Zn  Zn98  1  0.67733306  0.20390512  0.16595152  1
  Zn  Zn99  1  0.69260853  0.18394609  0.68624967  1
  Zn  Zn100  1  0.66532409  0.73085703  0.16828107  1
  Zn  Zn101  1  0.70172653  0.70432758  0.72013369  1
  Zn  Zn102  1  0.31162599  0.31992801  0.31913015  1
  Zn  Zn103  1  0.31065905  0.30938213  0.81581605  1
  Zn  Zn104  1  0.31255246  0.81477399  0.32039315  1
  Zn  Zn105  1  0.31984285  0.81055472  0.81804561  1
  Zn  Zn106  1  0.81385051  0.31278024  0.31019995  1
  Zn  Zn107  1  0.81255872  0.30347443  0.81173552  1
  Zn  Zn108  1  0.82012083  0.81010471  0.31023922  1
  Zn  Zn109  1  0.81774572  0.81947733  0.80565141  1
  Zn  Zn110  1  0.17271264  0.47059595  0.42243088  1
  Zn  Zn111  1  0.18706286  0.43343012  0.93406987  1
  Zn  Zn112  1  0.19640236  0.93568644  0.43839037  1
  Zn  Zn113  1  0.19026745  0.93869293  0.93372590  1
  Zn  Zn114  1  0.69156403  0.44174450  0.43526624  1
  Zn  Zn115  1  0.68465432  0.44304413  0.94159170  1
  Zn  Zn116  1  0.70883375  0.91740321  0.39816402  1
  Zn  Zn117  1  0.68733627  0.94758533  0.93176630  1
  Zn  Zn118  1  0.31742516  0.06093814  0.06694006  1
  Zn  Zn119  1  0.30949700  0.05851149  0.57057479  1
  Zn  Zn120  1  0.31149570  0.55448055  0.05628235  1
  Zn  Zn121  1  0.31231998  0.56182378  0.56478409  1
  Zn  Zn122  1  0.75646680  0.05324075  0.05943448  1
  Zn  Zn123  1  0.81652637  0.06310800  0.56260171  1
  Zn  Zn124  1  0.81201558  0.56515688  0.06309829  1
  Zn  Zn125  1  0.81699858  0.55843250  0.57513701  1
  Zn  Zn126  1  0.43966662  0.44365310  0.18646391  1
  Zn  Zn127  1  0.44043785  0.43771303  0.68609886  1
  Zn  Zn128  1  0.48369379  0.94986115  0.20943388  1
  Zn  Zn129  1  0.43724168  0.94006856  0.69088780  1
  Zn  Zn130  1  0.94690933  0.43690552  0.17976452  1
  Zn  Zn131  1  0.93312978  0.43544131  0.68636982  1
  Zn  Zn132  1  0.86419836  0.95933296  0.16703649  1
  Zn  Zn133  1  0.94551012  0.94259346  0.68636606  1
  Zn  Zn134  1  0.02830502  0.02946103  0.24486401  1
  Zn  Zn135  1  0.06495951  0.06489383  0.81200841  1
  Zn  Zn136  1  0.05762941  0.56526405  0.31297607  1
  Zn  Zn137  1  0.06521428  0.56018661  0.80922215  1
  Zn  Zn138  1  0.56989067  0.06592954  0.31166973  1
  Zn  Zn139  1  0.55685670  0.06403664  0.81159357  1
  Zn  Zn140  1  0.56085827  0.56738846  0.31682536  1
  Zn  Zn141  1  0.55966040  0.55876341  0.81001049  1
  Zn  Zn142  1  0.43741791  0.19164213  0.43614313  1
  Zn  Zn143  1  0.43654060  0.18607289  0.94029592  1
  Zn  Zn144  1  0.43779197  0.68949922  0.44951118  1
  Zn  Zn145  1  0.44024639  0.68367993  0.94106324  1
  Zn  Zn146  1  0.93989014  0.19218537  0.42751098  1
  Zn  Zn147  1  0.94525695  0.17923257  0.91596700  1
  Zn  Zn148  1  0.92468648  0.68625703  0.43744486  1
  Zn  Zn149  1  0.93548089  0.68857188  0.93224040  1
  Zn  Zn150  1  0.03834407  0.28450292  0.02346458  1
  Zn  Zn151  1  0.07393472  0.31349284  0.56498718  1
  Zn  Zn152  1  0.05944409  0.81715928  0.06667909  1
  Zn  Zn153  1  0.06769003  0.82536977  0.56766689  1
  Zn  Zn154  1  0.56238686  0.31631183  0.06238938  1
  Zn  Zn155  1  0.55719692  0.31097869  0.56240443  1
  Zn  Zn156  1  0.55877588  0.81495343  0.06531400  1
  Zn  Zn157  1  0.56484209  0.80631767  0.56193601  1
  O  O158  1  0.12993184  0.12070139  0.11671162  1
  O  O159  1  0.12768257  0.10994615  0.62922200  1
  O  O160  1  0.12034161  0.62697915  0.10992869  1
  O  O161  1  0.11717908  0.60557672  0.63199978  1
  O  O162  1  0.60467731  0.11443669  0.13864596  1
  O  O163  1  0.61494105  0.12896189  0.61658116  1
  O  O164  1  0.61967133  0.62521129  0.12057255  1
  O  O165  1  0.61711243  0.63345708  0.63232939  1
  O  O166  1  0.38319570  0.38635921  0.38471406  1
  O  O167  1  0.38609082  0.37834690  0.87943458  1
  O  O168  1  0.38254435  0.88116809  0.38744479  1
  O  O169  1  0.37777779  0.88545272  0.88516632  1
  O  O170  1  0.85970838  0.38981935  0.38819017  1
  O  O171  1  0.86354097  0.37398576  0.89339523  1
  O  O172  1  0.88020430  0.88566431  0.38678586  1
  O  O173  1  0.89125120  0.86905571  0.88079245  1
  O  O174  1  0.26487186  -0.00880496  0.36275091  1
  O  O175  1  0.26360980  0.01525079  0.88341925  1
  O  O176  1  0.26704461  0.49744996  0.36160662  1
  O  O177  1  0.25739872  0.50404040  0.86761249  1
  O  O178  1  0.74723956  0.02449829  0.38074857  1
  O  O179  1  0.74838855  0.01776907  0.87092725  1
  O  O180  1  0.75835140  0.51145633  0.37541928  1
  O  O181  1  0.74957616  0.49420542  0.86008449  1
  O  O182  1  0.25079945  0.49285992  0.13199587  1
  O  O183  1  0.24170551  0.50633079  0.63754447  1
  O  O184  1  0.25913052  0.98683732  0.13821476  1
  O  O185  1  0.23699181  0.99837539  0.62999267  1
  O  O186  1  0.74082229  0.49687404  0.12662848  1
  O  O187  1  0.75254298  0.48219044  0.63469984  1
  O  O188  1  0.75670805  0.98276723  0.13878946  1
  O  O189  1  0.74130046  0.99122431  0.62027070  1
  O  O190  1  0.02235116  0.37044129  0.23926960  1
  O  O191  1  0.00441693  0.37294944  0.74954843  1
  O  O192  1  0.01491037  0.85959313  0.25785404  1
  O  O193  1  0.00708874  0.86385087  0.76215298  1
  O  O194  1  0.50389027  0.37136699  0.25437169  1
  O  O195  1  0.51178724  0.37713719  0.76012124  1
  O  O196  1  0.48699445  0.85317443  0.27194621  1
  O  O197  1  0.50438201  0.86721634  0.75279204  1
  O  O198  1  0.49275755  0.13469981  0.24525068  1
  O  O199  1  0.48736159  0.12973488  0.74178891  1
  O  O200  1  0.49816299  0.63160541  0.24195154  1
  O  O201  1  0.50436290  0.63830048  0.74189664  1
  O  O202  1  1.01353363  0.14602583  0.24087161  1
  O  O203  1  0.99053175  0.12604505  0.75401961  1
  O  O204  1  1.01078848  0.63661807  0.23688671  1
  O  O205  1  0.99940685  0.63867694  0.75267843  1
  O  O206  1  0.36778001  0.26202675  -0.00258095  1
  O  O207  1  0.36161001  0.26062053  0.49817596  1
  O  O208  1  0.36490008  0.75992746  -0.01131690  1
  O  O209  1  0.36841050  0.75616379  0.51620948  1
  O  O210  1  0.87247750  0.26881440  0.01848679  1
  O  O211  1  0.86259935  0.26469377  0.48824507  1
  O  O212  1  0.88035025  0.75586872  0.00588627  1
  O  O213  1  0.85875529  0.76450088  0.49269030  1
  O  O214  1  0.14370996  0.25947860  0.48729438  1
  O  O215  1  0.14225336  0.23463622  1.00734306  1
  O  O216  1  0.14406236  0.76010879  0.51352799  1
  O  O217  1  0.13394490  0.74311940  0.99065923  1
  O  O218  1  0.63222902  0.25022340  0.49115201  1
  O  O219  1  0.64447370  0.24420171  1.05737730  1
  O  O220  1  0.64184705  0.75077792  0.49090773  1
  O  O221  1  0.61964163  0.73830644  0.99677902  1
  O  O222  1  0.49832062  0.23986755  0.13579672  1
  O  O223  1  0.48198837  0.24060881  0.61726167  1
  O  O224  1  0.49525265  0.73918822  0.14361530  1
  O  O225  1  0.49200425  0.73844087  0.62882689  1
  O  O226  1  0.98875953  0.25910646  0.13037465  1
  O  O227  1  1.00318826  0.23500373  0.60197315  1
  O  O228  1  0.99653807  0.74345033  0.12984362  1
  O  O229  1  1.01343589  0.75252921  0.64198772  1
  O  O230  1  0.01454186  0.25519282  0.35711104  1
  O  O231  1  0.00487925  0.26840364  0.91643401  1
  O  O232  1  -0.00955336  0.74129309  0.35946545  1
  O  O233  1  0.01381510  0.75330786  0.86764875  1
  O  O234  1  0.50580908  0.25942427  0.36770643  1
  O  O235  1  0.49775185  0.26305816  0.87893135  1
  O  O236  1  0.50340441  0.74597730  0.37275330  1
  O  O237  1  0.49092636  0.74941129  0.85964984  1
  O  O238  1  0.25771158  0.13147017  0.49098410  1
  O  O239  1  0.24828497  0.12859951  0.99794199  1
  O  O240  1  0.25328679  0.63985851  0.50238477  1
  O  O241  1  0.24427805  0.62920269  0.99226924  1
  O  O242  1  0.74189475  0.13926537  0.49936484  1
  O  O243  1  0.75414853  0.12819911  0.98274160  1
  O  O244  1  0.76021487  0.63848922  0.51524702  1
  O  O245  1  0.73434079  0.62275424  1.00010755  1
  O  O246  1  0.25558869  0.36713893  0.00459945  1
  O  O247  1  0.26075623  0.39205024  0.49481846  1
  O  O248  1  0.25362140  0.86765652  0.00460313  1
  O  O249  1  0.26779462  0.86091642  0.49780381  1
  O  O250  1  0.75658396  0.37778880  0.01176510  1
  O  O251  1  0.75085719  0.36964409  0.50617185  1
  O  O252  1  0.76280810  0.86620779  -0.02707707  1
  O  O253  1  0.75629409  0.86882305  0.50175250  1
  O  O254  1  0.13426180  0.48906617  0.24474741  1
  O  O255  1  0.13048735  0.48908852  0.74699267  1
  O  O256  1  0.13825222  0.98542547  0.25200974  1
  O  O257  1  0.13166877  0.98522896  0.76309533  1
  O  O258  1  0.61658986  0.49345656  0.24503882  1
  O  O259  1  0.63559251  0.49330034  0.75044143  1
  O  O260  1  0.58916608  0.98186299  0.24459834  1
  O  O261  1  0.61631039  0.98683757  0.74535945  1
  O  O262  1  0.37426092  0.00563361  0.25973168  1
  O  O263  1  0.38023267  0.01158897  0.76264435  1
  O  O264  1  0.37138515  0.50020085  0.25905884  1
  O  O265  1  0.36677103  0.49107056  0.75987316  1
  O  O266  1  0.85564174  -0.00806371  0.27703414  1
  O  O267  1  0.87448387  0.01452879  0.73963797  1
  O  O268  1  0.88386222  0.49000464  0.26403916  1
  O  O269  1  0.86474677  0.50174625  0.75302639  1
  O  O270  1  0.13379668  0.37590741  0.35808236  1
  O  O271  1  0.12424639  0.37607502  0.86120910  1
  O  O272  1  0.12675437  0.87461875  0.36692545  1
  O  O273  1  0.11884425  0.86705563  0.87175107  1
  O  O274  1  0.62022805  0.37482409  0.36737878  1
  O  O275  1  0.61317098  0.37809393  0.86954413  1
  O  O276  1  0.60420853  0.86278671  0.39088945  1
  O  O277  1  0.62406075  0.87287479  0.86553829  1
  O  O278  1  0.38443949  0.12161402  0.14248236  1
  O  O279  1  0.37813380  0.13155428  0.63086396  1
  O  O280  1  0.38556735  0.61934137  0.11852730  1
  O  O281  1  0.37978626  0.63686721  0.62925351  1
  O  O282  1  0.87482334  0.14043493  0.11433992  1
  O  O283  1  0.87999728  0.12798264  0.63146945  1
  O  O284  1  0.89089211  0.63438448  0.11368103  1
  O  O285  1  0.88549544  0.62152438  0.64294388  1
  O  O286  1  0.25606204  0.25922964  0.11962849  1
  O  O287  1  0.25979752  0.24417567  0.60433849  1
  O  O288  1  0.24902067  0.75543826  0.11135941  1
  O  O289  1  0.26286178  0.74540597  0.62427715  1
  O  O290  1  0.77436818  0.26666130  0.14154278  1
  O  O291  1  0.74801658  0.26042112  0.61379720  1
  O  O292  1  0.77287679  0.73394691  0.12949683  1
  O  O293  1  0.74448932  0.76387750  0.61708109  1
  O  O294  1  0.24341447  0.25273217  0.38344261  1
  O  O295  1  0.25792363  0.23450463  0.88806774  1
  O  O296  1  0.25278043  0.74713739  0.39095545  1
  O  O297  1  0.24547003  0.74078055  0.88132853  1
  O  O298  1  0.74595035  0.24359331  0.37962214  1
  O  O299  1  0.74849530  0.23612323  0.87671545  1
  O  O300  1  0.74770100  0.73026949  0.38285184  1
  O  O301  1  0.74278589  0.73958906  0.82646112  1
  O  O302  1  0.01925474  0.12002220  -0.00476146  1
  O  O303  1  0.01061232  0.15114106  0.50145700  1
  O  O304  1  0.00949215  0.62128856  0.00274703  1
  O  O305  1  -0.01074504  0.61283134  0.50196204  1
  O  O306  1  0.49335644  0.11741003  0.01425302  1
  O  O307  1  0.50927723  0.13409337  0.50532290  1
  O  O308  1  0.50655965  0.62758671  0.01691159  1
  O  O309  1  0.50208407  0.61972779  0.51693885  1
  O  O310  1  0.49260389  0.38409171  0.49703359  1
  O  O311  1  0.49575967  0.37725229  0.99118365  1
  O  O312  1  0.48450274  0.86081892  0.49098678  1
  O  O313  1  0.49229424  0.88509160  1.00208446  1
  O  O314  1  0.98267995  0.37660119  0.50039728  1
  O  O315  1  0.98232577  0.39028153  1.01458572  1
  O  O316  1  0.98498798  0.86496032  0.49931869  1
  O  O317  1  0.99690257  0.87028229  0.98668788  1
  O  O318  1  0.49476805  0.49930972  0.38516191  1
  O  O319  1  0.49023222  0.49196436  0.87558710  1
  O  O320  1  0.49170489  0.98335238  0.37690290  1
  O  O321  1  0.49045720  1.00418580  0.89055541  1
  O  O322  1  0.98085673  0.50401988  0.38881593  1
  O  O323  1  0.99852118  0.50579450  0.88816209  1
  O  O324  1  0.98741961  1.00546825  0.35906525  1
  O  O325  1  1.00639054  0.98462426  0.87502434  1
  O  O326  1  -0.02784894  -0.00693619  0.15394183  1
  O  O327  1  0.02384948  -0.00013324  0.63082238  1
  O  O328  1  0.00596694  0.51313049  0.11500862  1
  O  O329  1  -0.00031959  0.50042670  0.61331495  1
  O  O330  1  0.48875089  0.01005520  0.11187098  1
  O  O331  1  0.49607858  0.01857636  0.62544548  1
  O  O332  1  0.50911722  0.51567121  0.12657609  1
  O  O333  1  0.49783052  0.51641415  0.62397834  1
  O  O334  1  0.24943452  0.38326856  0.24338160  1
  O  O335  1  0.24504762  0.38354245  0.75513929  1
  O  O336  1  0.24727640  0.87581389  0.24456093  1
  O  O337  1  0.23977948  0.86942797  0.76220242  1
  O  O338  1  0.73569324  0.37360787  0.24498904  1
  O  O339  1  0.73796401  0.37832600  0.74607175  1
  O  O340  1  0.73216930  0.87464482  0.29319767  1
  O  O341  1  0.74203400  0.88109287  0.73580622  1
  O  O342  1  0.25914374  0.11315789  0.24507329  1
  O  O343  1  0.25762914  0.13086845  0.76494554  1
  O  O344  1  0.24248909  0.61219998  0.24979147  1
  O  O345  1  0.24387309  0.61679290  0.76331293  1
  O  O346  1  0.74029422  0.13698419  0.25903226  1
  O  O347  1  0.75318580  0.12130413  0.75844387  1
  O  O348  1  0.74711944  0.62675571  0.25469282  1
  O  O349  1  0.75700465  0.60477148  0.73695650  1
  O  O350  1  0.38682032  0.11249242  0.36696508  1
  O  O351  1  0.37136074  0.12091798  0.86889336  1
  O  O352  1  0.37545185  0.61523533  0.38436077  1
  O  O353  1  0.36692332  0.61212970  0.88291619  1
  O  O354  1  0.86261939  0.11980744  0.37674595  1
  O  O355  1  0.86969231  0.12229238  0.85925812  1
  O  O356  1  0.86076205  0.61169447  0.37405335  1
  O  O357  1  0.87896075  0.62311745  0.85812669  1
  O  O358  1  0.14494021  0.37476744  0.13418752  1
  O  O359  1  0.11970521  0.38876582  0.63953308  1
  O  O360  1  0.13880862  0.86912484  0.13400889  1
  O  O361  1  0.12738230  0.88617016  0.64465681  1
  O  O362  1  0.63015966  0.39262316  0.13292532  1
  O  O363  1  0.62698669  0.36830548  0.63970746  1
  O  O364  1  0.63683101  0.83833935  0.13929532  1
  O  O365  1  0.62839170  0.87837785  0.62771495  1
  O  O366  1  0.12676791  0.26023947  0.25716487  1
  O  O367  1  0.12918849  0.26596630  0.74198907  1
  O  O368  1  0.11732329  0.75527477  0.24823112  1
  O  O369  1  0.12267458  0.75627490  0.75928901  1
  O  O370  1  0.61231105  0.26427901  0.25186232  1
  O  O371  1  0.62777872  0.26048265  0.75289106  1
  O  O372  1  0.61076133  0.74225446  0.27110139  1
  O  O373  1  0.60495217  0.76495839  0.74079748  1
  O  O374  1  0.38357168  0.24327300  0.26325084  1
  O  O375  1  0.36461153  0.24268909  0.73709989  1
  O  O376  1  0.38047323  0.73966739  0.26240215  1
  O  O377  1  0.38709775  0.76019950  0.73674688  1
  O  O378  1  0.89432495  0.25931205  0.24372413  1
  O  O379  1  0.86920701  0.23367518  0.74440884  1
  O  O380  1  0.89244407  0.75945795  0.23380721  1
  O  O381  1  0.89376409  0.74642443  0.74980133  1
  O  O382  1  0.38459894  0.49797815  0.49666071  1
  O  O383  1  0.37511875  0.48615550  0.98633421  1
  O  O384  1  0.36737454  0.98667553  0.49587173  1
  O  O385  1  0.38060327  0.99296437  0.99351091  1
  O  O386  1  0.88070249  0.48897670  0.50148456  1
  O  O387  1  0.87899725  0.49449245  0.99654419  1
  O  O388  1  0.86973722  0.98851866  0.48762153  1
  O  O389  1  0.87454154  0.97934455  1.00734368  1
  O  O390  1  0.13632411  0.01003530  0.00392304  1
  O  O391  1  0.12953998  -0.00962853  0.50953881  1
  O  O392  1  0.12043827  0.50837118  -0.00185177  1
  O  O393  1  0.10054184  0.48176705  0.51079565  1
  O  O394  1  0.60827609  -0.00442858  0.00193402  1
  O  O395  1  0.62739301  0.01750568  0.49549886  1
  O  O396  1  0.62105454  0.51101852  0.01327268  1
  O  O397  1  0.61147863  0.49316075  0.49999879  1
  O  O398  1  0.36911108  0.38481419  0.11320781  1
  O  O399  1  0.38069498  0.36708525  0.61574422  1
  O  O400  1  0.36476066  0.87372814  0.11154128  1
  O  O401  1  0.38316767  0.87005833  0.61497883  1
  O  O402  1  0.86318639  0.38668356  0.11961390  1
  O  O403  1  0.86479174  0.36841004  0.61213379  1
  O  O404  1  0.87354079  0.85822546  0.10386050  1
  O  O405  1  0.86602674  0.88506927  0.61008273  1
  O  O406  1  0.12927892  0.14252731  0.37125915  1
  O  O407  1  0.14214115  0.11995819  0.88213435  1
  O  O408  1  0.13382220  0.57955118  0.39079458  1
  O  O409  1  0.13383551  0.63044980  0.88205459  1
  O  O410  1  0.63258650  0.13493257  0.37953726  1
  O  O411  1  0.63102270  0.12681339  0.86999712  1
  O  O412  1  0.64060931  0.62570773  0.37700125  1
  O  O413  1  0.61443322  0.61645159  0.89287605  1
