# generated using pymatgen
data_V79Zn79O256
_symmetry_space_group_name_H-M   'P 1'
_cell_length_a   16.89478339
_cell_length_b   16.88662964
_cell_length_c   16.87155519
_cell_angle_alpha   90.01482532
_cell_angle_beta   89.96204117
_cell_angle_gamma   90.11157065
_symmetry_Int_Tables_number   1
_chemical_formula_structural   V79Zn79O256
_chemical_formula_sum   'V79 Zn79 O256'
_cell_volume   4813.37602497
_cell_formula_units_Z   1
loop_
 _symmetry_equiv_pos_site_id
 _symmetry_equiv_pos_as_xyz
  1  'x, y, z'
loop_
 _atom_site_type_symbol
 _atom_site_label
 _atom_site_symmetry_multiplicity
 _atom_site_fract_x
 _atom_site_fract_y
 _atom_site_fract_z
 _atom_site_occupancy
  V  V0  1  0.50255025  0.87322446  0.86944218  1
  V  V1  1  0.49181115  0.87732821  0.38339487  1
  V  V2  1  -0.00147948  0.00044659  0.50383059  1
  V  V3  1  0.75235049  0.75443511  0.51382098  1
  V  V4  1  0.12436994  0.49218811  0.62961283  1
  V  V5  1  0.50303653  0.38145167  0.87640938  1
  V  V6  1  0.87296708  0.23360270  0.13069618  1
  V  V7  1  -0.01884405  0.00435238  -0.02304683  1
  V  V8  1  0.62553408  0.24821884  0.36258799  1
  V  V9  1  0.74993538  0.23707294  -0.00032517  1
  V  V10  1  0.87937814  0.12718811  0.76962223  1
  V  V11  1  0.63424939  0.13647213  0.50594055  1
  V  V12  1  0.50041240  0.12694744  0.14301774  1
  V  V13  1  0.48996471  0.24085071  0.73979169  1
  V  V14  1  0.62470650  0.62575344  0.50064926  1
  V  V15  1  0.63729074  0.37958428  0.74793846  1
  V  V16  1  0.26002271  0.11902342  0.37022281  1
  V  V17  1  0.62458067  0.75325978  0.37550388  1
  V  V18  1  0.25081330  0.87443606  0.62465393  1
  V  V19  1  0.25168264  0.75202229  0.49923386  1
  V  V20  1  0.63662052  0.00080298  0.62245800  1
  V  V21  1  0.75795103  0.38290861  0.12109394  1
  V  V22  1  0.12255114  0.24705563  0.37497557  1
  V  V23  1  0.24730489  0.50181135  0.24877715  1
  V  V24  1  0.75409671  0.61536050  0.87026586  1
  V  V25  1  0.87057811  0.00318834  0.36401399  1
  V  V26  1  0.76037937  0.87574687  0.12532908  1
  V  V27  1  0.24317546  0.63003641  0.37166353  1
  V  V28  1  0.12279172  0.62987313  0.49720012  1
  V  V29  1  0.87311099  0.87133439  0.51483842  1
  V  V30  1  0.49945524  0.49932979  0.50145054  1
  V  V31  1  0.37824864  0.37825023  -0.00077372  1
  V  V32  1  0.37192368  0.00381377  0.86358477  1
  V  V33  1  0.85832713  0.37318747  0.50769206  1
  V  V34  1  0.12216849  0.37659922  0.24853786  1
  V  V35  1  0.12068769  0.12269052  0.50265510  1
  V  V36  1  0.62236066  0.75070831  0.87181510  1
  V  V37  1  0.10996318  0.01550849  0.12204051  1
  V  V38  1  0.12825953  0.86732783  0.25110453  1
  V  V39  1  0.76061512  0.75415613  0.00227678  1
  V  V40  1  0.37934075  0.75146207  0.62731184  1
  V  V41  1  0.62602297  0.23653195  0.88047908  1
  V  V42  1  0.86114580  0.23869685  0.61802581  1
  V  V43  1  0.12523680  0.87208940  0.76138375  1
  V  V44  1  0.62358929  0.50200345  0.12701967  1
  V  V45  1  0.62000630  0.62101256  -0.00064993  1
  V  V46  1  -0.00113374  0.50027909  0.50039260  1
  V  V47  1  0.24798886  0.49975705  0.75110546  1
  V  V48  1  -0.01238038  0.75076280  0.75579863  1
  V  V49  1  0.37538975  0.37372642  0.50841323  1
  V  V50  1  0.24027536  0.74605844  -0.00630144  1
  V  V51  1  0.86891325  0.50043223  0.36357894  1
  V  V52  1  0.49357562  0.00759833  0.50762160  1
  V  V53  1  0.26054025  0.22901008  -0.00251065  1
  V  V54  1  0.37979585  0.24722074  0.13939962  1
  V  V55  1  0.63842407  0.49768340  0.62740309  1
  V  V56  1  0.37846514  0.62922494  0.75183058  1
  V  V57  1  0.01010557  0.25280092  0.73586072  1
  V  V58  1  0.13036896  0.24437531  0.88400949  1
  V  V59  1  -0.00499644  0.37565295  0.37527899  1
  V  V60  1  0.11509049  0.50151349  0.10599846  1
  V  V61  1  0.37554359  0.87752678  0.00150860  1
  V  V62  1  0.49723027  0.62654193  0.12440340  1
  V  V63  1  -0.00525306  0.64283853  0.11496884  1
  V  V64  1  -0.00614564  0.62960512  0.62645183  1
  V  V65  1  0.50215847  0.01029035  -0.00142939  1
  V  V66  1  0.00126844  0.86244600  0.36847753  1
  V  V67  1  0.62055375  0.37832875  0.24749746  1
  V  V68  1  -0.00764967  0.23499419  0.24965109  1
  V  V69  1  0.75496455  0.00749201  0.76691334  1
  V  V70  1  0.63352253  0.87551952  0.74557704  1
  V  V71  1  0.62577470  0.88280471  0.25037517  1
  V  V72  1  0.75197635  0.62489487  0.36555312  1
  V  V73  1  0.24848143  0.88686189  0.12757147  1
  V  V74  1  0.25525694  0.25175395  0.50429734  1
  V  V75  1  0.12439613  -0.00442770  0.62813992  1
  V  V76  1  0.37332670  0.50662582  0.87793561  1
  V  V77  1  0.62611965  0.00326011  0.12244847  1
  V  V78  1  0.88388620  0.48281282  0.87912537  1
  Zn  Zn79  1  0.24809254  0.37060325  0.63101818  1
  Zn  Zn80  1  0.49478367  0.36988204  0.37007052  1
  Zn  Zn81  1  0.37563326  0.50035598  0.37459234  1
  Zn  Zn82  1  0.36902338  0.74947347  0.12591394  1
  Zn  Zn83  1  0.50209975  0.62983461  0.62866284  1
  Zn  Zn84  1  0.49512838  0.75119128  0.24991333  1
  Zn  Zn85  1  0.37527230  0.62646242  0.25059010  1
  Zn  Zn86  1  0.24989291  0.37379973  0.11990291  1
  Zn  Zn87  1  0.88379088  0.65516816  0.23941957  1
  Zn  Zn88  1  0.26579749  0.12143171  0.84668421  1
  Zn  Zn89  1  0.12344036  0.72382411  0.88012718  1
  Zn  Zn90  1  0.75802643  0.13045861  0.36243545  1
  Zn  Zn91  1  0.86486315  0.61528180  0.73895743  1
  Zn  Zn92  1  0.37546447  -0.00038554  0.36341582  1
  Zn  Zn93  1  0.01175388  0.37355680  0.88076696  1
  Zn  Zn94  1  0.18571817  0.19338433  0.18758280  1
  Zn  Zn95  1  0.18671534  0.18362494  0.68310008  1
  Zn  Zn96  1  0.17945453  0.68907826  0.17608288  1
  Zn  Zn97  1  0.18494513  0.68342134  0.69366300  1
  Zn  Zn98  1  0.68888156  0.18636032  0.18845004  1
  Zn  Zn99  1  0.68582998  0.18872982  0.69324045  1
  Zn  Zn100  1  0.68591145  0.69308581  0.18762007  1
  Zn  Zn101  1  0.68325343  0.68521704  0.68901607  1
  Zn  Zn102  1  0.30958393  0.31617080  0.32123270  1
  Zn  Zn103  1  0.31387829  0.31699840  0.81216052  1
  Zn  Zn104  1  0.31139873  0.81125318  0.30960410  1
  Zn  Zn105  1  0.31078286  0.81587057  0.81065620  1
  Zn  Zn106  1  0.80495094  0.31503232  0.30916645  1
  Zn  Zn107  1  0.81289080  0.30522266  0.81180333  1
  Zn  Zn108  1  0.80913448  0.82077611  0.31771766  1
  Zn  Zn109  1  0.81205340  0.81599357  0.81767858  1
  Zn  Zn110  1  0.18616884  0.43939626  0.43839958  1
  Zn  Zn111  1  0.19522287  0.42739567  0.93053597  1
  Zn  Zn112  1  0.18752365  0.93591298  0.43647615  1
  Zn  Zn113  1  0.18931279  0.94795539  0.94455368  1
  Zn  Zn114  1  0.68451886  0.43872492  0.43428661  1
  Zn  Zn115  1  0.68987710  0.43317857  0.94209961  1
  Zn  Zn116  1  0.68913941  0.93960909  0.44074500  1
  Zn  Zn117  1  0.69019614  0.93876463  0.94133597  1
  Zn  Zn118  1  0.30861247  0.06219273  0.18961256  1
  Zn  Zn119  1  0.30699779  0.06734599  0.56937333  1
  Zn  Zn120  1  0.30719867  0.56148302  0.06172190  1
  Zn  Zn121  1  0.31208543  0.56392267  0.56491181  1
  Zn  Zn122  1  0.81328869  0.05960934  0.05973509  1
  Zn  Zn123  1  0.80942934  0.05963988  0.55586052  1
  Zn  Zn124  1  0.81768600  0.56466188  0.05862639  1
  Zn  Zn125  1  0.81268776  0.56403518  0.55173792  1
  Zn  Zn126  1  0.43852927  0.44084154  0.18352197  1
  Zn  Zn127  1  0.44219120  0.43631671  0.69086188  1
  Zn  Zn128  1  0.44163198  0.93396073  0.18973296  1
  Zn  Zn129  1  0.44261096  0.93527536  0.68212962  1
  Zn  Zn130  1  0.93778629  0.43744406  0.18366942  1
  Zn  Zn131  1  0.93191733  0.43614984  0.69495977  1
  Zn  Zn132  1  0.94423183  0.93573257  0.18512546  1
  Zn  Zn133  1  0.93949903  0.93990123  0.69904715  1
  Zn  Zn134  1  0.06804975  0.05101211  0.31375689  1
  Zn  Zn135  1  0.06520582  0.07311125  0.81220137  1
  Zn  Zn136  1  0.05805487  0.56848405  0.30548678  1
  Zn  Zn137  1  0.05824354  0.55974186  0.81566268  1
  Zn  Zn138  1  0.56529997  0.06147289  0.31804383  1
  Zn  Zn139  1  0.55913868  0.06027418  0.80734760  1
  Zn  Zn140  1  0.56391202  0.56148291  0.31065559  1
  Zn  Zn141  1  0.56094285  0.56205356  0.81128705  1
  Zn  Zn142  1  0.44383493  0.18931920  0.44037301  1
  Zn  Zn143  1  0.44071721  0.18800060  0.93432925  1
  Zn  Zn144  1  0.43324537  0.68505734  0.43840160  1
  Zn  Zn145  1  0.43525862  0.69070003  0.93963855  1
  Zn  Zn146  1  0.93534981  0.18717621  0.43898861  1
  Zn  Zn147  1  0.95641593  0.20344675  0.95594557  1
  Zn  Zn148  1  0.93393314  0.68880252  0.43435944  1
  Zn  Zn149  1  0.94038575  0.68221446  0.93828672  1
  Zn  Zn150  1  0.05839332  0.31247993  0.06467555  1
  Zn  Zn151  1  0.05793045  0.30932089  0.56083204  1
  Zn  Zn152  1  0.05870447  0.82597839  0.05500656  1
  Zn  Zn153  1  0.05981905  0.81222642  0.56526508  1
  Zn  Zn154  1  0.56244634  0.31109990  0.06191526  1
  Zn  Zn155  1  0.56257290  0.31453415  0.56439398  1
  Zn  Zn156  1  0.56481627  0.81175483  0.05926684  1
  Zn  Zn157  1  0.56290854  0.81794417  0.56193843  1
  O  O158  1  0.12813640  0.11454032  0.13278313  1
  O  O159  1  0.13158894  0.11018368  0.61140723  1
  O  O160  1  0.11343757  0.60757678  0.12235561  1
  O  O161  1  0.11581326  0.61526902  0.61724561  1
  O  O162  1  0.60976167  0.11751628  0.12795549  1
  O  O163  1  0.63230242  0.12022155  0.61309605  1
  O  O164  1  0.62189645  0.62117417  0.11924312  1
  O  O165  1  0.62106236  0.61754853  0.62002058  1
  O  O166  1  0.37725896  0.38136411  0.38676177  1
  O  O167  1  0.38420013  0.38368976  0.88151018  1
  O  O168  1  0.38808249  0.87442165  0.37447554  1
  O  O169  1  0.38590921  0.87904876  0.87810093  1
  O  O170  1  0.87774591  0.37806735  0.38277169  1
  O  O171  1  0.86897693  0.38160920  0.87444664  1
  O  O172  1  0.88881178  0.88502791  0.38428269  1
  O  O173  1  0.87861737  0.88638301  0.87132583  1
  O  O174  1  0.25548595  0.01456696  0.38507334  1
  O  O175  1  0.26801740  -0.00023408  0.87565679  1
  O  O176  1  0.24551595  0.50941724  0.36436653  1
  O  O177  1  0.26433935  0.49374721  0.86589482  1
  O  O178  1  0.76826064  -0.00943209  0.37520373  1
  O  O179  1  0.74425162  0.00669289  0.86585325  1
  O  O180  1  0.75568048  0.51376649  0.38093915  1
  O  O181  1  0.74674763  0.51343733  0.87739114  1
  O  O182  1  0.23663116  0.49686928  0.13308641  1
  O  O183  1  0.23970277  0.49927246  0.62943317  1
  O  O184  1  0.24168923  0.99109095  0.12554862  1
  O  O185  1  0.23684393  0.98430649  0.61248550  1
  O  O186  1  0.74362464  0.48872294  0.11716419  1
  O  O187  1  0.73793324  0.50703561  0.61960501  1
  O  O188  1  0.73819740  0.98454118  0.11337955  1
  O  O189  1  0.74063495  1.00161594  0.63099680  1
  O  O190  1  0.00449752  0.36974044  0.25993802  1
  O  O191  1  -0.01226387  0.35237637  0.76075266  1
  O  O192  1  0.00807701  0.87386224  0.26240249  1
  O  O193  1  0.01043287  0.85934793  0.74341733  1
  O  O194  1  0.51370149  0.38415362  0.25096113  1
  O  O195  1  0.50809801  0.36651717  0.76129633  1
  O  O196  1  0.51043340  0.87226254  0.26279390  1
  O  O197  1  0.51645163  0.88344829  0.76171618  1
  O  O198  1  0.50112064  0.12399607  0.24181964  1
  O  O199  1  0.50725029  0.14105814  0.74979296  1
  O  O200  1  0.49969351  0.62728392  0.24016863  1
  O  O201  1  0.48612718  0.62268680  0.74727370  1
  O  O202  1  1.00513896  0.13784576  0.26352524  1
  O  O203  1  0.98463050  0.13491827  0.74452732  1
  O  O204  1  0.99575245  0.61581481  0.22703814  1
  O  O205  1  0.99609022  0.63413052  0.74160683  1
  O  O206  1  0.37129334  0.25469608  0.00387360  1
  O  O207  1  0.36682071  0.25927492  0.49479624  1
  O  O208  1  0.36895690  0.76397383  0.00118855  1
  O  O209  1  0.36030965  0.74193400  0.51100188  1
  O  O210  1  0.85758308  0.24372667  0.01672204  1
  O  O211  1  0.87803258  0.26272923  0.50771084  1
  O  O212  1  0.85865701  0.74790509  -0.00656703  1
  O  O213  1  0.86837878  0.76344823  0.49620518  1
  O  O214  1  0.12735708  0.24125143  0.49453030  1
  O  O215  1  0.14467068  0.24085749  0.98963174  1
  O  O216  1  0.13332778  0.73638796  0.50898214  1
  O  O217  1  0.13605980  0.76218051  0.99322477  1
  O  O218  1  0.62605547  0.23971035  0.50002165  1
  O  O219  1  0.63030980  0.25202676  0.98836581  1
  O  O220  1  0.63138188  0.74863975  0.49502067  1
  O  O221  1  0.63189061  0.74229255  0.98951981  1
  O  O222  1  0.49132467  0.23728972  0.12079300  1
  O  O223  1  0.50147308  0.25588435  0.64026019  1
  O  O224  1  0.50202779  0.73874155  0.12547152  1
  O  O225  1  0.48403797  0.75420234  0.61717910  1
  O  O226  1  0.98108659  0.25215665  0.13498512  1
  O  O227  1  0.98485541  0.25484048  0.63201743  1
  O  O228  1  1.00771003  0.74223969  0.11741166  1
  O  O229  1  1.00605889  0.73805098  0.63664033  1
  O  O230  1  0.00069046  0.25839614  0.37001496  1
  O  O231  1  0.02812763  0.22989727  0.85563026  1
  O  O232  1  0.00687029  0.76459867  0.38642773  1
  O  O233  1  0.00358863  0.73968000  0.85977178  1
  O  O234  1  0.51930146  0.25483716  0.38381921  1
  O  O235  1  0.51372647  0.25806683  0.87221837  1
  O  O236  1  0.51074340  0.75812223  0.38366869  1
  O  O237  1  0.51139313  0.76021902  0.87996227  1
  O  O238  1  0.24333330  0.13322892  0.49314696  1
  O  O239  1  0.26458746  0.13282389  0.99799882  1
  O  O240  1  0.24096074  0.62910831  0.49247106  1
  O  O241  1  0.25325986  0.64721475  1.00909096  1
  O  O242  1  0.73548730  0.11886766  0.48730312  1
  O  O243  1  0.74027166  0.13838261  1.01036412  1
  O  O244  1  0.74483706  0.63625892  0.48911251  1
  O  O245  1  0.74066833  0.63658742  0.99207080  1
  O  O246  1  0.26600000  0.36294211  0.00039532  1
  O  O247  1  0.25695480  0.36840470  0.49661740  1
  O  O248  1  0.25856548  0.87330781  0.00794388  1
  O  O249  1  0.24019608  0.86069936  0.50710818  1
  O  O250  1  0.74103616  0.36168847  0.01664385  1
  O  O251  1  0.75989884  0.37675626  0.49823886  1
  O  O252  1  0.74432454  0.86308265  0.00995492  1
  O  O253  1  0.76449104  0.86979249  0.49883138  1
  O  O254  1  0.12776933  0.48942258  0.24338678  1
  O  O255  1  0.13239074  0.50170159  0.73786919  1
  O  O256  1  0.11975324  0.98687422  0.23592667  1
  O  O257  1  0.11244464  0.98702242  0.73584494  1
  O  O258  1  0.62919947  0.49616887  0.23713012  1
  O  O259  1  0.62055526  0.48849103  0.74310556  1
  O  O260  1  0.61877932  0.99087078  0.24043538  1
  O  O261  1  0.63766618  0.99914255  0.74418698  1
  O  O262  1  0.37820645  0.00091781  0.25085062  1
  O  O263  1  0.38503729  -0.01009847  0.76491001  1
  O  O264  1  0.35864739  0.50042549  0.24711752  1
  O  O265  1  0.37115135  0.50729850  0.75714434  1
  O  O266  1  0.88619950  -0.00392836  0.26604421  1
  O  O267  1  0.86603329  0.01429971  0.74871042  1
  O  O268  1  0.87385898  0.49103377  0.26384020  1
  O  O269  1  0.87446159  0.50290069  0.76799183  1
  O  O270  1  0.11486489  0.37058376  0.36879671  1
  O  O271  1  0.13414332  0.34891574  0.86861946  1
  O  O272  1  0.11451984  0.88318749  0.36328047  1
  O  O273  1  0.13249605  0.88485264  0.85950944  1
  O  O274  1  0.62730365  0.36713492  0.36483186  1
  O  O275  1  0.61905447  0.37625487  0.86716957  1
  O  O276  1  0.62062113  0.87166829  0.37046786  1
  O  O277  1  0.62176072  0.86961627  0.87035331  1
  O  O278  1  0.38383529  0.13810644  0.13287734  1
  O  O279  1  0.33771809  0.11761118  0.67198227  1
  O  O280  1  0.38702064  0.62333193  0.12269504  1
  O  O281  1  0.37763057  0.63395940  0.63190757  1
  O  O282  1  0.86551162  0.13530173  0.13319182  1
  O  O283  1  0.87269282  0.13756560  0.61333772  1
  O  O284  1  0.88541496  0.62532119  0.12490667  1
  O  O285  1  0.88786621  0.61686059  0.62131410  1
  O  O286  1  0.26357439  0.24818567  0.11520293  1
  O  O287  1  0.24255732  0.25369258  0.60812771  1
  O  O288  1  0.24746528  0.76524550  0.11418619  1
  O  O289  1  0.25457688  0.75454754  0.61880691  1
  O  O290  1  0.75400352  0.25678714  0.11994799  1
  O  O291  1  0.76249767  0.25053868  0.62857514  1
  O  O292  1  0.74365170  0.76034965  0.11224006  1
  O  O293  1  0.74657443  0.74448795  0.61312994  1
  O  O294  1  0.24188398  0.24179888  0.38368399  1
  O  O295  1  0.25452528  0.24458990  0.88412033  1
  O  O296  1  0.25196246  0.73992300  0.38394529  1
  O  O297  1  0.25171705  0.75846260  0.89053027  1
  O  O298  1  0.73313951  0.25025410  0.37261684  1
  O  O299  1  0.73944465  0.25326025  0.88899966  1
  O  O300  1  0.73796367  0.74883675  0.38504223  1
  O  O301  1  0.74097361  0.74574530  0.88516103  1
  O  O302  1  0.00004000  0.10798668  -0.00285425  1
  O  O303  1  0.01184066  0.11597405  0.49348714  1
  O  O304  1  -0.00227430  0.62193639  0.01391572  1
  O  O305  1  0.00459398  0.62142986  0.50449393  1
  O  O306  1  0.49445365  0.11336155  0.00662196  1
  O  O307  1  0.51652439  0.11341404  0.49567416  1
  O  O308  1  0.51193690  0.63161055  0.00699789  1
  O  O309  1  0.50705999  0.61756795  0.50072706  1
  O  O310  1  0.49332675  0.38273428  0.49963499  1
  O  O311  1  0.49032963  0.36796991  0.98932855  1
  O  O312  1  0.50766557  0.89267111  0.49279107  1
  O  O313  1  0.49606071  0.88061454  0.99110069  1
  O  O314  1  0.99531513  0.37904291  0.48713972  1
  O  O315  1  0.99442514  0.31470613  0.97605580  1
  O  O316  1  0.99260049  0.87899704  0.49382557  1
  O  O317  1  0.99860344  0.90193809  1.00255044  1
  O  O318  1  0.50258387  0.49878731  0.38877908  1
  O  O319  1  0.49047685  0.49041834  0.87219930  1
  O  O320  1  0.49829495  0.99524793  0.38805080  1
  O  O321  1  0.49912033  0.99235087  0.88150997  1
  O  O322  1  0.99133744  0.49299894  0.37837591  1
  O  O323  1  0.99088308  0.48839134  0.87509816  1
  O  O324  1  0.99426828  0.99130277  0.38803480  1
  O  O325  1  1.00368919  1.00528180  0.87564855  1
  O  O326  1  0.00656827  0.00625989  0.12295182  1
  O  O327  1  0.00833432  -0.00853592  0.61239255  1
  O  O328  1  0.01450038  0.48490602  0.11611639  1
  O  O329  1  0.00551488  0.50480177  0.62161436  1
  O  O330  1  0.50391514  0.01105805  0.11954938  1
  O  O331  1  0.51386707  -0.00243607  0.61389585  1
  O  O332  1  0.51159634  0.51261825  0.12473132  1
  O  O333  1  0.50959223  0.50033247  0.61411445  1
  O  O334  1  0.23686394  0.38153328  0.25159127  1
  O  O335  1  0.25846760  0.39166157  0.74585110  1
  O  O336  1  0.23856140  0.87435925  0.24475599  1
  O  O337  1  0.23456734  0.87009521  0.73814854  1
  O  O338  1  0.73425160  0.36935035  0.23149568  1
  O  O339  1  0.73553043  0.37218343  0.75586504  1
  O  O340  1  0.73701008  0.86818206  0.23516195  1
  O  O341  1  0.74263872  0.89147377  0.75528211  1
  O  O342  1  0.24747514  0.13064315  0.26597959  1
  O  O343  1  0.27255877  0.11750750  0.72217460  1
  O  O344  1  0.24079251  0.61826640  0.25468976  1
  O  O345  1  0.26450871  0.61182888  0.74261755  1
  O  O346  1  0.73683908  0.11311279  0.25382430  1
  O  O347  1  0.76151059  0.11606383  0.74935207  1
  O  O348  1  0.75460052  0.63818839  0.26307093  1
  O  O349  1  0.74898740  0.63254035  0.76627542  1
  O  O350  1  0.36209884  0.12937259  0.38079865  1
  O  O351  1  0.38135554  0.10882705  0.87348280  1
  O  O352  1  0.35964084  0.62021938  0.37244857  1
  O  O353  1  0.38244914  0.61558205  0.86998175  1
  O  O354  1  0.87345694  0.10857457  0.38580672  1
  O  O355  1  0.87926077  0.14376089  0.86569913  1
  O  O356  1  0.86806507  0.61497856  0.37647405  1
  O  O357  1  0.85924513  0.62146028  0.87539836  1
  O  O358  1  0.12661024  0.37545469  0.13315659  1
  O  O359  1  0.12431536  0.38880567  0.61294346  1
  O  O360  1  0.13001692  0.88312176  0.13513683  1
  O  O361  1  0.13128562  0.87835826  0.62975450  1
  O  O362  1  0.62478356  0.38425212  0.12786244  1
  O  O363  1  0.62391352  0.38126137  0.63972093  1
  O  O364  1  0.62249852  0.88391019  0.13313322  1
  O  O365  1  0.62265733  0.88384171  0.63682499  1
  O  O366  1  0.11461021  0.25968896  0.25337525  1
  O  O367  1  0.11150620  0.25436232  0.72886927  1
  O  O368  1  0.12505689  0.76679656  0.24414185  1
  O  O369  1  0.12041091  0.76070243  0.75521240  1
  O  O370  1  0.62027807  0.25735359  0.25741823  1
  O  O371  1  0.62216312  0.26101582  0.76213123  1
  O  O372  1  0.62187395  0.75929135  0.26249573  1
  O  O373  1  0.63399988  0.76170621  0.76103604  1
  O  O374  1  0.37131163  0.26220870  0.23709294  1
  O  O375  1  0.39101207  0.25275103  0.75993968  1
  O  O376  1  0.37719981  0.74494765  0.24370363  1
  O  O377  1  0.36621874  0.74120041  0.74076983  1
  O  O378  1  0.87791017  0.25425865  0.24114886  1
  O  O379  1  0.87449249  0.23769507  0.73768741  1
  O  O380  1  0.88678462  0.76071198  0.27006781  1
  O  O381  1  0.88520123  0.74885715  0.75222599  1
  O  O382  1  0.38304467  0.49549276  0.50026033  1
  O  O383  1  0.36759226  0.48994809  0.99238771  1
  O  O384  1  0.39177767  1.01459417  0.50930613  1
  O  O385  1  0.38784941  0.98555613  0.98591417  1
  O  O386  1  0.87909064  0.48682215  0.49155512  1
  O  O387  1  0.86598083  0.50165889  0.97792170  1
  O  O388  1  0.88146690  0.98769855  0.49766742  1
  O  O389  1  0.87809685  1.00577814  0.98845476  1
  O  O390  1  0.12211452  -0.00040433  0.01786153  1
  O  O391  1  0.11685820  0.00296490  0.50439932  1
  O  O392  1  0.13383833  0.48532189  0.00883955  1
  O  O393  1  0.11839966  0.50979279  0.50573918  1
  O  O394  1  0.61413854  -0.00661150  0.01106376  1
  O  O395  1  0.62238504  0.00817919  0.50675084  1
  O  O396  1  0.63099478  0.51257299  0.00942372  1
  O  O397  1  0.61959714  0.50389403  0.50686008  1
  O  O398  1  0.37952122  0.36412843  0.11624304  1
  O  O399  1  0.37191432  0.38211669  0.61240297  1
  O  O400  1  0.36923947  0.87727478  0.11629930  1
  O  O401  1  0.36184385  0.86639088  0.63320987  1
  O  O402  1  0.85966668  0.37165830  0.12824816  1
  O  O403  1  0.87592367  0.37323768  0.61083989  1
  O  O404  1  0.85817893  0.87979563  0.13103474  1
  O  O405  1  0.88174361  0.87813830  0.61331646  1
  O  O406  1  0.13493341  0.12615277  0.38471715  1
  O  O407  1  0.15286949  0.14345990  0.83896432  1
  O  O408  1  0.12991825  0.61901838  0.38460294  1
  O  O409  1  0.14139166  0.61706603  0.85788251  1
  O  O410  1  0.62412505  0.13782956  0.38226959  1
  O  O411  1  0.62327509  0.13851961  0.87168126  1
  O  O412  1  0.63135158  0.63403612  0.37911056  1
  O  O413  1  0.63005596  0.63052577  0.87913204  1
