# generated using pymatgen
data_V79Zn79O256
_symmetry_space_group_name_H-M   'P 1'
_cell_length_a   16.88056134
_cell_length_b   16.87977798
_cell_length_c   16.89690742
_cell_angle_alpha   90.11702062
_cell_angle_beta   90.08820855
_cell_angle_gamma   89.94457636
_symmetry_Int_Tables_number   1
_chemical_formula_structural   V79Zn79O256
_chemical_formula_sum   'V79 Zn79 O256'
_cell_volume   4814.58897108
_cell_formula_units_Z   1
loop_
 _symmetry_equiv_pos_site_id
 _symmetry_equiv_pos_as_xyz
  1  'x, y, z'
loop_
 _atom_site_type_symbol
 _atom_site_label
 _atom_site_symmetry_multiplicity
 _atom_site_fract_x
 _atom_site_fract_y
 _atom_site_fract_z
 _atom_site_occupancy
  V  V0  1  0.00729043  0.24889376  0.74260827  1
  V  V1  1  0.88148897  0.75982044  0.61291796  1
  V  V2  1  0.62043187  0.87467502  0.26601217  1
  V  V3  1  0.24740206  0.24296270  -0.00145732  1
  V  V4  1  0.00614264  0.12126456  0.10979649  1
  V  V5  1  0.36988025  0.62710824  0.24912354  1
  V  V6  1  0.24822738  0.62961233  0.87468882  1
  V  V7  1  0.26138620  0.86562276  0.60990651  1
  V  V8  1  0.50533096  0.74747323  0.27206489  1
  V  V9  1  0.38134355  0.63403973  0.73515680  1
  V  V10  1  0.00872739  0.24621161  0.25350160  1
  V  V11  1  0.00102939  0.49656841  -0.00671580  1
  V  V12  1  0.36244428  0.49517833  0.37301153  1
  V  V13  1  0.12847782  0.38732853  0.24723952  1
  V  V14  1  0.49721713  0.12412489  0.12997178  1
  V  V15  1  0.11804906  0.49410139  0.61448506  1
  V  V16  1  0.24448246  0.37198690  0.63194351  1
  V  V17  1  0.00643748  0.61586377  0.12750530  1
  V  V18  1  0.87556415  0.37364923  -0.00399463  1
  V  V19  1  0.74942430  0.12149217  0.36737854  1
  V  V20  1  0.63458931  0.12874327  -0.00524515  1
  V  V21  1  0.62671173  0.62663747  -0.00531431  1
  V  V22  1  0.24071643  0.49892239  0.75103306  1
  V  V23  1  0.87600500  0.11485528  0.24967863  1
  V  V24  1  0.37172825  0.37014744  0.49732475  1
  V  V25  1  0.87540889  0.23367467  0.62689338  1
  V  V26  1  0.37481067  0.49906813  0.87360088  1
  V  V27  1  0.12229086  0.63895813  0.49965266  1
  V  V28  1  0.75140864  0.38074055  0.62838043  1
  V  V29  1  0.24370047  0.24305400  0.49697222  1
  V  V30  1  0.24681544  0.11900666  0.86558610  1
  V  V31  1  0.86921831  0.62202340  0.24879219  1
  V  V32  1  0.11960743  0.12446571  0.50016227  1
  V  V33  1  0.86672452  0.50061952  0.87245417  1
  V  V34  1  0.64261735  0.24599342  0.87726066  1
  V  V35  1  0.87996249  0.38538269  0.50052018  1
  V  V36  1  0.12607020  0.62128438  0.00346683  1
  V  V37  1  0.87098294  0.50143439  0.36918638  1
  V  V38  1  0.62369172  0.50938021  0.62864197  1
  V  V39  1  -0.00555973  -0.00041565  0.51060990  1
  V  V40  1  0.00329323  0.37475131  0.37627619  1
  V  V41  1  0.49620078  0.63274497  0.12460443  1
  V  V42  1  0.75014020  0.25762257  0.48956794  1
  V  V43  1  0.37505179  0.37417916  0.00110590  1
  V  V44  1  0.87125356  0.24952618  0.11935287  1
  V  V45  1  0.50432384  0.36950859  0.37667506  1
  V  V46  1  0.24237831  0.64177568  0.37637263  1
  V  V47  1  0.50198370  0.37135811  0.87695218  1
  V  V48  1  0.74773487  0.75327712  -0.00689358  1
  V  V49  1  0.25835629  0.87369062  0.13211767  1
  V  V50  1  0.37731836  0.86931581  -0.00580488  1
  V  V51  1  0.75274266  0.38040940  0.12903498  1
  V  V52  1  0.37515516  0.24622830  0.12779318  1
  V  V53  1  0.88617879  0.76188997  0.11904941  1
  V  V54  1  0.73304721  0.75027355  0.48996043  1
  V  V55  1  0.12064719  0.26396069  0.87544915  1
  V  V56  1  0.50440422  0.12977157  0.61874290  1
  V  V57  1  0.12809979  0.00005722  0.10900814  1
  V  V58  1  0.50427480  -0.00335932  -0.00313553  1
  V  V59  1  0.24623420  0.38488623  0.12683804  1
  V  V60  1  -0.00062198  0.75803903  0.75880080  1
  V  V61  1  0.37465026  0.24769974  0.62833575  1
  V  V62  1  0.86943449  0.62325144  0.74601714  1
  V  V63  1  0.49591154  0.50749862  0.50917868  1
  V  V64  1  0.36790202  -0.00278951  0.35547718  1
  V  V65  1  0.74415800  0.87634648  0.13524912  1
  V  V66  1  0.88658373  0.01233256  0.87251735  1
  V  V67  1  0.50491889  0.25126776  0.75152220  1
  V  V68  1  -0.00479053  0.87547236  0.38068998  1
  V  V69  1  0.50585356  0.25277726  0.25222901  1
  V  V70  1  0.62436139  0.13679680  0.48922468  1
  V  V71  1  0.13271740  0.88780116  0.75576943  1
  V  V72  1  0.50102736  0.49855055  0.00099163  1
  V  V73  1  0.74609157  0.00604613  0.75616785  1
  V  V74  1  0.49326822  -0.00713895  0.48982662  1
  V  V75  1  0.12922637  0.88557754  0.25879734  1
  V  V76  1  0.62946603  0.49909939  0.13269475  1
  V  V77  1  0.62739903  -0.01059702  0.61917850  1
  V  V78  1  0.01156454  0.74683274  0.25649941  1
  Zn  Zn79  1  0.63041271  0.00677520  0.13369444  1
  Zn  Zn80  1  0.74146928  0.62887538  0.86421648  1
  Zn  Zn81  1  0.37476634  -0.00380557  0.86779045  1
  Zn  Zn82  1  0.75531573  0.87675836  0.61690736  1
  Zn  Zn83  1  0.72792361  0.63682247  0.36717371  1
  Zn  Zn84  1  0.24390634  0.11137385  0.35595634  1
  Zn  Zn85  1  -0.00237623  0.62019654  0.62063718  1
  Zn  Zn86  1  0.11830947  0.75590022  0.88026235  1
  Zn  Zn87  1  0.86876970  -0.00671053  0.37345495  1
  Zn  Zn88  1  0.13528352  0.00303813  0.63197750  1
  Zn  Zn89  1  0.63824070  0.37968580  0.75673104  1
  Zn  Zn90  1  0.25208577  0.74882430  0.00403044  1
  Zn  Zn91  1  0.63802927  0.37548742  0.26382939  1
  Zn  Zn92  1  0.37093283  0.10679640  0.74328310  1
  Zn  Zn93  1  0.90608704  0.88102890  -0.02382343  1
  Zn  Zn94  1  0.18423525  0.18489962  0.18095361  1
  Zn  Zn95  1  0.18117753  0.18170044  0.68649194  1
  Zn  Zn96  1  0.19020582  0.68956489  0.18798652  1
  Zn  Zn97  1  0.18657253  0.68822453  0.68707701  1
  Zn  Zn98  1  0.68716910  0.19105110  0.18556623  1
  Zn  Zn99  1  0.68939338  0.18995536  0.68519240  1
  Zn  Zn100  1  0.68634222  0.69200181  0.18243472  1
  Zn  Zn101  1  0.68934962  0.69248524  0.67236535  1
  Zn  Zn102  1  0.28801066  0.27186121  0.29051904  1
  Zn  Zn103  1  0.31284924  0.30915073  0.81327936  1
  Zn  Zn104  1  0.31976136  0.81670851  0.31969754  1
  Zn  Zn105  1  0.31219106  0.81203453  0.80672613  1
  Zn  Zn106  1  0.82109277  0.30949069  0.30905909  1
  Zn  Zn107  1  0.82578000  0.31266521  0.80760898  1
  Zn  Zn108  1  0.81594171  0.80745568  0.30818980  1
  Zn  Zn109  1  0.80891812  0.82728298  0.80518546  1
  Zn  Zn110  1  0.18490426  0.42997019  0.43689292  1
  Zn  Zn111  1  0.18834105  0.43754360  0.93987365  1
  Zn  Zn112  1  0.19011580  0.93980751  0.44282870  1
  Zn  Zn113  1  0.18967175  0.93432197  0.93511276  1
  Zn  Zn114  1  0.66748013  0.48185835  0.42156579  1
  Zn  Zn115  1  0.69037644  0.43523192  0.94272082  1
  Zn  Zn116  1  0.68790135  0.93728724  0.44356962  1
  Zn  Zn117  1  0.72618183  0.96353352  0.96280404  1
  Zn  Zn118  1  0.31443240  0.05854129  0.06073253  1
  Zn  Zn119  1  0.30771399  0.05418523  0.56105561  1
  Zn  Zn120  1  0.31387013  0.56272807  0.06309816  1
  Zn  Zn121  1  0.30391945  0.56239820  0.56090386  1
  Zn  Zn122  1  0.82110569  0.06092076  0.06419821  1
  Zn  Zn123  1  0.80876729  0.06193269  0.55181652  1
  Zn  Zn124  1  0.81428948  0.56550743  0.06379004  1
  Zn  Zn125  1  0.80736443  0.56739026  0.55750940  1
  Zn  Zn126  1  0.43665149  0.43824891  0.18943301  1
  Zn  Zn127  1  0.43333857  0.43854783  0.69145454  1
  Zn  Zn128  1  0.44411374  0.93591693  0.18980268  1
  Zn  Zn129  1  0.43876535  0.93059533  0.67597466  1
  Zn  Zn130  1  0.94077434  0.43635888  0.18765034  1
  Zn  Zn131  1  0.93934023  0.43035935  0.69442795  1
  Zn  Zn132  1  0.94717275  0.93008660  0.17311995  1
  Zn  Zn133  1  0.93291524  0.94092105  0.69807847  1
  Zn  Zn134  1  0.06222588  0.06200320  0.31568506  1
  Zn  Zn135  1  0.05991712  0.07313735  0.81720688  1
  Zn  Zn136  1  0.06122887  0.55836744  0.31810044  1
  Zn  Zn137  1  0.05738216  0.56618813  0.81160937  1
  Zn  Zn138  1  0.56065663  0.06227465  0.31203444  1
  Zn  Zn139  1  0.54049023  0.03913619  0.79283270  1
  Zn  Zn140  1  0.55027749  0.55836247  0.31356490  1
  Zn  Zn141  1  0.56057038  0.56201335  0.80922246  1
  Zn  Zn142  1  0.42924172  0.18149182  0.42916728  1
  Zn  Zn143  1  0.43751201  0.18225371  0.93655620  1
  Zn  Zn144  1  0.40788822  0.68283042  0.45076951  1
  Zn  Zn145  1  0.43486679  0.68404943  0.93649574  1
  Zn  Zn146  1  0.93554835  0.18835104  0.43698281  1
  Zn  Zn147  1  0.93552967  0.18714919  0.93017850  1
  Zn  Zn148  1  0.94296075  0.68243812  0.43378295  1
  Zn  Zn149  1  0.93428849  0.68212637  0.93645407  1
  Zn  Zn150  1  0.06218565  0.31133726  0.06296501  1
  Zn  Zn151  1  0.05955559  0.30942038  0.56184711  1
  Zn  Zn152  1  0.06808828  0.80845981  0.06825319  1
  Zn  Zn153  1  0.06557088  0.81663245  0.57162570  1
  Zn  Zn154  1  0.56705898  0.31061801  0.06325848  1
  Zn  Zn155  1  0.56649422  0.31968352  0.56223141  1
  Zn  Zn156  1  0.56431919  0.81213822  0.06527858  1
  Zn  Zn157  1  0.52877705  0.78271801  0.49318624  1
  O  O158  1  0.11732376  0.11352681  0.12258514  1
  O  O159  1  0.12366846  0.11801310  0.61116253  1
  O  O160  1  0.11989185  0.62809222  0.11580736  1
  O  O161  1  0.12986584  0.61262914  0.61224283  1
  O  O162  1  0.61567256  0.12762108  0.11625179  1
  O  O163  1  0.61693278  0.12957249  0.60995853  1
  O  O164  1  0.61847830  0.61776999  0.11755131  1
  O  O165  1  0.62506036  0.60895006  0.62669060  1
  O  O166  1  0.37802316  0.37798729  0.38760506  1
  O  O167  1  0.38009037  0.37846092  0.88075986  1
  O  O168  1  0.38014049  0.89489581  0.37175733  1
  O  O169  1  0.36820911  0.87772918  0.89032344  1
  O  O170  1  0.88241186  0.38081474  0.37942676  1
  O  O171  1  0.86941070  0.38353728  0.88718815  1
  O  O172  1  0.89131985  0.87610570  0.36499597  1
  O  O173  1  0.87451637  0.89306435  0.87073938  1
  O  O174  1  0.25988307  -0.00514986  0.37136536  1
  O  O175  1  0.25145546  0.01624692  0.88222410  1
  O  O176  1  0.25955200  0.49801050  0.37941027  1
  O  O177  1  0.25285769  0.50639884  0.86887428  1
  O  O178  1  0.75243163  0.01586757  0.38305819  1
  O  O179  1  0.73053264  -0.00242418  0.85540664  1
  O  O180  1  0.76982844  0.49644141  0.37254637  1
  O  O181  1  0.76153881  0.50517377  0.88014730  1
  O  O182  1  0.25366079  0.48451281  0.12170442  1
  O  O183  1  0.23965829  0.49019438  0.63104336  1
  O  O184  1  0.23744817  0.99302220  0.12028598  1
  O  O185  1  0.24974018  0.98189124  0.62477068  1
  O  O186  1  0.74261566  0.49487283  0.12237703  1
  O  O187  1  0.73350904  0.49367008  0.61228610  1
  O  O188  1  0.75056402  0.98057900  0.12352189  1
  O  O189  1  0.73635845  1.00135290  0.61486243  1
  O  O190  1  0.00993206  0.36770364  0.25231576  1
  O  O191  1  -0.02259931  0.34801776  0.76225429  1
  O  O192  1  0.01252669  0.86919853  0.25570368  1
  O  O193  1  0.00658314  0.86253120  0.74699350  1
  O  O194  1  0.49925191  0.37058327  0.26116643  1
  O  O195  1  0.49814295  0.36328495  0.75665061  1
  O  O196  1  0.50715792  0.85484695  0.24604276  1
  O  O197  1  0.52164778  0.85475951  0.73316727  1
  O  O198  1  0.50749782  0.13578318  0.23810059  1
  O  O199  1  0.50636281  0.14016626  0.73502946  1
  O  O200  1  0.49415370  0.63371345  0.24550535  1
  O  O201  1  0.48044121  0.61778688  0.75258530  1
  O  O202  1  0.99518450  0.13064105  0.24704959  1
  O  O203  1  0.99450842  0.14828374  0.75963006  1
  O  O204  1  1.00123134  0.62878846  0.24565635  1
  O  O205  1  0.98893964  0.63625844  0.74644816  1
  O  O206  1  0.36989548  0.25570429  0.00656034  1
  O  O207  1  0.36738993  0.25284964  0.51171470  1
  O  O208  1  0.37956444  0.76499588  -0.00052054  1
  O  O209  1  0.42635931  0.75728347  0.52535947  1
  O  O210  1  0.88826063  0.26100783  0.00893448  1
  O  O211  1  0.87016746  0.25896357  0.50767443  1
  O  O212  1  0.86411646  0.74529756  0.00834955  1
  O  O213  1  0.88994897  0.74678117  0.51291179  1
  O  O214  1  0.12820688  0.23523805  0.50710601  1
  O  O215  1  0.13452973  0.25631648  0.98811417  1
  O  O216  1  0.12242206  0.73741339  0.50633865  1
  O  O217  1  0.12590491  0.73855640  0.99773017  1
  O  O218  1  0.63630878  0.24710536  0.50144496  1
  O  O219  1  0.62313393  0.23766430  0.99318083  1
  O  O220  1  0.63394429  0.74591783  0.50359190  1
  O  O221  1  0.63721086  0.74047530  1.00745257  1
  O  O222  1  0.49351212  0.24512390  0.12766908  1
  O  O223  1  0.49428983  0.24874357  0.62891348  1
  O  O224  1  0.50275932  0.73463378  0.12758195  1
  O  O225  1  0.55062347  0.78920207  0.70182970  1
  O  O226  1  0.99702386  0.23665321  0.13012128  1
  O  O227  1  0.98825688  0.25250061  0.63255373  1
  O  O228  1  0.99946431  0.73268006  0.13643882  1
  O  O229  1  0.99266636  0.74569122  0.63486908  1
  O  O230  1  -0.00970748  0.26150900  0.36361067  1
  O  O231  1  0.01756070  0.24827151  0.87537991  1
  O  O232  1  0.00034271  0.76260930  0.36750640  1
  O  O233  1  -0.00522451  0.74831287  0.86368606  1
  O  O234  1  0.49044088  0.25735829  0.36513761  1
  O  O235  1  0.50625878  0.25187065  0.86746655  1
  O  O236  1  0.50536953  0.74161577  0.37084547  1
  O  O237  1  0.50425334  0.74990572  0.85821436  1
  O  O238  1  0.23767218  0.12988451  0.50424479  1
  O  O239  1  0.25740111  0.13772490  0.99075600  1
  O  O240  1  0.24020616  0.62206057  0.48544680  1
  O  O241  1  0.24378626  0.62427783  0.99463005  1
  O  O242  1  0.74340533  0.13770900  0.48882041  1
  O  O243  1  0.73284956  0.11657733  1.00966141  1
  O  O244  1  0.75938305  0.64453356  0.49071848  1
  O  O245  1  0.74353200  0.63695971  1.00103385  1
  O  O246  1  0.25514005  0.36701152  0.00646824  1
  O  O247  1  0.25366060  0.36723126  0.51303485  1
  O  O248  1  0.26273473  0.87619303  0.01019620  1
  O  O249  1  0.24266229  0.86642484  0.50959725  1
  O  O250  1  0.76578755  0.37883212  0.01361736  1
  O  O251  1  0.76194178  0.36830707  0.50674880  1
  O  O252  1  0.74343889  0.86070864  0.01710921  1
  O  O253  1  0.75084876  0.85921016  0.49961833  1
  O  O254  1  0.12232722  0.48668732  0.24776023  1
  O  O255  1  0.13534250  0.50882783  0.74075376  1
  O  O256  1  0.12227125  0.98827788  0.24190473  1
  O  O257  1  0.11252830  0.99030729  0.75325742  1
  O  O258  1  0.61510883  0.49308256  0.23480760  1
  O  O259  1  0.61665601  0.49413649  0.73482197  1
  O  O260  1  0.61151152  0.98015962  0.24746637  1
  O  O261  1  0.62721397  1.00258941  0.72693296  1
  O  O262  1  0.38052212  0.00429025  0.25543607  1
  O  O263  1  0.42456168  0.00425126  0.76222711  1
  O  O264  1  0.38464119  0.51419449  0.26318314  1
  O  O265  1  0.36115160  0.50586680  0.75487436  1
  O  O266  1  0.88409313  0.01278081  0.24499997  1
  O  O267  1  0.86270967  0.00467976  0.76275749  1
  O  O268  1  0.88265971  0.51187776  0.25286193  1
  O  O269  1  0.88139999  0.51437832  0.75616409  1
  O  O270  1  0.11700476  0.37593271  0.36105256  1
  O  O271  1  0.13242468  0.36366850  0.87100404  1
  O  O272  1  0.11898496  0.88038935  0.36227478  1
  O  O273  1  0.12587070  0.87197127  0.86356831  1
  O  O274  1  0.60868102  0.38544145  0.37924094  1
  O  O275  1  0.62108441  0.36629478  0.87724034  1
  O  O276  1  0.62523732  0.87699665  0.36488452  1
  O  O277  1  0.54860706  0.80452957  0.88279218  1
  O  O278  1  0.38462582  0.13569356  0.11588322  1
  O  O279  1  0.38498670  0.13304175  0.62336415  1
  O  O280  1  0.38240446  0.61813362  0.13679541  1
  O  O281  1  0.36538648  0.62018147  0.63610964  1
  O  O282  1  0.88696496  0.12904961  0.12846335  1
  O  O283  1  0.87424500  0.13619274  0.61172668  1
  O  O284  1  0.88551199  0.63439115  0.13054623  1
  O  O285  1  0.87650651  0.62916587  0.63384837  1
  O  O286  1  0.25686920  0.25685518  0.11467831  1
  O  O287  1  0.25550048  0.25432719  0.62269146  1
  O  O288  1  0.24607154  0.76865666  0.12179807  1
  O  O289  1  0.24301321  0.76611612  0.63290885  1
  O  O290  1  0.76549362  0.25608723  0.12487561  1
  O  O291  1  0.76078336  0.25691135  0.61413501  1
  O  O292  1  0.76189741  0.75632587  0.11778987  1
  O  O293  1  0.76657065  0.75092819  0.60938130  1
  O  O294  1  0.25399094  0.25883478  0.39910275  1
  O  O295  1  0.24346148  0.24476103  0.87953559  1
  O  O296  1  0.25094010  0.74055479  0.37667327  1
  O  O297  1  0.24853322  0.73744888  0.87886025  1
  O  O298  1  0.75861662  0.24375595  0.38279006  1
  O  O299  1  0.74128587  0.25506421  0.86726027  1
  O  O300  1  0.75276885  0.75155082  0.38448715  1
  O  O301  1  0.75535823  0.75581932  0.89037763  1
  O  O302  1  -0.00137167  0.12707557  0.01215101  1
  O  O303  1  0.00845740  0.11356059  0.49286554  1
  O  O304  1  0.00648640  0.61880970  0.00695899  1
  O  O305  1  0.01784362  0.62097628  0.49902426  1
  O  O306  1  0.50644183  0.11456285  0.00851348  1
  O  O307  1  0.50704338  0.13031705  0.50436827  1
  O  O308  1  0.50545703  0.62080786  0.00569393  1
  O  O309  1  0.48904100  0.60437666  0.49961155  1
  O  O310  1  0.48654130  0.37238133  0.49555913  1
  O  O311  1  0.49547181  0.37815307  0.99689375  1
  O  O312  1  0.51648074  0.89704056  0.49103867  1
  O  O313  1  0.48909983  0.88560701  1.01517946  1
  O  O314  1  0.99123527  0.36635734  0.48914522  1
  O  O315  1  0.99118378  0.38760326  1.00920827  1
  O  O316  1  1.00992766  0.88338062  0.48725838  1
  O  O317  1  0.96347557  0.85512590  1.06666633  1
  O  O318  1  0.48406782  0.48844153  0.38980404  1
  O  O319  1  0.49573652  0.49137457  0.88136737  1
  O  O320  1  0.48732149  1.01433661  0.38518248  1
  O  O321  1  0.51078974  0.99769827  0.89617368  1
  O  O322  1  0.99046951  0.48379965  0.37074202  1
  O  O323  1  0.98674829  0.50779753  0.88522611  1
  O  O324  1  0.99861204  0.98616218  0.37963150  1
  O  O325  1  0.98660511  1.00973927  0.87939340  1
  O  O326  1  0.01144691  0.01353691  0.12650721  1
  O  O327  1  -0.00395100  -0.00949020  0.61145529  1
  O  O328  1  -0.00546445  0.51065253  0.11428522  1
  O  O329  1  0.01593221  0.49713226  0.63384231  1
  O  O330  1  0.50178607  0.00988530  0.11888274  1
  O  O331  1  0.51093469  0.01183411  0.61203518  1
  O  O332  1  0.50607903  0.50767144  0.11904542  1
  O  O333  1  0.50359686  0.49096016  0.61690308  1
  O  O334  1  0.23571823  0.36629375  0.24344600  1
  O  O335  1  0.25611614  0.38239091  0.73977327  1
  O  O336  1  0.24021488  0.86937002  0.24162635  1
  O  O337  1  0.23595208  0.87806998  0.75216450  1
  O  O338  1  0.75290727  0.36962296  0.23585328  1
  O  O339  1  0.75846674  0.37480512  0.73327794  1
  O  O340  1  0.73058349  0.86163580  0.24562488  1
  O  O341  1  0.75259854  0.89540953  0.73169245  1
  O  O342  1  0.25852440  0.16498225  0.25873795  1
  O  O343  1  0.25407514  0.12745203  0.75946157  1
  O  O344  1  0.25555357  0.63030057  0.26291041  1
  O  O345  1  0.25455060  0.61768169  0.75859222  1
  O  O346  1  0.75956475  0.13336691  0.25664526  1
  O  O347  1  0.74496876  0.10604016  0.73574621  1
  O  O348  1  0.76550708  0.63809128  0.25042939  1
  O  O349  1  0.76412448  0.63868519  0.74796534  1
  O  O350  1  0.36096808  0.10637864  0.38534976  1
  O  O351  1  0.36384668  0.12451945  0.86875556  1
  O  O352  1  0.35869819  0.61713742  0.37324071  1
  O  O353  1  0.36446474  0.61734500  0.87322699  1
  O  O354  1  0.86853552  0.12367848  0.36478742  1
  O  O355  1  0.86495588  0.11252143  0.88465477  1
  O  O356  1  0.88362079  0.61634509  0.36233679  1
  O  O357  1  0.86887039  0.62021924  0.86302185  1
  O  O358  1  0.13078957  0.37003595  0.13664799  1
  O  O359  1  0.13171795  0.38298172  0.62059193  1
  O  O360  1  0.13295915  0.88632131  0.13225807  1
  O  O361  1  0.12923478  0.87945695  0.64225000  1
  O  O362  1  0.63749686  0.38318640  0.11857083  1
  O  O363  1  0.63723160  0.37798085  0.63000268  1
  O  O364  1  0.63430075  0.87164902  0.13556329  1
  O  O365  1  0.62268170  0.89272664  0.60790624  1
  O  O366  1  0.11134294  0.25473290  0.24509637  1
  O  O367  1  0.11557990  0.25286807  0.75513703  1
  O  O368  1  0.11704506  0.76300930  0.24337748  1
  O  O369  1  0.10947070  0.75158945  0.75295620  1
  O  O370  1  0.61162486  0.26011352  0.24193242  1
  O  O371  1  0.61982272  0.25336911  0.75751336  1
  O  O372  1  0.61217295  0.75182018  0.25171946  1
  O  O373  1  0.62185891  0.76788062  0.73424328  1
  O  O374  1  0.39022213  0.25903457  0.23360584  1
  O  O375  1  0.38351555  0.24979132  0.73849456  1
  O  O376  1  0.38849245  0.73704998  0.26079452  1
  O  O377  1  0.37316956  0.73335817  0.75463094  1
  O  O378  1  0.88731676  0.24174505  0.23651874  1
  O  O379  1  0.87148393  0.24139473  0.73011692  1
  O  O380  1  0.89174061  0.74099136  0.24201846  1
  O  O381  1  0.88313701  0.74478638  0.74155189  1
  O  O382  1  0.37722072  0.48822337  0.49884397  1
  O  O383  1  0.38078789  0.49438484  0.99414986  1
  O  O384  1  0.39325475  0.99960033  0.50655449  1
  O  O385  1  0.38881106  0.99253729  0.99747408  1
  O  O386  1  0.87439455  0.49122302  0.49239453  1
  O  O387  1  0.88159855  0.49667200  0.99328621  1
  O  O388  1  0.89056665  1.00442276  0.49354715  1
  O  O389  1  0.84772041  0.98920858  0.98061261  1
  O  O390  1  0.11991696  -0.01023256  0.01080438  1
  O  O391  1  0.11262121  0.00702242  0.50347067  1
  O  O392  1  0.11524093  0.51013110  -0.00679318  1
  O  O393  1  0.12785097  0.50026956  0.51188313  1
  O  O394  1  0.61853806  0.00686475  0.00824874  1
  O  O395  1  0.61765361  0.01758329  0.50265258  1
  O  O396  1  0.62060047  0.50760799  0.00877853  1
  O  O397  1  0.60319780  0.48740235  0.51614041  1
  O  O398  1  0.36837300  0.36824235  0.12041984  1
  O  O399  1  0.36647580  0.36701073  0.61785303  1
  O  O400  1  0.36170548  0.88393362  0.12149559  1
  O  O401  1  0.36277636  0.86935734  0.62626616  1
  O  O402  1  0.87251450  0.36882654  0.12008701  1
  O  O403  1  0.87043836  0.37574205  0.61512188  1
  O  O404  1  0.85232286  0.86358484  0.15643522  1
  O  O405  1  0.88048599  0.86173392  0.62612806  1
  O  O406  1  0.13072129  0.11641549  0.39172291  1
  O  O407  1  0.14164283  0.13805963  0.87118781  1
  O  O408  1  0.13417151  0.62129457  0.38366253  1
  O  O409  1  0.13289252  0.62574209  0.88355946  1
  O  O410  1  0.63260472  0.12541554  0.38041966  1
  O  O411  1  0.62124579  0.13143551  0.89019163  1
  O  O412  1  0.63105306  0.58515825  0.38310011  1
  O  O413  1  0.62507533  0.61846792  0.88862568  1
