# generated using pymatgen
data_V79Zn79O256
_symmetry_space_group_name_H-M   'P 1'
_cell_length_a   16.91943795
_cell_length_b   16.90850611
_cell_length_c   16.90796308
_cell_angle_alpha   90.05077606
_cell_angle_beta   90.08321072
_cell_angle_gamma   90.08392900
_symmetry_Int_Tables_number   1
_chemical_formula_structural   V79Zn79O256
_chemical_formula_sum   'V79 Zn79 O256'
_cell_volume   4837.05879348
_cell_formula_units_Z   1
loop_
 _symmetry_equiv_pos_site_id
 _symmetry_equiv_pos_as_xyz
  1  'x, y, z'
loop_
 _atom_site_type_symbol
 _atom_site_label
 _atom_site_symmetry_multiplicity
 _atom_site_fract_x
 _atom_site_fract_y
 _atom_site_fract_z
 _atom_site_occupancy
  V  V0  1  0.00765156  0.25004170  0.25390501  1
  V  V1  1  0.00061295  0.86803809  0.37063199  1
  V  V2  1  0.50214138  0.87955441  0.87728159  1
  V  V3  1  -0.00150218  0.12858737  0.63064696  1
  V  V4  1  0.87556780  0.62853308  0.74722681  1
  V  V5  1  0.75607086  0.49485806  0.25586530  1
  V  V6  1  0.87025824  0.87082460  0.49561322  1
  V  V7  1  0.01089593  0.75786355  0.74622922  1
  V  V8  1  0.37742129  0.12147191  0.74834435  1
  V  V9  1  0.75529762  0.86765478  0.10463590  1
  V  V10  1  0.49744172  0.49537068  -0.01657482  1
  V  V11  1  0.13143543  0.74441899  0.36865353  1
  V  V12  1  0.88077669  0.25156217  0.64049428  1
  V  V13  1  0.12256537  0.25403361  0.85661390  1
  V  V14  1  0.24627129  0.13038595  0.88132740  1
  V  V15  1  -0.00018683  -0.00185950  0.00032855  1
  V  V16  1  0.37840231  0.25454188  0.12981118  1
  V  V17  1  0.62210365  0.24993936  0.37387576  1
  V  V18  1  0.00018962  0.62691568  0.62350771  1
  V  V19  1  0.75016403  0.13131782  0.88187875  1
  V  V20  1  0.37484520  0.62519641  0.75279884  1
  V  V21  1  0.39898014  0.48649326  0.40452088  1
  V  V22  1  0.37915444  0.12404911  0.26437207  1
  V  V23  1  0.24868908  0.87582158  0.62593612  1
  V  V24  1  0.24813848  0.37588039  0.63837844  1
  V  V25  1  0.50305233  0.25361275  0.76311098  1
  V  V26  1  0.00088384  0.49822149  0.50283460  1
  V  V27  1  0.25120400  0.75419630  0.49973434  1
  V  V28  1  0.87534691  0.49928276  0.88018317  1
  V  V29  1  0.37223574  0.87055590  -0.00274524  1
  V  V30  1  0.87599736  0.37406851  0.49425987  1
  V  V31  1  0.62519125  -0.00007552  0.12332897  1
  V  V32  1  0.11912028  -0.00435837  0.62708565  1
  V  V33  1  0.74948058  -0.00269888  0.24654818  1
  V  V34  1  0.75395852  0.88874495  0.62575142  1
  V  V35  1  0.13481038  0.74284852  0.88510880  1
  V  V36  1  0.87224068  0.26425853  0.12605104  1
  V  V37  1  0.37760576  0.25486911  0.62242481  1
  V  V38  1  0.61003378  0.00200656  0.62336127  1
  V  V39  1  0.36250906  0.74151175  0.12262963  1
  V  V40  1  0.61867496  0.36826417  0.25161024  1
  V  V41  1  0.62868949  0.13755431  -0.00150267  1
  V  V42  1  0.87544426  -0.00023972  0.36624715  1
  V  V43  1  0.00761949  0.87892264  0.86812203  1
  V  V44  1  0.62388549  0.11851030  0.50414959  1
  V  V45  1  0.12976878  0.49945876  0.63701145  1
  V  V46  1  0.75913865  0.12511071  0.36916592  1
  V  V47  1  0.75288864  0.63017989  0.88513419  1
  V  V48  1  0.86929460  0.75207832  0.62090994  1
  V  V49  1  0.12727812  0.12200994  0.01481851  1
  V  V50  1  0.86878366  0.11972657  0.75341068  1
  V  V51  1  0.19939150  0.30478149  0.06311950  1
  V  V52  1  0.75153056  0.37775502  0.62880503  1
  V  V53  1  0.00664182  0.00995480  0.48772717  1
  V  V54  1  0.00054047  0.61321956  0.10868138  1
  V  V55  1  0.63914160  0.63236687  0.48918658  1
  V  V56  1  0.38194714  0.36752833  -0.01026132  1
  V  V57  1  0.63337284  0.75417762  0.88863838  1
  V  V58  1  0.50482680  0.75312709  0.75277471  1
  V  V59  1  0.24607362  0.25836715  0.48052258  1
  V  V60  1  0.75506878  0.64020860  0.36365599  1
  V  V61  1  -0.01370866  0.11568398  0.13407599  1
  V  V62  1  0.49394913  0.62261048  0.12886898  1
  V  V63  1  0.51188911  0.62188876  0.61759328  1
  V  V64  1  0.75917874  0.24942670  0.50064087  1
  V  V65  1  0.24196281  0.88477707  0.11699347  1
  V  V66  1  -0.01158858  0.73474544  0.24426285  1
  V  V67  1  0.13246490  0.62461751  0.49876321  1
  V  V68  1  0.25513901  -0.00327955  0.26699155  1
  V  V69  1  0.01640955  0.49137143  -0.00260479  1
  V  V70  1  0.62835900  0.49361784  0.12547230  1
  V  V71  1  0.74571060  0.50312241  0.74430485  1
  V  V72  1  0.01850440  0.37245298  0.37332154  1
  V  V73  1  0.87193503  -0.00461180  0.87627914  1
  V  V74  1  -0.00752872  0.36835079  0.86082754  1
  V  V75  1  0.24045155  -0.00247785  0.75306476  1
  V  V76  1  0.63353667  0.88417088  0.75183880  1
  V  V77  1  0.50106223  0.12944631  0.12969906  1
  V  V78  1  0.39747085  0.77191848  0.60769810  1
  Zn  Zn79  1  0.85676338  0.73256456  0.10298373  1
  Zn  Zn80  1  0.75334696  0.28306649  0.00838034  1
  Zn  Zn81  1  0.59159208  0.46226488  0.59328465  1
  Zn  Zn82  1  0.12222803  0.88069540  0.24141872  1
  Zn  Zn83  1  0.44479868  0.30348263  0.32031654  1
  Zn  Zn84  1  0.13491815  0.13141801  0.48963553  1
  Zn  Zn85  1  0.62591956  0.62722405  0.00224341  1
  Zn  Zn86  1  0.87632008  0.50388121  0.37048821  1
  Zn  Zn87  1  0.29870970  0.55400713  0.29193267  1
  Zn  Zn88  1  0.61715370  0.86239258  0.26131971  1
  Zn  Zn89  1  0.37138689  -0.00005291  0.87622373  1
  Zn  Zn90  1  0.61441523  0.37654929  0.76397408  1
  Zn  Zn91  1  0.49685146  0.75208327  0.25536967  1
  Zn  Zn92  1  0.49829154  0.00456141  -0.00114169  1
  Zn  Zn93  1  0.25550700  0.50981839  0.77285409  1
  Zn  Zn94  1  0.19076650  0.17910886  0.20300931  1
  Zn  Zn95  1  0.18584870  0.18291321  0.68437080  1
  Zn  Zn96  1  0.17557251  0.69094283  0.17009776  1
  Zn  Zn97  1  0.19014124  0.68940455  0.68598285  1
  Zn  Zn98  1  0.69246322  0.18694537  0.18550291  1
  Zn  Zn99  1  0.69054622  0.18607744  0.68957185  1
  Zn  Zn100  1  0.67822152  0.68957118  0.18911803  1
  Zn  Zn101  1  0.68866417  0.69259561  0.69063008  1
  Zn  Zn102  1  0.29736151  0.37755648  0.33067930  1
  Zn  Zn103  1  0.31027999  0.31043907  0.80759278  1
  Zn  Zn104  1  0.31502482  0.80848075  0.30650890  1
  Zn  Zn105  1  0.31539641  0.81058483  0.80571867  1
  Zn  Zn106  1  0.81462040  0.31290293  0.30504541  1
  Zn  Zn107  1  0.78101229  0.32937581  0.83607207  1
  Zn  Zn108  1  0.81213725  0.81616873  0.29829979  1
  Zn  Zn109  1  0.81694508  0.81383768  0.81306205  1
  Zn  Zn110  1  0.19748741  0.44078315  0.45742061  1
  Zn  Zn111  1  0.18813761  0.42920750  0.93422798  1
  Zn  Zn112  1  0.18579017  0.93392492  0.43853512  1
  Zn  Zn113  1  0.18232840  0.93722892  0.93757980  1
  Zn  Zn114  1  0.58049428  0.43926878  0.43600042  1
  Zn  Zn115  1  0.68453041  0.43623955  0.93857136  1
  Zn  Zn116  1  0.68806295  0.93580853  0.43708193  1
  Zn  Zn117  1  0.68907229  0.94592069  0.94001091  1
  Zn  Zn118  1  0.31622325  0.06064625  0.06471082  1
  Zn  Zn119  1  0.29675821  0.06909476  0.56583067  1
  Zn  Zn120  1  0.30904678  0.55713282  0.04594968  1
  Zn  Zn121  1  0.32071608  0.56801105  0.57126972  1
  Zn  Zn122  1  0.81350691  0.06062911  0.06045082  1
  Zn  Zn123  1  0.82301421  0.06452066  0.55600681  1
  Zn  Zn124  1  0.81646221  0.54832020  0.06646968  1
  Zn  Zn125  1  0.80918883  0.56247483  0.55511424  1
  Zn  Zn126  1  0.43711476  0.44095551  0.18890031  1
  Zn  Zn127  1  0.43489229  0.43762812  0.69153774  1
  Zn  Zn128  1  0.43567982  0.93863010  0.19153534  1
  Zn  Zn129  1  0.43197482  0.94216496  0.53236113  1
  Zn  Zn130  1  0.94448318  0.43729398  0.19083612  1
  Zn  Zn131  1  0.93532117  0.43911333  0.68850732  1
  Zn  Zn132  1  0.93793133  0.92970635  0.18479457  1
  Zn  Zn133  1  0.93653401  0.94103609  0.68806111  1
  Zn  Zn134  1  0.06850043  0.06141656  0.31077242  1
  Zn  Zn135  1  0.06037527  0.07003519  0.81500525  1
  Zn  Zn136  1  0.05831265  0.56353863  0.31896038  1
  Zn  Zn137  1  0.06134757  0.56707381  0.81399918  1
  Zn  Zn138  1  0.56562062  0.05920114  0.31598554  1
  Zn  Zn139  1  0.56545892  0.06586398  0.81203268  1
  Zn  Zn140  1  0.56565705  0.56725647  0.30861083  1
  Zn  Zn141  1  0.56651793  0.56821620  0.81072781  1
  Zn  Zn142  1  0.41328428  0.13379827  0.47373542  1
  Zn  Zn143  1  0.43712093  0.18798307  0.94016636  1
  Zn  Zn144  1  0.42674092  0.67180315  0.43216940  1
  Zn  Zn145  1  0.44058693  0.68905488  0.94095110  1
  Zn  Zn146  1  0.95650401  0.17896903  0.43179136  1
  Zn  Zn147  1  0.93581679  0.18625768  0.94132915  1
  Zn  Zn148  1  0.93679889  0.68449858  0.43619097  1
  Zn  Zn149  1  0.94014091  0.68751743  0.93217933  1
  Zn  Zn150  1  0.03371795  0.30455194  0.05316300  1
  Zn  Zn151  1  0.06687558  0.31281294  0.56523761  1
  Zn  Zn152  1  0.02649542  0.79257027  0.04019357  1
  Zn  Zn153  1  0.06171459  0.81515212  0.55865974  1
  Zn  Zn154  1  0.56167280  0.31381381  0.06322709  1
  Zn  Zn155  1  0.56340461  0.29262794  0.56670733  1
  Zn  Zn156  1  0.54841100  0.82548177  0.08784332  1
  Zn  Zn157  1  0.57383051  0.80951438  0.55984632  1
  O  O158  1  0.12232678  0.12832302  0.11814723  1
  O  O159  1  0.11365226  0.11840596  0.61761760  1
  O  O160  1  0.10032004  0.62207711  0.12326805  1
  O  O161  1  0.11953005  0.62072565  0.61746342  1
  O  O162  1  0.62034093  0.12110885  0.12035520  1
  O  O163  1  0.63748990  0.11677228  0.61266186  1
  O  O164  1  0.61015764  0.61616248  0.11937078  1
  O  O165  1  0.61857222  0.63198567  0.62059066  1
  O  O166  1  0.40075789  0.37810610  0.39585111  1
  O  O167  1  0.36771953  0.36592069  0.89158406  1
  O  O168  1  0.40872793  0.83231972  0.37331093  1
  O  O169  1  0.38525350  0.87332956  0.87886766  1
  O  O170  1  0.87622509  0.37664378  0.38750008  1
  O  O171  1  0.88596664  0.38299340  0.86667748  1
  O  O172  1  0.88029860  0.87561133  0.37785056  1
  O  O173  1  0.88679923  0.88746137  0.86850982  1
  O  O174  1  0.26024088  -0.01639828  0.36608294  1
  O  O175  1  0.24480944  0.00998281  0.86771991  1
  O  O176  1  0.27273061  0.48141762  0.38575139  1
  O  O177  1  0.26125747  0.50866162  0.89323012  1
  O  O178  1  0.75725429  0.00453752  0.36780435  1
  O  O179  1  0.76434008  0.01218649  0.88202296  1
  O  O180  1  0.75163533  0.50930198  0.35836964  1
  O  O181  1  0.76028534  0.51226168  0.86366453  1
  O  O182  1  0.24469794  0.53819567  0.14028794  1
  O  O183  1  0.24566916  0.48931995  0.62011491  1
  O  O184  1  0.25391378  0.98758298  0.13130209  1
  O  O185  1  0.23727150  0.99693505  0.63241679  1
  O  O186  1  0.73434605  0.51291740  0.13828805  1
  O  O187  1  0.75778562  0.49270790  0.63145418  1
  O  O188  1  0.74669857  0.99432622  0.13002368  1
  O  O189  1  0.75587452  0.99062290  0.62234526  1
  O  O190  1  0.00301734  0.37113055  0.26660370  1
  O  O191  1  0.00238483  0.37864737  0.76175767  1
  O  O192  1  0.00334865  0.86128278  0.25464858  1
  O  O193  1  -0.00363826  0.86869383  0.75420182  1
  O  O194  1  0.51504599  0.36918566  0.24982399  1
  O  O195  1  0.49970139  0.36021558  0.74761918  1
  O  O196  1  0.51298479  0.86030480  0.20320550  1
  O  O197  1  0.51638488  0.86625989  0.76218067  1
  O  O198  1  0.49038114  0.11349976  0.24261134  1
  O  O199  1  0.48217184  0.12855510  0.75596945  1
  O  O200  1  0.49582986  0.62164078  0.23128369  1
  O  O201  1  0.49993478  0.63774540  0.74563175  1
  O  O202  1  1.00320378  0.12525873  0.23760183  1
  O  O203  1  0.98738173  0.12139986  0.73877345  1
  O  O204  1  0.99790744  0.63015816  0.24769421  1
  O  O205  1  0.99374798  0.63543189  0.74251630  1
  O  O206  1  0.37840792  0.25965431  0.01053154  1
  O  O207  1  0.36429552  0.23861554  0.51920135  1
  O  O208  1  0.37650329  0.76075295  0.00609511  1
  O  O209  1  0.35877178  0.73289429  0.50888191  1
  O  O210  1  0.88250055  0.24536893  0.02195159  1
  O  O211  1  0.87000058  0.25457231  0.50451026  1
  O  O212  1  0.91697964  0.75998077  0.01181839  1
  O  O213  1  0.88595695  0.76153866  0.50842576  1
  O  O214  1  0.14038446  0.25374095  0.49848682  1
  O  O215  1  0.13414717  0.24501668  1.00174945  1
  O  O216  1  0.12948255  0.74334008  0.49144139  1
  O  O217  1  0.12066398  0.75563710  0.98496484  1
  O  O218  1  0.64282239  0.23853674  0.49668254  1
  O  O219  1  0.63436522  0.24100425  1.01073880  1
  O  O220  1  0.62795972  0.73418944  0.49901713  1
  O  O221  1  0.61938829  0.75229752  0.98910732  1
  O  O222  1  0.49569157  0.23776513  0.12560258  1
  O  O223  1  0.48084403  0.24575754  0.63308450  1
  O  O224  1  0.49073529  0.72798390  0.11173541  1
  O  O225  1  0.50784719  0.74069101  0.63872291  1
  O  O226  1  0.99236385  0.23533727  0.13362467  1
  O  O227  1  0.99153691  0.24153581  0.61826579  1
  O  O228  1  1.00686946  0.73785457  0.14078618  1
  O  O229  1  0.99310842  0.74876806  0.62801196  1
  O  O230  1  -0.00436558  0.26627562  0.37103216  1
  O  O231  1  0.00783419  0.26050698  0.88115808  1
  O  O232  1  0.00605842  0.75061854  0.36453082  1
  O  O233  1  0.00794277  0.76016908  0.86297053  1
  O  O234  1  0.52269462  0.23934798  0.37753513  1
  O  O235  1  0.49805385  0.24711301  0.86288722  1
  O  O236  1  0.46160087  0.76891375  0.37034176  1
  O  O237  1  0.51211957  0.75972474  0.87107441  1
  O  O238  1  0.24883199  0.14844577  0.49437106  1
  O  O239  1  0.24262866  0.11740074  0.99007794  1
  O  O240  1  0.23768328  0.63425133  0.51215769  1
  O  O241  1  0.25960826  0.57681327  0.94113361  1
  O  O242  1  0.75271541  0.13212699  0.49042016  1
  O  O243  1  0.74029568  0.12104315  0.99762733  1
  O  O244  1  0.74656788  0.62901401  0.48555765  1
  O  O245  1  0.75067377  0.61661928  0.98780566  1
  O  O246  1  0.26041476  0.37236418  0.00927544  1
  O  O247  1  0.25323051  0.35978066  0.52122449  1
  O  O248  1  0.25682882  0.88332698  0.00831188  1
  O  O249  1  0.24466575  0.86328261  0.50856751  1
  O  O250  1  0.75821906  0.39441590  0.00982056  1
  O  O251  1  0.76109242  0.36372446  0.51258265  1
  O  O252  1  0.75607502  0.87733053  0.00517877  1
  O  O253  1  0.76239286  0.87812710  0.50554165  1
  O  O254  1  0.11709922  0.49672579  0.23391953  1
  O  O255  1  0.13568756  0.51516405  0.74000870  1
  O  O256  1  0.14657683  0.99937884  0.25686781  1
  O  O257  1  0.12955377  1.01122227  0.73997714  1
  O  O258  1  0.62949565  0.48806859  0.24491232  1
  O  O259  1  0.64120721  0.50015651  0.75194879  1
  O  O260  1  0.63425372  1.00485161  0.23517909  1
  O  O261  1  0.62103921  0.99240573  0.74017415  1
  O  O262  1  0.36833928  0.01053336  0.24744453  1
  O  O263  1  0.35949910  0.01758257  0.75354439  1
  O  O264  1  0.35848441  0.45600201  0.26594169  1
  O  O265  1  0.37818844  0.52041605  0.74980752  1
  O  O266  1  0.86551069  -0.01052694  0.25896562  1
  O  O267  1  0.87583908  0.01027471  0.75930931  1
  O  O268  1  0.86034000  0.49298927  0.24711685  1
  O  O269  1  0.87222958  0.51130245  0.75676638  1
  O  O270  1  0.11579579  0.38188556  0.38542663  1
  O  O271  1  0.11768074  0.36051302  0.87347480  1
  O  O272  1  0.11442114  0.86306534  0.37319633  1
  O  O273  1  0.11225588  0.87211717  0.87074408  1
  O  O274  1  0.62888882  0.36497455  0.36198759  1
  O  O275  1  0.67005431  0.36006400  0.85827477  1
  O  O276  1  0.59536479  0.90498646  0.37389524  1
  O  O277  1  0.62472138  0.87442827  0.87119220  1
  O  O278  1  0.38336439  0.13367601  0.12725673  1
  O  O279  1  0.35677100  0.13963555  0.64479092  1
  O  O280  1  0.38029711  0.63305419  0.10681689  1
  O  O281  1  0.39518435  0.64068314  0.63209604  1
  O  O282  1  0.88534123  0.12391663  0.12929402  1
  O  O283  1  0.87316590  0.13219706  0.63851177  1
  O  O284  1  0.89034038  0.62242664  0.11880425  1
  O  O285  1  0.87915345  0.63465593  0.62430887  1
  O  O286  1  0.25647598  0.24851996  0.13085811  1
  O  O287  1  0.25494230  0.26445933  0.63954087  1
  O  O288  1  0.25840956  0.75647639  0.12230780  1
  O  O289  1  0.25211844  0.76140670  0.61815963  1
  O  O290  1  0.76834511  0.24773688  0.12749338  1
  O  O291  1  0.76187504  0.25526665  0.62058843  1
  O  O292  1  0.74599854  0.76228120  0.12503418  1
  O  O293  1  0.76468547  0.76217084  0.62999670  1
  O  O294  1  0.25803411  0.27945561  0.38256326  1
  O  O295  1  0.23334715  0.24353616  0.86790480  1
  O  O296  1  0.24103434  0.75548397  0.38269850  1
  O  O297  1  0.23284062  0.76191260  0.86559413  1
  O  O298  1  0.75040772  0.24226005  0.38064110  1
  O  O299  1  0.77139420  0.23250541  0.89682020  1
  O  O300  1  0.75514648  0.73977106  0.36210140  1
  O  O301  1  0.74649435  0.74192262  0.87009006  1
  O  O302  1  0.00771398  0.12101912  0.01511343  1
  O  O303  1  -0.03164256  0.11308239  0.52697839  1
  O  O304  1  0.00114978  0.60709127  0.00159668  1
  O  O305  1  0.00933644  0.61956131  0.50414302  1
  O  O306  1  0.50990829  0.12616391  0.00766692  1
  O  O307  1  0.52629415  0.13100687  0.49724742  1
  O  O308  1  0.49794705  0.60684255  0.00241480  1
  O  O309  1  0.50608184  0.63248375  0.51416799  1
  O  O310  1  0.53159159  0.38864052  0.52429352  1
  O  O311  1  0.49245456  0.38029371  0.99732674  1
  O  O312  1  0.46566221  0.83727054  0.54134933  1
  O  O313  1  0.49283050  0.87594148  0.99229757  1
  O  O314  1  0.99532952  0.37701026  0.49246354  1
  O  O315  1  0.99853461  0.38630448  0.98426064  1
  O  O316  1  0.99404443  0.88120371  0.48651612  1
  O  O317  1  1.00745582  0.89362327  0.98782281  1
  O  O318  1  0.50227604  0.50120923  0.37748440  1
  O  O319  1  0.50562481  0.50020047  0.88433857  1
  O  O320  1  0.53505841  0.96514440  0.37878634  1
  O  O321  1  0.49972660  0.98908485  0.87476597  1
  O  O322  1  0.99640226  0.48770009  0.38107018  1
  O  O323  1  0.99785890  0.49096597  0.87864040  1
  O  O324  1  0.99109573  0.98108301  0.36675806  1
  O  O325  1  0.99436092  0.99785287  0.87845768  1
  O  O326  1  -0.00528428  0.00826037  0.11957971  1
  O  O327  1  0.00613974  0.00350994  0.61803227  1
  O  O328  1  -0.00431626  0.50174577  0.10829659  1
  O  O329  1  0.00949774  0.50521465  0.62351557  1
  O  O330  1  0.50881010  0.01191540  0.12210333  1
  O  O331  1  0.51320620  -0.00514211  0.61253454  1
  O  O332  1  0.50513547  0.50683399  0.12033550  1
  O  O333  1  0.50323502  0.51956714  0.64153895  1
  O  O334  1  0.16667134  0.44234565  0.24632061  1
  O  O335  1  0.25654820  0.39162902  0.74444750  1
  O  O336  1  0.25606616  0.88407149  0.23886638  1
  O  O337  1  0.25149641  0.89074987  0.74355041  1
  O  O338  1  0.73993482  0.38761670  0.25199069  1
  O  O339  1  0.77185137  0.38963792  0.73618327  1
  O  O340  1  0.73703965  0.88750461  0.24945065  1
  O  O341  1  0.74138311  0.87306540  0.74248325  1
  O  O342  1  0.26570082  0.11045237  0.25347544  1
  O  O343  1  0.25077983  0.12044041  0.76232001  1
  O  O344  1  0.24938241  0.59832055  0.19812023  1
  O  O345  1  0.27052373  0.62787505  0.73682705  1
  O  O346  1  0.74748005  0.11351334  0.26080510  1
  O  O347  1  0.76003389  0.13264503  0.76487102  1
  O  O348  1  0.74166399  0.61622504  0.25867674  1
  O  O349  1  0.75705127  0.62109722  0.75404980  1
  O  O350  1  0.38804345  0.13112790  0.36160189  1
  O  O351  1  0.36221475  0.12851306  0.86885586  1
  O  O352  1  0.37983628  0.59237223  0.36620109  1
  O  O353  1  0.38313267  0.64886581  0.85041255  1
  O  O354  1  0.87054870  0.11099737  0.37869564  1
  O  O355  1  0.87524694  0.11709464  0.86966337  1
  O  O356  1  0.86102205  0.62114363  0.37920836  1
  O  O357  1  0.87111130  0.62148635  0.86747072  1
  O  O358  1  0.13086732  0.35737199  0.11075054  1
  O  O359  1  0.13587047  0.38553023  0.62723955  1
  O  O360  1  0.14232191  0.86767451  0.12468534  1
  O  O361  1  0.13089013  0.88603534  0.62186914  1
  O  O362  1  0.62054134  0.38213025  0.13766339  1
  O  O363  1  0.64520480  0.36759234  0.64122821  1
  O  O364  1  0.64222090  0.88903597  0.11529208  1
  O  O365  1  0.63574944  0.88412051  0.62940993  1
  O  O366  1  0.10918040  0.24032980  0.25276106  1
  O  O367  1  0.11643435  0.24245791  0.75872135  1
  O  O368  1  0.12166338  0.74721923  0.25920852  1
  O  O369  1  0.11338898  0.74932824  0.74826667  1
  O  O370  1  0.63762300  0.26093082  0.25699929  1
  O  O371  1  0.60289091  0.23835819  0.74076039  1
  O  O372  1  0.61154774  0.74715717  0.25842487  1
  O  O373  1  0.62240046  0.76098728  0.75989165  1
  O  O374  1  0.37994970  0.23545953  0.24478439  1
  O  O375  1  0.38247317  0.24261840  0.74723808  1
  O  O376  1  0.37790980  0.74736891  0.22570507  1
  O  O377  1  0.39024578  0.75607686  0.73115933  1
  O  O378  1  0.88984883  0.25283523  0.24008778  1
  O  O379  1  0.87426425  0.24419486  0.74167806  1
  O  O380  1  0.88812387  0.74998521  0.24315063  1
  O  O381  1  0.88492556  0.74775577  0.73955847  1
  O  O382  1  0.38866704  0.50448176  0.50307125  1
  O  O383  1  0.38888798  0.48068917  1.00665058  1
  O  O384  1  0.37683375  1.02889173  0.49937055  1
  O  O385  1  0.37851292  0.98825593  0.99601226  1
  O  O386  1  0.88353871  0.48957663  0.50198897  1
  O  O387  1  0.88378314  0.50335696  0.98220376  1
  O  O388  1  0.88260559  0.98810181  0.48476656  1
  O  O389  1  0.88922506  1.00986606  0.98838415  1
  O  O390  1  0.11321317  0.01387736  -0.00709611  1
  O  O391  1  0.12233646  0.00069380  0.51012652  1
  O  O392  1  0.11510328  0.49467096  -0.00476045  1
  O  O393  1  0.12065942  0.50801408  0.51220188  1
  O  O394  1  0.62315574  0.01250473  0.01034765  1
  O  O395  1  0.63773437  0.01306674  0.50791617  1
  O  O396  1  0.60975756  0.49588461  0.00734815  1
  O  O397  1  0.62867850  0.52530357  0.50493829  1
  O  O398  1  0.38403702  0.35844817  0.12044739  1
  O  O399  1  0.36499031  0.36326718  0.63247196  1
  O  O400  1  0.36572049  0.86340237  0.11407311  1
  O  O401  1  0.35445937  0.87651502  0.62516578  1
  O  O402  1  0.88733903  0.36327218  0.12484544  1
  O  O403  1  0.87683175  0.36726315  0.61530651  1
  O  O404  1  0.85533860  0.87516569  0.12968342  1
  O  O405  1  0.87213222  0.87241084  0.61600476  1
  O  O406  1  0.05544865  0.10608137  0.41341398  1
  O  O407  1  0.12433856  0.14063090  0.88674829  1
  O  O408  1  0.12413861  0.63089618  0.38581538  1
  O  O409  1  0.12136378  0.64292370  0.87101456  1
  O  O410  1  0.64061865  0.12737944  0.38440635  1
  O  O411  1  0.63706341  0.12021964  0.88541974  1
  O  O412  1  0.63702139  0.62499203  0.38189226  1
  O  O413  1  0.63560824  0.63634222  0.87745998  1
