# generated using pymatgen
data_V79Zn79O256
_symmetry_space_group_name_H-M   'P 1'
_cell_length_a   16.89507161
_cell_length_b   16.90427107
_cell_length_c   16.89738166
_cell_angle_alpha   90.00801216
_cell_angle_beta   89.90962442
_cell_angle_gamma   89.74195538
_symmetry_Int_Tables_number   1
_chemical_formula_structural   V79Zn79O256
_chemical_formula_sum   'V79 Zn79 O256'
_cell_volume   4825.81811425
_cell_formula_units_Z   1
loop_
 _symmetry_equiv_pos_site_id
 _symmetry_equiv_pos_as_xyz
  1  'x, y, z'
loop_
 _atom_site_type_symbol
 _atom_site_label
 _atom_site_symmetry_multiplicity
 _atom_site_fract_x
 _atom_site_fract_y
 _atom_site_fract_z
 _atom_site_occupancy
  V  V0  1  0.25063805  0.12314451  0.87866609  1
  V  V1  1  0.25104864  0.62390960  0.38222229  1
  V  V2  1  0.86444546  0.51597735  0.87613411  1
  V  V3  1  0.61263492  0.13177273  0.51504447  1
  V  V4  1  0.12670932  0.87297075  0.74694133  1
  V  V5  1  0.13555129  0.88939676  0.24410384  1
  V  V6  1  0.37809422  0.12557659  0.74399025  1
  V  V7  1  0.86641947  0.87588977  0.50448584  1
  V  V8  1  -0.00466551  0.37594139  0.87437517  1
  V  V9  1  0.50644030  0.74711465  0.26247796  1
  V  V10  1  0.37428016  0.37540478  0.50183062  1
  V  V11  1  0.50686373  0.25167766  0.24674827  1
  V  V12  1  0.74686867  0.74828475  0.49165391  1
  V  V13  1  -0.00630815  0.74625590  0.75251119  1
  V  V14  1  -0.00087017  0.87602447  0.37525240  1
  V  V15  1  -0.00751308  0.50050939  0.49894456  1
  V  V16  1  0.36699828  0.62470870  0.24176952  1
  V  V17  1  0.62867748  0.62651849  -0.02231254  1
  V  V18  1  0.12990820  0.51115605  0.12874646  1
  V  V19  1  0.61933611  0.62707071  0.50321374  1
  V  V20  1  0.24378485  0.38211628  0.62869913  1
  V  V21  1  0.23722205  0.50885651  0.75225783  1
  V  V22  1  -0.00644064  0.38083625  0.37523814  1
  V  V23  1  0.51917195  0.86694794  0.86243312  1
  V  V24  1  0.87652991  0.74186076  0.12684455  1
  V  V25  1  0.12942033  0.12756333  0.00179037  1
  V  V26  1  0.13995217  0.37651350  0.24239030  1
  V  V27  1  0.12468523  -0.00248756  0.62585172  1
  V  V28  1  0.13275390  0.74967583  0.37906354  1
  V  V29  1  0.51221951  0.37097130  0.37154092  1
  V  V30  1  0.50738303  0.49964923  0.51146789  1
  V  V31  1  0.62436027  0.00022183  0.12278342  1
  V  V32  1  0.74576919  0.87373690  0.12790880  1
  V  V33  1  0.37144803  0.49868485  0.37248246  1
  V  V34  1  0.00075352  0.74760646  0.24704574  1
  V  V35  1  0.86594436  0.37260567  0.00647949  1
  V  V36  1  0.25147336  -0.00412622  0.74445749  1
  V  V37  1  0.87005616  0.74865905  0.62534845  1
  V  V38  1  0.74614357  0.51587479  0.75360427  1
  V  V39  1  0.73775851  0.48402138  0.25008959  1
  V  V40  1  0.35798000  0.75502160  0.62603777  1
  V  V41  1  0.49491539  0.37278884  0.87868915  1
  V  V42  1  0.74827662  0.25211433  0.50126705  1
  V  V43  1  0.74506631  0.00244457  0.25296572  1
  V  V44  1  0.74089412  0.23826021  -0.00813029  1
  V  V45  1  0.49634363  -0.02123405  0.50302222  1
  V  V46  1  0.73099882  0.13155136  0.37543953  1
  V  V47  1  0.87309805  0.12717430  0.25175933  1
  V  V48  1  0.49974322  0.50276306  0.00242955  1
  V  V49  1  0.87184137  0.00437124  0.37663200  1
  V  V50  1  0.13644169  0.75151112  0.87851897  1
  V  V51  1  0.49740064  0.12565294  0.11767473  1
  V  V52  1  0.87431045  0.87995932  -0.00141058  1
  V  V53  1  0.36655571  0.26468228  0.10869059  1
  V  V54  1  0.12536067  0.62214931  0.50444886  1
  V  V55  1  0.35145174  0.86636509  0.49668059  1
  V  V56  1  0.38222345  0.62189802  0.74414756  1
  V  V57  1  -0.00122579  0.00129403  -0.00475884  1
  V  V58  1  0.62131052  0.87046111  0.26497381  1
  V  V59  1  0.12740256  0.62993492  -0.00653133  1
  V  V60  1  0.87797230  0.61599437  0.26243214  1
  V  V61  1  0.37623696  -0.01347143  0.87271487  1
  V  V62  1  0.51359773  0.75024409  0.73896236  1
  V  V63  1  0.50090030  -0.01087647  -0.00615985  1
  V  V64  1  0.50660382  0.24275178  0.74805072  1
  V  V65  1  0.12699301  0.25194820  0.37660020  1
  V  V66  1  0.25700952  0.11842069  0.37077071  1
  V  V67  1  0.00549608  0.11703226  0.12819059  1
  V  V68  1  0.12306518  0.12639894  0.50839288  1
  V  V69  1  -0.00228674  0.00646078  0.50606517  1
  V  V70  1  0.52802673  0.61721642  0.13538285  1
  V  V71  1  -0.00067890  0.23888238  0.74883518  1
  V  V72  1  -0.00083318  0.25278889  0.24731313  1
  V  V73  1  0.63014229  0.37264951  0.75773907  1
  V  V74  1  -0.00036283  0.61959010  0.62801331  1
  V  V75  1  0.25027295  0.25127558  0.50436747  1
  V  V76  1  0.63361907  -0.02295935  0.62691289  1
  V  V77  1  0.74153495  0.74871912  -0.00814315  1
  V  V78  1  0.74790081  0.37860282  0.62891791  1
  Zn  Zn79  1  0.87228131  0.37667509  0.50196801  1
  Zn  Zn80  1  0.11472486  0.38217889  0.74354925  1
  Zn  Zn81  1  0.37252299  0.50961375  0.87976857  1
  Zn  Zn82  1  0.62964690  0.12039782  -0.01879202  1
  Zn  Zn83  1  0.37516274  -0.02039318  0.36484343  1
  Zn  Zn84  1  0.30316699  0.80513870  0.04497558  1
  Zn  Zn85  1  0.86424270  0.25665477  0.12968551  1
  Zn  Zn86  1  -0.01026393  0.51443570  0.00553400  1
  Zn  Zn87  1  0.37710367  0.24548460  0.62619273  1
  Zn  Zn88  1  0.87895637  0.24715297  0.63180310  1
  Zn  Zn89  1  0.62533873  0.37786739  0.20612608  1
  Zn  Zn90  1  0.74978216  0.61399951  0.37831229  1
  Zn  Zn91  1  -0.00513317  0.87772735  0.87361286  1
  Zn  Zn92  1  0.37096584  0.12036434  0.24098346  1
  Zn  Zn93  1  0.14756499  0.27511577  0.88752769  1
  Zn  Zn94  1  0.18864412  0.18955449  0.18497153  1
  Zn  Zn95  1  0.18524188  0.19501452  0.69646708  1
  Zn  Zn96  1  0.18679763  0.69210807  0.18595827  1
  Zn  Zn97  1  0.18459696  0.68572312  0.68880042  1
  Zn  Zn98  1  0.68733956  0.19126855  0.17835496  1
  Zn  Zn99  1  0.69167434  0.18674718  0.68872972  1
  Zn  Zn100  1  0.69576197  0.68955304  0.19645215  1
  Zn  Zn101  1  0.68694986  0.68427154  0.67405542  1
  Zn  Zn102  1  0.32164798  0.30296955  0.30910853  1
  Zn  Zn103  1  0.29844348  0.33297981  0.84032756  1
  Zn  Zn104  1  0.31032253  0.81210688  0.22282703  1
  Zn  Zn105  1  0.31302954  0.81301696  0.81368177  1
  Zn  Zn106  1  0.80902002  0.31320351  0.31587916  1
  Zn  Zn107  1  0.81738214  0.31139705  0.81719034  1
  Zn  Zn108  1  0.81281750  0.81198964  0.31441346  1
  Zn  Zn109  1  0.81304136  0.81124370  0.81445715  1
  Zn  Zn110  1  0.18292985  0.43950404  0.43751949  1
  Zn  Zn111  1  0.18798431  0.44841167  0.94012857  1
  Zn  Zn112  1  0.18670064  0.93763362  0.43151084  1
  Zn  Zn113  1  0.18384297  0.93945423  0.94941418  1
  Zn  Zn114  1  0.69296100  0.44156603  0.43246687  1
  Zn  Zn115  1  0.68225305  0.43356026  0.94550226  1
  Zn  Zn116  1  0.68472955  0.94476642  0.44479272  1
  Zn  Zn117  1  0.68945762  0.93554884  0.93419951  1
  Zn  Zn118  1  0.31430224  0.04815450  0.06023339  1
  Zn  Zn119  1  0.31189342  0.05832157  0.56129633  1
  Zn  Zn120  1  0.30499209  0.56320795  0.05802544  1
  Zn  Zn121  1  0.31502561  0.56424773  0.56667683  1
  Zn  Zn122  1  0.81651537  0.06678696  0.06530500  1
  Zn  Zn123  1  0.80406747  0.06363429  0.56286531  1
  Zn  Zn124  1  0.80335143  0.56086158  0.06716289  1
  Zn  Zn125  1  0.81109398  0.56459033  0.56737254  1
  Zn  Zn126  1  0.43517628  0.43759697  0.18585223  1
  Zn  Zn127  1  0.43717247  0.43003091  0.69086588  1
  Zn  Zn128  1  0.44102190  0.93686038  0.18879964  1
  Zn  Zn129  1  0.44065053  0.93394896  0.68025239  1
  Zn  Zn130  1  0.94759983  0.44064240  0.18267148  1
  Zn  Zn131  1  0.92760685  0.44130543  0.69005972  1
  Zn  Zn132  1  0.93625946  0.93707404  0.18759818  1
  Zn  Zn133  1  0.93856483  0.93350330  0.68556428  1
  Zn  Zn134  1  0.06355842  0.06653255  0.31893086  1
  Zn  Zn135  1  0.06284047  0.06262589  0.81930388  1
  Zn  Zn136  1  0.06346864  0.56087782  0.31218011  1
  Zn  Zn137  1  0.05396754  0.56434046  0.81935702  1
  Zn  Zn138  1  0.53552007  0.04963232  0.30492689  1
  Zn  Zn139  1  0.56542758  0.05165954  0.80137155  1
  Zn  Zn140  1  0.56335842  0.55729234  0.32249988  1
  Zn  Zn141  1  0.56087160  0.56057447  0.80892102  1
  Zn  Zn142  1  0.44039431  0.19173073  0.43499869  1
  Zn  Zn143  1  0.43596282  0.18207579  0.93262812  1
  Zn  Zn144  1  0.43457243  0.68871107  0.44036225  1
  Zn  Zn145  1  0.40896472  0.70236865  0.92242136  1
  Zn  Zn146  1  0.93364202  0.19206775  0.43623328  1
  Zn  Zn147  1  0.93398459  0.18884263  0.93430742  1
  Zn  Zn148  1  0.94055335  0.68946052  0.43943824  1
  Zn  Zn149  1  0.94094770  0.69202927  0.94439815  1
  Zn  Zn150  1  0.06017698  0.31457157  0.06020151  1
  Zn  Zn151  1  0.06116591  0.31469227  0.56567418  1
  Zn  Zn152  1  0.06615168  0.81746519  0.06618542  1
  Zn  Zn153  1  0.06085964  0.81070157  0.56298683  1
  Zn  Zn154  1  0.56206970  0.30749799  0.05445721  1
  Zn  Zn155  1  0.56483413  0.31717379  0.56814970  1
  Zn  Zn156  1  0.51502021  0.77760690  0.03813836  1
  Zn  Zn157  1  0.55910834  0.80446355  0.56181376  1
  O  O158  1  0.11478381  0.12993654  0.11954213  1
  O  O159  1  0.12953384  0.11700596  0.61543015  1
  O  O160  1  0.12505427  0.61603457  0.12502117  1
  O  O161  1  0.11246092  0.63460729  0.61478526  1
  O  O162  1  0.61716970  0.11027333  0.12286092  1
  O  O163  1  0.62900278  0.11822596  0.61522170  1
  O  O164  1  0.62707408  0.61369251  0.13974725  1
  O  O165  1  0.62790554  0.61522375  0.60411940  1
  O  O166  1  0.37816050  0.38022569  0.38422656  1
  O  O167  1  0.39416181  0.39012194  0.85875600  1
  O  O168  1  0.36936372  0.86889152  0.39707420  1
  O  O169  1  0.39059467  0.88390511  0.86037706  1
  O  O170  1  0.89000323  0.36724920  0.38049619  1
  O  O171  1  0.87992487  0.38671660  0.88605656  1
  O  O172  1  0.88176604  0.88236778  0.38251917  1
  O  O173  1  0.87563720  0.86982743  0.89472930  1
  O  O174  1  0.25696377  0.01457282  0.38323253  1
  O  O175  1  0.25862076  0.00438755  0.86176638  1
  O  O176  1  0.26011962  0.50835393  0.38107721  1
  O  O177  1  0.25678954  0.50083639  0.85527325  1
  O  O178  1  0.75210019  0.01194327  0.37242609  1
  O  O179  1  0.71934421  0.02989048  0.86832870  1
  O  O180  1  0.75951553  0.49679587  0.35830315  1
  O  O181  1  0.75609455  0.49741373  0.86819781  1
  O  O182  1  0.22789663  0.49102200  0.10758767  1
  O  O183  1  0.25648055  0.49256333  0.63659302  1
  O  O184  1  0.28953785  0.96762972  0.13969280  1
  O  O185  1  0.23710452  1.00086310  0.63377085  1
  O  O186  1  0.75991657  0.50347034  0.15274519  1
  O  O187  1  0.75931180  0.49282059  0.64444273  1
  O  O188  1  0.74353819  0.99494204  0.13255811  1
  O  O189  1  0.73306307  0.98996595  0.60617134  1
  O  O190  1  0.00624115  0.36800849  0.25722984  1
  O  O191  1  -0.00511825  0.37899340  0.76117321  1
  O  O192  1  0.00163487  0.87017522  0.26135330  1
  O  O193  1  0.00847817  0.86708512  0.75124816  1
  O  O194  1  0.50187394  0.37127081  0.25610804  1
  O  O195  1  0.51090567  0.36775237  0.75643773  1
  O  O196  1  0.50539728  0.85402769  0.24198653  1
  O  O197  1  0.50231303  0.86405304  0.75331691  1
  O  O198  1  0.50757125  0.13760310  0.23314596  1
  O  O199  1  0.49714961  0.13601969  0.76029802  1
  O  O200  1  0.49750078  0.62413946  0.24699489  1
  O  O201  1  0.49134609  0.63688601  0.74975811  1
  O  O202  1  0.99702483  0.13342149  0.24873495  1
  O  O203  1  1.00849074  0.13921243  0.75536303  1
  O  O204  1  0.99301076  0.63840294  0.25650172  1
  O  O205  1  1.00504634  0.63617900  0.74135298  1
  O  O206  1  0.38129236  0.24625081  0.00911687  1
  O  O207  1  0.37083228  0.26105282  0.50222511  1
  O  O208  1  0.40344958  0.75596296  0.01489638  1
  O  O209  1  0.37629060  0.75690400  0.51314244  1
  O  O210  1  0.87244951  0.26252717  0.00229099  1
  O  O211  1  0.86394843  0.24789740  0.50939752  1
  O  O212  1  0.86617116  0.75714657  0.01118398  1
  O  O213  1  0.86989974  0.75779957  0.50440956  1
  O  O214  1  0.12806602  0.24319316  0.49797069  1
  O  O215  1  0.11506280  0.23300556  0.99529632  1
  O  O216  1  0.11187219  0.73769564  0.48850730  1
  O  O217  1  0.11876203  0.74924050  0.98608142  1
  O  O218  1  0.63331266  0.24071096  0.50970581  1
  O  O219  1  0.63473550  0.23963267  0.99267196  1
  O  O220  1  0.63048964  0.73562705  0.50206026  1
  O  O221  1  0.62693666  0.73531662  1.00707396  1
  O  O222  1  0.49274329  0.24117956  0.12283496  1
  O  O223  1  0.49720192  0.25793995  0.64379776  1
  O  O224  1  0.50809762  0.72254731  0.14092375  1
  O  O225  1  0.48866044  0.75341449  0.63720523  1
  O  O226  1  0.99903226  0.24442950  0.13854884  1
  O  O227  1  1.00208161  0.25469954  0.64252314  1
  O  O228  1  0.98914786  0.76113749  0.13784767  1
  O  O229  1  0.99243302  0.74364178  0.63233429  1
  O  O230  1  0.00689539  0.25571785  0.36719196  1
  O  O231  1  -0.00138501  0.26706375  0.86837429  1
  O  O232  1  0.00419042  0.76026676  0.36854549  1
  O  O233  1  0.00141026  0.75220814  0.86339151  1
  O  O234  1  0.49261800  0.25894525  0.35882235  1
  O  O235  1  0.49491281  0.26432903  0.86569323  1
  O  O236  1  0.50364773  0.73782631  0.36189997  1
  O  O237  1  0.49838442  0.76229241  0.86005907  1
  O  O238  1  0.24245152  0.13012852  0.49590733  1
  O  O239  1  0.24154249  0.10795293  0.99323851  1
  O  O240  1  0.23975552  0.61940305  0.49403031  1
  O  O241  1  0.22917479  0.63306751  1.00532995  1
  O  O242  1  0.73845072  0.13314582  0.49367474  1
  O  O243  1  0.75104601  0.13248872  1.00001667  1
  O  O244  1  0.74266777  0.62869310  0.49890073  1
  O  O245  1  0.73500920  0.63214531  1.00423764  1
  O  O246  1  0.23128654  0.34775207  -0.06721762  1
  O  O247  1  0.25561314  0.37360413  0.50585842  1
  O  O248  1  0.26685418  0.87260878  -0.03348753  1
  O  O249  1  0.25193475  0.87587684  0.50353731  1
  O  O250  1  0.76183106  0.36733992  -0.00391193  1
  O  O251  1  0.74745169  0.37007329  0.50816247  1
  O  O252  1  0.75297518  0.87083856  0.00977021  1
  O  O253  1  0.76062314  0.86763223  0.48977231  1
  O  O254  1  0.12384953  0.48928820  0.23968741  1
  O  O255  1  0.13446908  0.50736228  0.75347843  1
  O  O256  1  0.11663836  0.98815111  0.25769585  1
  O  O257  1  0.12853999  0.99355253  0.74450832  1
  O  O258  1  0.63385840  0.49265406  0.25432060  1
  O  O259  1  0.63980136  0.49079815  0.75762005  1
  O  O260  1  0.62277705  0.99204488  0.24252694  1
  O  O261  1  0.62321070  0.99429490  0.72594049  1
  O  O262  1  0.41653334  0.01574342  0.26633368  1
  O  O263  1  0.36964223  0.00209033  0.75011801  1
  O  O264  1  0.38276379  0.51220736  0.26358644  1
  O  O265  1  0.37856492  0.51615595  0.74317031  1
  O  O266  1  0.86610927  0.00572343  0.25663028  1
  O  O267  1  0.84392653  -0.03426059  0.75401194  1
  O  O268  1  0.88855038  0.51607215  0.24778611  1
  O  O269  1  0.86059639  0.50215860  0.76631655  1
  O  O270  1  0.11689885  0.37159330  0.36610685  1
  O  O271  1  0.09783332  0.39527675  0.87322918  1
  O  O272  1  0.11360068  0.86881201  0.37413764  1
  O  O273  1  0.11903347  0.86363549  0.86554961  1
  O  O274  1  0.61110418  0.37454564  0.38181823  1
  O  O275  1  0.61398965  0.37740941  0.86571999  1
  O  O276  1  0.62590163  0.88543012  0.36340987  1
  O  O277  1  0.61898029  0.87491446  0.86548832  1
  O  O278  1  0.39003305  0.12142946  0.11980868  1
  O  O279  1  0.37078791  0.12273793  0.63872948  1
  O  O280  1  0.36875388  0.61341093  0.14304069  1
  O  O281  1  0.37401813  0.64015012  0.63226543  1
  O  O282  1  0.88661940  0.12982347  0.13563567  1
  O  O283  1  0.84365928  0.12614281  0.65554476  1
  O  O284  1  0.87056686  0.63823974  0.13459887  1
  O  O285  1  0.88643460  0.63843521  0.61947860  1
  O  O286  1  0.26906069  0.24139882  0.12613542  1
  O  O287  1  0.25245939  0.26015573  0.62221297  1
  O  O288  1  0.26198675  0.75584109  0.13693728  1
  O  O289  1  0.25810912  0.75275496  0.63049213  1
  O  O290  1  0.75217400  0.24897702  0.10587295  1
  O  O291  1  0.75144273  0.26061146  0.61773107  1
  O  O292  1  0.75543272  0.75840456  0.12072109  1
  O  O293  1  0.76148932  0.74561506  0.61101921  1
  O  O294  1  0.24556276  0.24330911  0.38423407  1
  O  O295  1  0.26179221  0.22204347  0.86052813  1
  O  O296  1  0.23641727  0.73730072  0.37589103  1
  O  O297  1  0.23478696  0.74626857  0.86568597  1
  O  O298  1  0.75160555  0.24276754  0.38819364  1
  O  O299  1  0.75841352  0.25004289  0.89196853  1
  O  O300  1  0.75595975  0.74423957  0.38817432  1
  O  O301  1  0.75005397  0.75804824  0.89201226  1
  O  O302  1  0.00435933  0.11888464  0.00979793  1
  O  O303  1  0.00879166  0.11644315  0.49193374  1
  O  O304  1  0.01514200  0.63046403  0.00529357  1
  O  O305  1  0.00450966  0.61870541  0.50641119  1
  O  O306  1  0.50960269  0.11192537  -0.00112876  1
  O  O307  1  0.51158194  0.13736571  0.50648602  1
  O  O308  1  0.52137362  0.62193161  0.01883243  1
  O  O309  1  0.50706594  0.61100476  0.49587341  1
  O  O310  1  0.49311850  0.37955279  0.49506091  1
  O  O311  1  0.50125592  0.38455210  0.98313546  1
  O  O312  1  0.50128228  0.87862636  0.49287666  1
  O  O313  1  0.51060868  0.88176068  0.98034204  1
  O  O314  1  1.00205431  0.38350514  0.49365922  1
  O  O315  1  0.98859003  0.37621400  0.98829067  1
  O  O316  1  0.99226604  0.88385412  0.49227852  1
  O  O317  1  0.99191271  0.88415706  1.00537809  1
  O  O318  1  0.48935980  0.48867682  0.38478929  1
  O  O319  1  0.49977310  0.49425582  0.88123031  1
  O  O320  1  0.49058563  1.01504061  0.40456616  1
  O  O321  1  0.49845230  0.98740207  0.87326022  1
  O  O322  1  1.00488264  0.49061866  0.38323249  1
  O  O323  1  0.97994689  0.49756358  0.87808737  1
  O  O324  1  0.99350953  0.99472256  0.38550991  1
  O  O325  1  0.99951721  0.99670945  0.88896051  1
  O  O326  1  -0.00409921  0.01132722  0.12125053  1
  O  O327  1  0.00639724  -0.00102520  0.61562629  1
  O  O328  1  0.02441574  0.48717613  0.11325189  1
  O  O329  1  -0.00626262  0.51208755  0.62114413  1
  O  O330  1  0.50680346  0.00129588  0.11276039  1
  O  O331  1  0.51001224  -0.00567243  0.61010642  1
  O  O332  1  0.49707507  0.51247826  0.11997767  1
  O  O333  1  0.49517779  0.49110043  0.60971762  1
  O  O334  1  0.23769852  0.36885654  0.25897331  1
  O  O335  1  0.24974758  0.38997621  0.74369215  1
  O  O336  1  0.23305677  0.87886864  0.27138384  1
  O  O337  1  0.23806510  0.88452613  0.75513029  1
  O  O338  1  0.74485662  0.37904904  0.25040314  1
  O  O339  1  0.74447104  0.37332141  0.74741009  1
  O  O340  1  0.74316753  0.87968136  0.24713871  1
  O  O341  1  0.78540941  0.91513010  0.75540858  1
  O  O342  1  0.24956751  0.12895774  0.26691089  1
  O  O343  1  0.25507303  0.11229258  0.75390016  1
  O  O344  1  0.26247206  0.62927582  0.26329109  1
  O  O345  1  0.25914234  0.61310858  0.73974515  1
  O  O346  1  0.74997128  0.12368393  0.25696107  1
  O  O347  1  0.78891744  0.12371133  0.71574948  1
  O  O348  1  0.76721213  0.62166338  0.25732013  1
  O  O349  1  0.74166837  0.61460622  0.74899938  1
  O  O350  1  0.35974286  0.13090640  0.37978674  1
  O  O351  1  0.37292558  0.10806223  0.86349381  1
  O  O352  1  0.36747537  0.61740903  0.37581405  1
  O  O353  1  0.37169951  0.62871886  0.85105729  1
  O  O354  1  0.86591273  0.12170907  0.37023592  1
  O  O355  1  0.88437897  0.11236827  0.87195765  1
  O  O356  1  0.87845666  0.62708460  0.36530670  1
  O  O357  1  0.87241234  0.61463930  0.88773474  1
  O  O358  1  0.12694347  0.36916518  0.14038222  1
  O  O359  1  0.13860553  0.37663246  0.62522492  1
  O  O360  1  0.12647819  0.87282171  0.14457738  1
  O  O361  1  0.11806959  0.88387311  0.63447398  1
  O  O362  1  0.62084302  0.39061916  0.09609391  1
  O  O363  1  0.63700664  0.37367360  0.64056049  1
  O  O364  1  0.63683177  0.88393427  0.13510959  1
  O  O365  1  0.62692982  0.87694964  0.61530945  1
  O  O366  1  0.11853744  0.25890042  0.25545191  1
  O  O367  1  0.11581391  0.26107118  0.76445780  1
  O  O368  1  0.11582144  0.75677166  0.26060330  1
  O  O369  1  0.11695418  0.75509029  0.75736520  1
  O  O370  1  0.61179419  0.26038689  0.23317189  1
  O  O371  1  0.61544471  0.25131880  0.75110292  1
  O  O372  1  0.61817954  0.75587422  0.25203337  1
  O  O373  1  0.61263436  0.74331438  0.73807771  1
  O  O374  1  0.38805662  0.24337190  0.23417357  1
  O  O375  1  0.38867466  0.23808642  0.75160507  1
  O  O376  1  0.39211713  0.73242798  0.25288734  1
  O  O377  1  0.37698307  0.74414178  0.73976087  1
  O  O378  1  0.88359204  0.24678376  0.25143497  1
  O  O379  1  0.89368553  0.25369719  0.75307269  1
  O  O380  1  0.88129673  0.74473579  0.24612850  1
  O  O381  1  0.88181871  0.75973351  0.73901731  1
  O  O382  1  0.38313774  0.49318656  0.49417869  1
  O  O383  1  0.39360947  0.52139630  0.99621629  1
  O  O384  1  0.38186710  0.97955883  0.51218973  1
  O  O385  1  0.39172251  1.00168095  0.98409263  1
  O  O386  1  0.88775236  0.50033930  0.50304558  1
  O  O387  1  0.86771409  0.49313995  0.99387328  1
  O  O388  1  0.87978858  0.99714117  0.49863552  1
  O  O389  1  0.88241859  0.98895606  1.01165459  1
  O  O390  1  0.11133657  0.01013564  0.00134435  1
  O  O391  1  0.11745829  0.00524887  0.50660627  1
  O  O392  1  0.12134781  0.51912183  -0.00046873  1
  O  O393  1  0.11252454  0.51334753  0.49699364  1
  O  O394  1  0.62065220  -0.00272074  0.00910405  1
  O  O395  1  0.61126840  0.01059511  0.50620744  1
  O  O396  1  0.61683686  0.51709295  -0.00916112  1
  O  O397  1  0.61154594  0.49906322  0.49926814  1
  O  O398  1  0.37691047  0.36487375  0.12141606  1
  O  O399  1  0.36664061  0.37388112  0.61456060  1
  O  O400  1  0.34445867  0.90218449  0.13402574  1
  O  O401  1  0.37367885  0.86177894  0.61774260  1
  O  O402  1  0.88249948  0.37829417  0.10966596  1
  O  O403  1  0.86161154  0.37249822  0.62395249  1
  O  O404  1  0.86218664  0.86825466  0.12377703  1
  O  O405  1  0.88255816  0.86447551  0.61068158  1
  O  O406  1  0.13553846  0.12975146  0.38712071  1
  O  O407  1  0.13745626  0.12049876  0.88513159  1
  O  O408  1  0.13105453  0.62928566  0.38038203  1
  O  O409  1  0.11998608  0.63894837  0.88315621  1
  O  O410  1  0.62996885  0.12090091  0.38518857  1
  O  O411  1  0.65959652  0.08554276  0.86738931  1
  O  O412  1  0.63118576  0.61365600  0.39401980  1
  O  O413  1  0.61915432  0.63334949  0.87978791  1
