# generated using pymatgen
data_V79Zn79O256
_symmetry_space_group_name_H-M   'P 1'
_cell_length_a   16.91925409
_cell_length_b   16.88525777
_cell_length_c   16.88226877
_cell_angle_alpha   89.97653060
_cell_angle_beta   90.00118603
_cell_angle_gamma   89.94471194
_symmetry_Int_Tables_number   1
_chemical_formula_structural   V79Zn79O256
_chemical_formula_sum   'V79 Zn79 O256'
_cell_volume   4823.02462180
_cell_formula_units_Z   1
loop_
 _symmetry_equiv_pos_site_id
 _symmetry_equiv_pos_as_xyz
  1  'x, y, z'
loop_
 _atom_site_type_symbol
 _atom_site_label
 _atom_site_symmetry_multiplicity
 _atom_site_fract_x
 _atom_site_fract_y
 _atom_site_fract_z
 _atom_site_occupancy
  V  V0  1  0.88034781  0.63660139  0.75603444  1
  V  V1  1  0.61318229  0.25216766  0.86822221  1
  V  V2  1  0.47989932  0.38301869  0.86940232  1
  V  V3  1  0.87795080  0.48850815  0.37183393  1
  V  V4  1  0.37288780  0.75186956  0.12231775  1
  V  V5  1  -0.00573743  -0.01339521  0.49207457  1
  V  V6  1  0.63533046  0.38149480  0.74841634  1
  V  V7  1  0.49453890  0.88217142  0.86627817  1
  V  V8  1  0.50666084  0.11933218  0.62825181  1
  V  V9  1  -0.01479672  0.00155068  -0.00527350  1
  V  V10  1  0.12554980  0.00427856  0.13515447  1
  V  V11  1  0.01025005  0.49344198  0.00122958  1
  V  V12  1  0.12109807  0.37293856  0.25785261  1
  V  V13  1  0.12373153  0.87735319  0.25795478  1
  V  V14  1  0.12602443  0.25080068  0.86732633  1
  V  V15  1  0.62319179  0.74410771  0.88102563  1
  V  V16  1  0.25856276  0.25016553  0.50146116  1
  V  V17  1  0.63095676  0.50520180  0.10410546  1
  V  V18  1  0.24973564  0.88585585  0.13504619  1
  V  V19  1  0.74562223  -0.00172232  0.25867843  1
  V  V20  1  0.87692063  0.62270809  0.23844924  1
  V  V21  1  0.25405998  0.25582891  0.00095771  1
  V  V22  1  0.24223519  0.37915773  0.12193658  1
  V  V23  1  0.12582796  0.12524148  0.00163205  1
  V  V24  1  -0.00385669  0.24996838  0.74246789  1
  V  V25  1  0.50216156  0.49309789  0.50220154  1
  V  V26  1  0.74678741  0.62432211  0.87699003  1
  V  V27  1  0.00222746  0.48861375  0.49455883  1
  V  V28  1  0.21605683  0.75336340  0.00687719  1
  V  V29  1  0.37417838  0.87960351  -0.00549802  1
  V  V30  1  0.75270657  0.37202355  0.11256843  1
  V  V31  1  0.47771173  0.50380071  -0.00515582  1
  V  V32  1  0.12384540  0.48700677  0.63561113  1
  V  V33  1  0.25417496  0.11924386  0.37104312  1
  V  V34  1  0.49199173  0.74251490  0.74679316  1
  V  V35  1  -0.00549936  0.12391493  0.62651032  1
  V  V36  1  0.74307538  0.62093792  0.38088828  1
  V  V37  1  0.86962867  0.48839493  0.87319673  1
  V  V38  1  0.62689767  0.73957600  0.38193330  1
  V  V39  1  0.62986051  -0.00955069  0.61411459  1
  V  V40  1  0.13048500  0.12322596  0.50082175  1
  V  V41  1  0.13433288  0.00110721  0.63017628  1
  V  V42  1  0.74792328  0.23896737  0.49569155  1
  V  V43  1  0.25142287  0.87120252  0.62491259  1
  V  V44  1  0.86665336  0.37146656  0.51641866  1
  V  V45  1  0.37368472  0.62464728  0.24463278  1
  V  V46  1  0.01945696  0.62283311  0.11761116  1
  V  V47  1  0.24906594  0.36905444  0.64147560  1
  V  V48  1  0.13259839  0.87731336  0.75662953  1
  V  V49  1  0.24535555  0.50250701  0.23974297  1
  V  V50  1  0.49941775  0.00362382  -0.00162695  1
  V  V51  1  0.62568636  0.10920146  0.48465519  1
  V  V52  1  0.37800848  -0.00399841  0.37349952  1
  V  V53  1  0.86407191  0.12305021  0.26472093  1
  V  V54  1  -0.00312449  0.12842041  0.13135718  1
  V  V55  1  0.00085912  0.37252543  0.87056162  1
  V  V56  1  0.87856262  0.74907824  0.60826529  1
  V  V57  1  0.76383815  0.76387362  0.00706039  1
  V  V58  1  0.50146925  0.62627321  0.61631942  1
  V  V59  1  0.37280692  0.86615888  0.49875516  1
  V  V60  1  0.38191509  0.12520893  0.25110441  1
  V  V61  1  0.25168460  0.62596463  0.38542772  1
  V  V62  1  0.00131166  0.74235915  0.25341054  1
  V  V63  1  0.38153633  0.25900221  0.12966145  1
  V  V64  1  0.12663202  0.75029274  0.38090633  1
  V  V65  1  0.74834757  0.49457435  0.24396087  1
  V  V66  1  0.62743974  0.13478797  0.00664100  1
  V  V67  1  0.62975146  0.87119574  0.24398677  1
  V  V68  1  0.25641712  0.11124178  0.87169324  1
  V  V69  1  -0.01350205  0.87764074  0.86804864  1
  V  V70  1  0.12755385  0.62224495  0.50232572  1
  V  V71  1  0.37799608  0.49386675  0.37951378  1
  V  V72  1  0.87049925  0.25373770  0.11957491  1
  V  V73  1  0.50189237  0.74545764  0.24944753  1
  V  V74  1  0.75913484  0.87004246  0.59825584  1
  V  V75  1  0.50481172  0.87444885  0.37959004  1
  V  V76  1  0.61314990  0.26577297  0.37175787  1
  V  V77  1  0.63924593  0.50323386  0.62745919  1
  V  V78  1  0.63769433  0.87022639  0.74832596  1
  Zn  Zn79  1  0.62931943  -0.00624867  0.11959825  1
  Zn  Zn80  1  0.77926168  0.21565781  -0.03654626  1
  Zn  Zn81  1  0.38882350  0.11168552  0.75881544  1
  Zn  Zn82  1  0.12104613  0.25272140  0.37908541  1
  Zn  Zn83  1  0.49876752  0.12693921  0.12950595  1
  Zn  Zn84  1  0.60125510  0.36868798  0.24076048  1
  Zn  Zn85  1  0.36035158  0.74453543  0.61959703  1
  Zn  Zn86  1  0.82458994  0.19948591  0.65375054  1
  Zn  Zn87  1  0.11343867  0.74170641  0.86472103  1
  Zn  Zn88  1  0.37866158  0.37150372  0.50178168  1
  Zn  Zn89  1  0.00318368  0.62650681  0.62852935  1
  Zn  Zn90  1  0.39797463  0.25616346  0.63666388  1
  Zn  Zn91  1  0.30915164  0.56350093  -0.18346843  1
  Zn  Zn92  1  0.51068926  0.63097838  0.11142462  1
  Zn  Zn93  1  -0.01428514  0.26268897  0.26639738  1
  Zn  Zn94  1  0.19224323  0.19115096  0.19049552  1
  Zn  Zn95  1  0.19205704  0.18521700  0.69044743  1
  Zn  Zn96  1  0.18930665  0.68984571  0.18698715  1
  Zn  Zn97  1  0.17462033  0.69091079  0.68884054  1
  Zn  Zn98  1  0.68546831  0.18917369  0.19138372  1
  Zn  Zn99  1  0.66268502  0.19358805  0.68010514  1
  Zn  Zn100  1  0.69210974  0.68352964  0.18475810  1
  Zn  Zn101  1  0.69396022  0.68673184  0.68804829  1
  Zn  Zn102  1  0.31117865  0.31167342  0.31064226  1
  Zn  Zn103  1  0.31901196  0.29269982  0.80784783  1
  Zn  Zn104  1  0.31014421  0.81025359  0.31493585  1
  Zn  Zn105  1  0.31774992  0.76167763  0.83550070  1
  Zn  Zn106  1  0.80229198  0.30937473  0.31090266  1
  Zn  Zn107  1  0.79821017  0.25386962  0.80509129  1
  Zn  Zn108  1  0.81050209  0.80385415  0.31642620  1
  Zn  Zn109  1  0.81344476  0.80824975  0.81865079  1
  Zn  Zn110  1  0.19456747  0.43895442  0.43917289  1
  Zn  Zn111  1  0.18791985  0.43569100  0.92076093  1
  Zn  Zn112  1  0.19068092  0.93798959  0.44188410  1
  Zn  Zn113  1  0.18383672  0.93338466  0.94413562  1
  Zn  Zn114  1  0.68698330  0.43922816  0.43995533  1
  Zn  Zn115  1  0.69167550  0.42440676  0.92719884  1
  Zn  Zn116  1  0.82745858  0.94513500  0.42591340  1
  Zn  Zn117  1  0.69746259  0.94703597  0.93255829  1
  Zn  Zn118  1  0.31402438  0.06664305  0.06215452  1
  Zn  Zn119  1  0.32071543  0.05319464  0.56005109  1
  Zn  Zn120  1  0.27587530  0.55084700  0.01205558  1
  Zn  Zn121  1  0.32640666  0.54428437  0.60293338  1
  Zn  Zn122  1  0.81112500  0.05423573  0.07830049  1
  Zn  Zn123  1  0.79951091  0.07253558  0.80678770  1
  Zn  Zn124  1  0.81808952  0.56456537  0.05174587  1
  Zn  Zn125  1  0.81772776  0.56368682  0.56249857  1
  Zn  Zn126  1  0.43559117  0.44111787  0.17878837  1
  Zn  Zn127  1  0.42800630  0.44703024  0.69960044  1
  Zn  Zn128  1  0.44067752  0.93947900  0.18925356  1
  Zn  Zn129  1  0.44141709  0.94034221  0.68281183  1
  Zn  Zn130  1  0.93926841  0.43927614  0.18290421  1
  Zn  Zn131  1  0.93594130  0.43960124  0.69343913  1
  Zn  Zn132  1  0.91451679  0.91273510  0.23901441  1
  Zn  Zn133  1  0.92800380  0.94341235  0.68856238  1
  Zn  Zn134  1  0.05842712  0.07032376  0.31660707  1
  Zn  Zn135  1  0.06008365  0.06255692  0.81087162  1
  Zn  Zn136  1  0.06430249  0.55952849  0.31354759  1
  Zn  Zn137  1  0.05940062  0.55817959  0.81071678  1
  Zn  Zn138  1  0.56310539  0.06040109  0.31507110  1
  Zn  Zn139  1  0.59968071  0.05308399  0.81533389  1
  Zn  Zn140  1  0.55045816  0.53516432  0.29762503  1
  Zn  Zn141  1  0.55965812  0.56008799  0.81227122  1
  Zn  Zn142  1  0.44329302  0.18414747  0.44421058  1
  Zn  Zn143  1  0.43727547  0.19252880  0.93938720  1
  Zn  Zn144  1  0.44045727  0.68072379  0.43834828  1
  Zn  Zn145  1  0.43568316  0.68191769  0.93505203  1
  Zn  Zn146  1  0.93871152  0.18756993  0.44347372  1
  Zn  Zn147  1  0.94004769  0.18077248  0.93014284  1
  Zn  Zn148  1  0.93934762  0.67442531  0.43294699  1
  Zn  Zn149  1  0.93802943  0.69161621  0.94228838  1
  Zn  Zn150  1  0.06136850  0.31296661  0.06470167  1
  Zn  Zn151  1  0.06319532  0.30968873  0.55662824  1
  Zn  Zn152  1  0.01894975  0.83185132  0.08254405  1
  Zn  Zn153  1  0.06238984  0.81083252  0.56817144  1
  Zn  Zn154  1  0.55984395  0.32474862  0.05548817  1
  Zn  Zn155  1  0.57037417  0.31222570  0.56348001  1
  Zn  Zn156  1  0.56001804  0.81401307  0.05924117  1
  Zn  Zn157  1  0.56566414  0.80964751  0.55860748  1
  O  O158  1  0.11967723  0.12528096  0.12402379  1
  O  O159  1  0.12953755  0.11744150  0.61749605  1
  O  O160  1  0.11785079  0.61679323  0.13132512  1
  O  O161  1  0.12733211  0.60924774  0.61828942  1
  O  O162  1  0.61584527  0.13181806  0.11574231  1
  O  O163  1  0.62578393  0.10946464  0.60900130  1
  O  O164  1  0.62732417  0.60857925  0.12196833  1
  O  O165  1  0.61844499  0.61136961  0.63523576  1
  O  O166  1  0.36832486  0.39075759  0.37537549  1
  O  O167  1  0.38084165  0.36972461  0.86971676  1
  O  O168  1  0.38151101  0.87615957  0.37700931  1
  O  O169  1  0.38327010  0.86003821  0.88688661  1
  O  O170  1  0.86976456  0.38593893  0.37531368  1
  O  O171  1  0.88373965  0.38598331  0.87357206  1
  O  O172  1  0.88131076  0.88341582  0.34575079  1
  O  O173  1  0.88694100  0.87939421  0.86893296  1
  O  O174  1  0.26101332  0.01027832  0.38021727  1
  O  O175  1  0.24691300  0.01374269  0.89103080  1
  O  O176  1  0.25871616  0.50966344  0.36697401  1
  O  O177  1  0.26500700  0.50973882  0.90638838  1
  O  O178  1  0.75043512  0.00183968  0.35925439  1
  O  O179  1  0.70843276  0.02376100  0.85440425  1
  O  O180  1  0.75438707  0.50424930  0.36298298  1
  O  O181  1  0.76461447  0.50487133  0.88301028  1
  O  O182  1  0.25474724  0.49222920  0.12997019  1
  O  O183  1  0.23275773  0.47916057  0.61389860  1
  O  O184  1  0.23948306  0.99637903  0.12213995  1
  O  O185  1  0.24332389  0.98971237  0.62088488  1
  O  O186  1  0.74812057  0.49449312  0.12237886  1
  O  O187  1  0.73781270  0.50510169  0.62256401  1
  O  O188  1  0.74064425  1.00102153  0.14421827  1
  O  O189  1  0.74026796  0.97251619  0.62091419  1
  O  O190  1  0.01731282  0.37882156  0.24411784  1
  O  O191  1  0.00074570  0.36785142  0.76185328  1
  O  O192  1  0.01999565  0.85739306  0.25509598  1
  O  O193  1  0.00581460  0.88897147  0.76337914  1
  O  O194  1  0.50911737  0.42890010  0.26009092  1
  O  O195  1  0.49963964  0.38710554  0.76462756  1
  O  O196  1  0.50211075  0.86097440  0.25701010  1
  O  O197  1  0.50834672  0.86164371  0.75059733  1
  O  O198  1  0.48727653  0.12307839  0.25028022  1
  O  O199  1  0.52475384  0.11006613  0.72964779  1
  O  O200  1  0.49026203  0.63001048  0.24605089  1
  O  O201  1  0.50209546  0.63712136  0.74236705  1
  O  O202  1  0.98615821  0.12303372  0.24182286  1
  O  O203  1  1.00667742  0.13283978  0.73506563  1
  O  O204  1  0.99753049  0.62080556  0.23974763  1
  O  O205  1  0.98606136  0.62184229  0.74739565  1
  O  O206  1  0.36252860  0.24519992  0.01542245  1
  O  O207  1  0.36986162  0.24737933  0.51184935  1
  O  O208  1  0.37996848  0.76216204  0.01398612  1
  O  O209  1  0.37869132  0.76020579  0.49791710  1
  O  O210  1  0.87923477  0.24671244  0.01740905  1
  O  O211  1  0.86255166  0.26034464  0.49765606  1
  O  O212  1  0.86430545  0.75835572  -0.00085754  1
  O  O213  1  0.87696068  0.73675657  0.50890515  1
  O  O214  1  0.13841277  0.23853740  0.49957465  1
  O  O215  1  0.12853023  0.24040064  0.99588369  1
  O  O216  1  0.11654164  0.73363131  0.49432563  1
  O  O217  1  0.11876853  0.76724849  1.02157460  1
  O  O218  1  0.63272404  0.24760071  0.48856035  1
  O  O219  1  0.61583853  0.24008663  0.99798602  1
  O  O220  1  0.62273422  0.74644163  0.48099552  1
  O  O221  1  0.61805338  0.75115987  0.98334971  1
  O  O222  1  0.48346591  0.25858527  0.11853602  1
  O  O223  1  0.51280263  0.22782915  0.61975332  1
  O  O224  1  0.49182048  0.74846586  0.13244718  1
  O  O225  1  0.51084957  0.73919800  0.63382164  1
  O  O226  1  0.99006164  0.24380297  0.13113248  1
  O  O227  1  1.01421810  0.23572278  0.63013520  1
  O  O228  1  1.00768003  0.72982710  0.14007627  1
  O  O229  1  0.98412191  0.74682711  0.62403705  1
  O  O230  1  0.00879035  0.23999500  0.37365019  1
  O  O231  1  0.00636184  0.25341211  0.86600343  1
  O  O232  1  0.01599000  0.73176029  0.36509358  1
  O  O233  1  0.00432452  0.77196801  0.88679216  1
  O  O234  1  0.51353510  0.25284299  0.38390945  1
  O  O235  1  0.50479031  0.27249732  0.88797951  1
  O  O236  1  0.50587420  0.74800525  0.36421632  1
  O  O237  1  0.50504676  0.75511756  0.86079453  1
  O  O238  1  0.24925925  0.12924633  0.49679451  1
  O  O239  1  0.24174364  0.13541964  0.99776294  1
  O  O240  1  0.23949694  0.61458267  0.49207218  1
  O  O241  1  0.23618205  0.65544890  1.01973813  1
  O  O242  1  0.73919095  0.13773004  0.49474187  1
  O  O243  1  0.73003926  0.12174990  1.01052171  1
  O  O244  1  0.75321801  0.61361269  0.47956273  1
  O  O245  1  0.75822493  0.63795325  0.98376180  1
  O  O246  1  0.23746399  0.36311322  0.00802807  1
  O  O247  1  0.25373005  0.36076112  0.50199336  1
  O  O248  1  0.25545803  0.87095367  0.01554419  1
  O  O249  1  0.25927255  0.87455490  0.51060637  1
  O  O250  1  0.75140004  0.37263869  0.01199829  1
  O  O251  1  0.76493899  0.37714033  0.49964179  1
  O  O252  1  0.74064633  0.86327147  -0.00844587  1
  O  O253  1  0.76319591  0.87218912  0.49960063  1
  O  O254  1  0.13779170  0.49069674  0.25508683  1
  O  O255  1  0.11953016  0.49319463  0.73405298  1
  O  O256  1  0.11563110  0.99466212  0.24356691  1
  O  O257  1  0.11953255  0.99445757  0.73719816  1
  O  O258  1  0.64344780  0.50377436  0.23373003  1
  O  O259  1  0.62491415  0.49186111  0.74210201  1
  O  O260  1  0.63111211  0.99137800  0.25153805  1
  O  O261  1  0.62017980  0.97311973  0.73077579  1
  O  O262  1  0.37646810  0.00715632  0.26140828  1
  O  O263  1  0.38856517  0.00153532  0.75761639  1
  O  O264  1  0.36453888  0.51013229  0.25469856  1
  O  O265  1  0.34851138  0.52222442  0.71950623  1
  O  O266  1  0.86006101  0.01614474  0.24318754  1
  O  O267  1  0.88189934  0.02178574  0.75134253  1
  O  O268  1  0.87049499  0.50258738  0.25356967  1
  O  O269  1  0.87955840  0.50967389  0.76668559  1
  O  O270  1  0.13386212  0.37503333  0.36208470  1
  O  O271  1  0.11419232  0.36092555  0.88038696  1
  O  O272  1  0.13961338  0.86169503  0.37057751  1
  O  O273  1  0.11818491  0.88740360  0.86196466  1
  O  O274  1  0.62311142  0.36936410  0.37460494  1
  O  O275  1  0.60952050  0.37721397  0.86245929  1
  O  O276  1  0.61441813  0.85669914  0.35972609  1
  O  O277  1  0.61490350  0.86539124  0.85997462  1
  O  O278  1  0.37465392  0.13601454  0.13372878  1
  O  O279  1  0.40280178  0.10953524  0.61743612  1
  O  O280  1  0.37158918  0.63891603  0.13678928  1
  O  O281  1  0.39562674  0.63525797  0.61362277  1
  O  O282  1  0.87965443  0.13658081  0.13268906  1
  O  O283  1  0.89733160  0.12553176  0.60974544  1
  O  O284  1  0.88334214  0.61611389  0.13488961  1
  O  O285  1  0.87146913  0.63390967  0.63673732  1
  O  O286  1  0.25634844  0.25829930  0.11922964  1
  O  O287  1  0.24459258  0.25969476  0.61817760  1
  O  O288  1  0.25507561  0.76581602  0.12361451  1
  O  O289  1  0.24620203  0.76306709  0.63295099  1
  O  O290  1  0.76166692  0.25482831  0.12806728  1
  O  O291  1  0.73643526  0.25435285  0.60187653  1
  O  O292  1  0.74151382  0.74570736  0.10471887  1
  O  O293  1  0.76240654  0.75853646  0.62444203  1
  O  O294  1  0.25544123  0.23847072  0.38610150  1
  O  O295  1  0.24118943  0.24453228  0.88440475  1
  O  O296  1  0.24090650  0.73564991  0.37146592  1
  O  O297  1  0.22379952  0.77004865  0.90190234  1
  O  O298  1  0.73607138  0.25776571  0.38770287  1
  O  O299  1  0.71649608  0.27417112  0.88734772  1
  O  O300  1  0.74172846  0.72893228  0.36405216  1
  O  O301  1  0.74071660  0.74439519  0.88374755  1
  O  O302  1  0.00787583  0.12268270  0.00539863  1
  O  O303  1  0.01596981  0.12370580  0.51052590  1
  O  O304  1  0.00266571  0.62191717  0.01214689  1
  O  O305  1  0.00917977  0.60874705  0.50479267  1
  O  O306  1  0.50274811  0.11719636  0.00136793  1
  O  O307  1  0.52040186  0.12029545  0.50485414  1
  O  O308  1  0.49865711  0.61106013  -0.00358510  1
  O  O309  1  0.51041609  0.62051806  0.51161158  1
  O  O310  1  0.49602477  0.38801975  0.51279954  1
  O  O311  1  0.50261621  0.39555333  0.98500497  1
  O  O312  1  0.49443393  0.86570842  0.48586361  1
  O  O313  1  0.49376524  0.88284390  0.98940498  1
  O  O314  1  0.98749527  0.37992985  0.50133668  1
  O  O315  1  1.00151425  0.38519149  0.99294364  1
  O  O316  1  1.01179645  0.88761758  0.50233947  1
  O  O317  1  1.00699172  0.89736749  0.98627774  1
  O  O318  1  0.48943964  0.51640615  0.39502874  1
  O  O319  1  0.48880884  0.49840063  0.88275798  1
  O  O320  1  0.49350421  0.98301691  0.36794729  1
  O  O321  1  0.51128092  0.98765108  0.88154275  1
  O  O322  1  0.99041007  0.50438694  0.38359856  1
  O  O323  1  0.99619117  0.49077448  0.88015048  1
  O  O324  1  1.00939907  1.00462196  0.39282532  1
  O  O325  1  0.99949373  1.00302437  0.88807617  1
  O  O326  1  0.01145820  0.01696412  0.11145121  1
  O  O327  1  0.01202632  0.01143857  0.61613389  1
  O  O328  1  -0.00190759  0.50705080  0.10956972  1
  O  O329  1  0.01154204  0.49527942  0.61602810  1
  O  O330  1  0.50451853  0.00065894  0.11277477  1
  O  O331  1  0.52124544  -0.00288563  0.61341062  1
  O  O332  1  0.51571417  0.49942453  0.10581374  1
  O  O333  1  0.50158930  0.51420340  0.62079563  1
  O  O334  1  0.24336280  0.38370915  0.24230400  1
  O  O335  1  0.24786529  0.36383212  0.74020789  1
  O  O336  1  0.24094552  0.87164321  0.24300149  1
  O  O337  1  0.23476267  0.87850545  0.74350126  1
  O  O338  1  0.75137739  0.38496216  0.23622015  1
  O  O339  1  0.73196439  0.36676073  0.75524956  1
  O  O340  1  0.73938752  0.88291930  0.25356387  1
  O  O341  1  0.73774002  0.86583816  0.75245092  1
  O  O342  1  0.26255909  0.13110344  0.26272888  1
  O  O343  1  0.24306536  0.12069957  0.77047956  1
  O  O344  1  0.25575809  0.61996895  0.25588781  1
  O  O345  1  0.20643792  0.63139896  0.78429764  1
  O  O346  1  0.75632197  0.11877594  0.25133299  1
  O  O347  1  0.75490266  0.16290668  0.73975616  1
  O  O348  1  0.76139909  0.61404439  0.25012423  1
  O  O349  1  0.76431132  0.62914144  0.76425169  1
  O  O350  1  0.37459317  0.11674836  0.37249555  1
  O  O351  1  0.35905155  0.13005934  0.88214203  1
  O  O352  1  0.36836506  0.62020086  0.36654134  1
  O  O353  1  0.35535152  0.65730501  0.86454267  1
  O  O354  1  0.87590323  0.12741514  0.36308776  1
  O  O355  1  0.84335685  0.16428789  0.87748280  1
  O  O356  1  0.86537192  0.61032341  0.36474384  1
  O  O357  1  0.87327767  0.62425068  0.86660740  1
  O  O358  1  0.13555741  0.37016664  0.13642823  1
  O  O359  1  0.13164351  0.37898037  0.62145724  1
  O  O360  1  0.13028965  0.88747657  0.13698336  1
  O  O361  1  0.13159179  0.88273697  0.63121415  1
  O  O362  1  0.63337159  0.38568533  0.12419441  1
  O  O363  1  0.61678038  0.38710445  0.64037050  1
  O  O364  1  0.61396029  0.87327822  0.14006385  1
  O  O365  1  0.63956903  0.86607826  0.62614848  1
  O  O366  1  0.12941003  0.26472256  0.25409669  1
  O  O367  1  0.11779557  0.24414427  0.76191454  1
  O  O368  1  0.12264136  0.75311421  0.26029280  1
  O  O369  1  0.11547202  0.77376654  0.74707695  1
  O  O370  1  0.62767293  0.25591311  0.26459664  1
  O  O371  1  0.61150117  0.26363745  0.76190116  1
  O  O372  1  0.61650137  0.74903435  0.25052193  1
  O  O373  1  0.61875924  0.75576082  0.75412857  1
  O  O374  1  0.37173057  0.24382832  0.23766594  1
  O  O375  1  0.37467474  0.22282820  0.74144188  1
  O  O376  1  0.38153397  0.74538327  0.24460831  1
  O  O377  1  0.39054424  0.75871060  0.74002247  1
  O  O378  1  0.87078566  0.23883434  0.24410851  1
  O  O379  1  0.89305845  0.25796737  0.73512706  1
  O  O380  1  0.89014103  0.73251360  0.25942708  1
  O  O381  1  0.87673383  0.73916676  0.74864576  1
  O  O382  1  0.38226872  0.49984795  0.49722809  1
  O  O383  1  0.38263843  0.50128234  1.01894359  1
  O  O384  1  0.37684214  0.98378313  0.48366246  1
  O  O385  1  0.38270671  0.98872042  1.00586909  1
  O  O386  1  0.88178634  0.48955542  0.49435631  1
  O  O387  1  0.89229891  0.50990639  0.98010699  1
  O  O388  1  0.89414990  0.99735061  0.50189016  1
  O  O389  1  0.88650158  1.01194846  1.00353010  1
  O  O390  1  0.12234075  0.01386390  0.01140749  1
  O  O391  1  0.12500258  0.00903748  0.50927020  1
  O  O392  1  0.10851432  0.50255858  -0.01148334  1
  O  O393  1  0.11744807  0.50261529  0.50043532  1
  O  O394  1  0.61515758  0.01488718  -0.00015677  1
  O  O395  1  0.63637205  0.00909027  0.49573477  1
  O  O396  1  0.63511153  0.49800136  0.00421877  1
  O  O397  1  0.61667750  0.49143532  0.51824398  1
  O  O398  1  0.36221544  0.36499954  0.13161165  1
  O  O399  1  0.35938194  0.37304275  0.62654064  1
  O  O400  1  0.36836594  0.87110725  0.12298255  1
  O  O401  1  0.36987708  0.87382550  0.61481598  1
  O  O402  1  0.87099232  0.36050840  0.13183019  1
  O  O403  1  0.87470470  0.37948350  0.61555578  1
  O  O404  1  0.92751237  0.88088026  0.13295520  1
  O  O405  1  0.86726454  0.86202095  0.62673533  1
  O  O406  1  0.13978977  0.12265689  0.38434550  1
  O  O407  1  0.13059242  0.13148783  0.88498188  1
  O  O408  1  0.13377733  0.62732504  0.38224225  1
  O  O409  1  0.14405900  0.62921462  0.84493904  1
  O  O410  1  0.62226145  0.13306811  0.38223751  1
  O  O411  1  0.60902948  0.14772537  0.88579597  1
  O  O412  1  0.63790246  0.62203429  0.36371377  1
  O  O413  1  0.63443474  0.63255461  0.86372979  1
