# generated using pymatgen
data_V79Zn79O256
_symmetry_space_group_name_H-M   'P 1'
_cell_length_a   16.92133932
_cell_length_b   16.90068674
_cell_length_c   16.90275214
_cell_angle_alpha   89.91193362
_cell_angle_beta   90.16933390
_cell_angle_gamma   89.98049066
_symmetry_Int_Tables_number   1
_chemical_formula_structural   V79Zn79O256
_chemical_formula_sum   'V79 Zn79 O256'
_cell_volume   4833.86006481
_cell_formula_units_Z   1
loop_
 _symmetry_equiv_pos_site_id
 _symmetry_equiv_pos_as_xyz
  1  'x, y, z'
loop_
 _atom_site_type_symbol
 _atom_site_label
 _atom_site_symmetry_multiplicity
 _atom_site_fract_x
 _atom_site_fract_y
 _atom_site_fract_z
 _atom_site_occupancy
  V  V0  1  0.62626452  0.25349188  0.88141489  1
  V  V1  1  -0.00797552  0.75586552  0.73803212  1
  V  V2  1  0.12068836  0.11638169  0.50379972  1
  V  V3  1  0.36790146  0.49942814  0.87530561  1
  V  V4  1  0.37479525  0.36131295  0.00802375  1
  V  V5  1  0.75238535  0.74120585  -0.01602166  1
  V  V6  1  0.12764685  0.50029438  0.12783313  1
  V  V7  1  0.50063827  0.13733048  0.12645740  1
  V  V8  1  0.49975135  0.37732953  0.87830816  1
  V  V9  1  0.87901262  -0.00248162  0.37839017  1
  V  V10  1  0.50382385  -0.00274305  0.00848338  1
  V  V11  1  0.51205056  0.87769352  0.87848761  1
  V  V12  1  0.74690655  0.87842911  0.12463672  1
  V  V13  1  -0.01086507  0.37786619  0.37392731  1
  V  V14  1  0.24066707  0.37889008  0.62698173  1
  V  V15  1  0.75000503  0.13136213  0.88186738  1
  V  V16  1  0.75394441  0.49771258  0.75495156  1
  V  V17  1  0.49212384  0.74155469  0.74314201  1
  V  V18  1  0.62394892  0.87223584  0.74006028  1
  V  V19  1  0.25033704  0.62438337  0.87539886  1
  V  V20  1  0.00546987  0.87803074  0.86557904  1
  V  V21  1  0.12750579  0.75440057  0.37435288  1
  V  V22  1  0.24983918  0.86432858  0.14292255  1
  V  V23  1  0.75150386  0.36873009  0.12034504  1
  V  V24  1  0.37210980  0.11658047  0.75564643  1
  V  V25  1  0.75114280  0.75119787  0.50959558  1
  V  V26  1  0.88113733  0.12787400  0.75016300  1
  V  V27  1  0.12932411  0.75075718  0.86151483  1
  V  V28  1  0.00553042  0.76023271  0.25236029  1
  V  V29  1  0.25160753  0.36020227  0.12128518  1
  V  V30  1  0.62587880  0.75213600  0.37161473  1
  V  V31  1  0.22897526  0.49981426  0.75572364  1
  V  V32  1  0.87834107  0.62493522  0.25449902  1
  V  V33  1  0.62212304  0.62732147  -0.01614618  1
  V  V34  1  0.27343052  0.48151294  0.26276503  1
  V  V35  1  0.74633634  0.24664012  0.49026651  1
  V  V36  1  0.25108559  0.25517427  0.50354351  1
  V  V37  1  -0.00690917  0.49980582  -0.00080201  1
  V  V38  1  -0.00288686  0.36880556  0.87357570  1
  V  V39  1  0.37986148  0.62789454  0.23887538  1
  V  V40  1  0.74635737  0.00529704  0.25008521  1
  V  V41  1  0.61312470  0.49131419  0.62712346  1
  V  V42  1  0.87963733  0.75048869  0.12724490  1
  V  V43  1  0.87068957  0.36852256  -0.00407334  1
  V  V44  1  0.88621738  0.12889770  0.25362880  1
  V  V45  1  0.38017750  0.13477535  0.24506666  1
  V  V46  1  0.74145245  0.00476489  0.74548481  1
  V  V47  1  0.62939031  0.12461043  0.48097939  1
  V  V48  1  0.50427148  0.25846684  0.75383397  1
  V  V49  1  0.62095280  0.36174254  0.26016324  1
  V  V50  1  0.12391845  0.61761219  0.51237896  1
  V  V51  1  0.61228803  0.61857347  0.50562740  1
  V  V52  1  0.51016452  0.12513520  0.62914507  1
  V  V53  1  0.25238816  0.61734164  0.37165132  1
  V  V54  1  0.00814750  0.12058485  0.10808324  1
  V  V55  1  0.26598564  0.74711741  0.51197410  1
  V  V56  1  0.11440219  0.35434611  0.74706976  1
  V  V57  1  0.75652833  0.49965047  0.25169701  1
  V  V58  1  0.62835427  0.12039744  0.00699256  1
  V  V59  1  0.50466690  -0.00077800  0.50356903  1
  V  V60  1  0.87930329  0.87749730  -0.00447351  1
  V  V61  1  -0.01058412  0.50004800  0.49542364  1
  V  V62  1  0.37613595  -0.00318378  0.37744122  1
  V  V63  1  -0.01560930  0.61955639  0.62737409  1
  V  V64  1  0.24232681  -0.00203360  0.25412894  1
  V  V65  1  0.25017948  0.12365134  0.37847795  1
  V  V66  1  0.24702311  0.12531119  0.89557488  1
  V  V67  1  0.75470219  0.62128243  0.37834729  1
  V  V68  1  0.00035341  0.11309670  0.62052517  1
  V  V69  1  0.11451327  0.24923411  0.37341151  1
  V  V70  1  0.49964186  0.87527007  0.37603598  1
  V  V71  1  0.11295704  0.37072508  0.24770911  1
  V  V72  1  0.87981879  0.00223698  0.87400059  1
  V  V73  1  0.87901292  0.25605903  0.62662937  1
  V  V74  1  0.37544165  0.26205373  0.62767111  1
  V  V75  1  0.61819914  0.50960236  0.12540351  1
  V  V76  1  0.36282251  0.87553046  -0.00990611  1
  V  V77  1  0.87926238  0.87400641  0.50899183  1
  V  V78  1  0.12899070  0.63600669  0.00096906  1
  Zn  Zn79  1  0.01165173  0.88183913  0.37803641  1
  Zn  Zn80  1  0.32684455  0.66854515  0.68933180  1
  Zn  Zn81  1  0.12888450  0.24227978  0.89881967  1
  Zn  Zn82  1  0.73996916  0.37006230  0.62812323  1
  Zn  Zn83  1  0.49031769  0.51087955  0.00664759  1
  Zn  Zn84  1  0.00445899  0.62596451  0.12797715  1
  Zn  Zn85  1  0.88246821  0.24982432  0.12773676  1
  Zn  Zn86  1  0.38401484  0.74773298  0.11143216  1
  Zn  Zn87  1  0.12889554  0.00426691  0.10506966  1
  Zn  Zn88  1  0.50061268  0.74996404  0.24423799  1
  Zn  Zn89  1  0.23938931  -0.01296515  0.74830745  1
  Zn  Zn90  1  0.86606093  0.38124321  0.49454935  1
  Zn  Zn91  1  0.74804056  0.88269546  0.62161944  1
  Zn  Zn92  1  0.62080784  0.88114063  0.24051517  1
  Zn  Zn93  1  0.85633911  0.62593189  0.78183729  1
  Zn  Zn94  1  0.18366803  0.18218052  0.18909883  1
  Zn  Zn95  1  0.18686844  0.18163601  0.68836417  1
  Zn  Zn96  1  0.19155988  0.68535263  0.19180715  1
  Zn  Zn97  1  0.19438736  0.81091884  0.68166660  1
  Zn  Zn98  1  0.69086021  0.18609282  0.18718855  1
  Zn  Zn99  1  0.69093176  0.19354559  0.69121469  1
  Zn  Zn100  1  0.69277120  0.69083335  0.18408692  1
  Zn  Zn101  1  0.68054878  0.68300743  0.69194329  1
  Zn  Zn102  1  0.30374290  0.30743675  0.31359734  1
  Zn  Zn103  1  0.31132924  0.31005885  0.81523134  1
  Zn  Zn104  1  0.31393218  0.80770092  0.32363048  1
  Zn  Zn105  1  0.31881289  0.81437101  0.81885007  1
  Zn  Zn106  1  0.80470274  0.30898176  0.30902380  1
  Zn  Zn107  1  0.80972784  0.31824340  0.81042278  1
  Zn  Zn108  1  0.81167718  0.81500061  0.31495818  1
  Zn  Zn109  1  0.81466211  0.81659063  0.80359880  1
  Zn  Zn110  1  0.17762903  0.43576011  0.43851566  1
  Zn  Zn111  1  0.17333358  0.41796477  0.94702159  1
  Zn  Zn112  1  0.17600188  0.91588971  0.50990241  1
  Zn  Zn113  1  0.18897028  0.95197784  0.92453174  1
  Zn  Zn114  1  0.68547302  0.43632718  0.44033152  1
  Zn  Zn115  1  0.68723664  0.44192359  0.93751057  1
  Zn  Zn116  1  0.69014947  0.93922046  0.43338428  1
  Zn  Zn117  1  0.69058839  0.93920645  0.93592208  1
  Zn  Zn118  1  0.31841576  0.05157632  0.06816468  1
  Zn  Zn119  1  0.32082138  0.07000554  0.56406464  1
  Zn  Zn120  1  0.30866698  0.55434330  0.06574996  1
  Zn  Zn121  1  0.30490965  0.55979393  0.55993909  1
  Zn  Zn122  1  0.81815191  0.06264309  0.06551361  1
  Zn  Zn123  1  0.81330185  0.06349346  0.56254258  1
  Zn  Zn124  1  0.81064934  0.56142760  0.06463459  1
  Zn  Zn125  1  0.80403209  0.56021011  0.56932665  1
  Zn  Zn126  1  0.42442333  0.41213966  0.21666489  1
  Zn  Zn127  1  0.41033992  0.48235576  0.67006826  1
  Zn  Zn128  1  0.43423390  0.93835656  0.18542843  1
  Zn  Zn129  1  0.43663709  0.93702021  0.68538213  1
  Zn  Zn130  1  0.93666633  0.43878728  0.18340594  1
  Zn  Zn131  1  0.93622623  0.44083374  0.68783763  1
  Zn  Zn132  1  0.93794823  0.94228155  0.18553079  1
  Zn  Zn133  1  1.06558280  0.94032334  0.67942852  1
  Zn  Zn134  1  0.06075266  0.06259218  0.31583782  1
  Zn  Zn135  1  0.06981443  0.06826915  0.81599182  1
  Zn  Zn136  1  0.06435259  0.56223348  0.31554815  1
  Zn  Zn137  1  0.03323938  0.57505258  0.82837510  1
  Zn  Zn138  1  0.56101904  0.06232364  0.30871772  1
  Zn  Zn139  1  0.55999474  0.06221106  0.81673852  1
  Zn  Zn140  1  0.57532981  0.57286419  0.30034007  1
  Zn  Zn141  1  0.56318258  0.55582294  0.80904239  1
  Zn  Zn142  1  0.43456439  0.18271678  0.44222951  1
  Zn  Zn143  1  0.43770972  0.18277696  0.93849362  1
  Zn  Zn144  1  0.43696228  0.68177579  0.42696915  1
  Zn  Zn145  1  0.43879694  0.69350652  0.92868142  1
  Zn  Zn146  1  0.93261649  0.18567570  0.43931274  1
  Zn  Zn147  1  0.93817197  0.19179457  0.93962136  1
  Zn  Zn148  1  0.93757911  0.69278982  0.43810609  1
  Zn  Zn149  1  0.94474811  0.69260927  0.93967215  1
  Zn  Zn150  1  0.05825012  0.30426390  0.06284188  1
  Zn  Zn151  1  0.05931829  0.31027420  0.55909598  1
  Zn  Zn152  1  0.09237574  0.84931210  0.02893274  1
  Zn  Zn153  1  0.05786850  0.79960919  0.55333152  1
  Zn  Zn154  1  0.56579270  0.31732059  0.06302536  1
  Zn  Zn155  1  0.56146342  0.30717574  0.55760221  1
  Zn  Zn156  1  0.56530295  0.80405028  0.06110675  1
  Zn  Zn157  1  0.56113910  0.80891496  0.56179448  1
  O  O158  1  0.11496052  0.12219024  0.12255734  1
  O  O159  1  0.10763275  0.13538563  0.61796709  1
  O  O160  1  0.12908340  0.61829491  0.11996308  1
  O  O161  1  0.11702666  0.62266002  0.60983879  1
  O  O162  1  0.61974114  0.12955470  0.11467755  1
  O  O163  1  0.61218548  0.13177797  0.62871415  1
  O  O164  1  0.63270505  0.61359204  0.12293474  1
  O  O165  1  0.62310187  0.61832365  0.61016921  1
  O  O166  1  0.34974366  0.40853188  0.30930762  1
  O  O167  1  0.37842487  0.37796747  0.88803269  1
  O  O168  1  0.38693729  0.88454084  0.37359014  1
  O  O169  1  0.38761294  0.87992616  0.88648372  1
  O  O170  1  0.88572614  0.36469456  0.37422653  1
  O  O171  1  0.88339590  0.37149717  0.88233314  1
  O  O172  1  0.87630491  0.88650682  0.37924901  1
  O  O173  1  0.88085422  0.88373988  0.87459897  1
  O  O174  1  0.26362729  0.00746231  0.37217879  1
  O  O175  1  0.25282660  0.02240188  0.86508564  1
  O  O176  1  0.23607780  0.50364880  0.36465108  1
  O  O177  1  0.24808771  0.50256596  0.87440576  1
  O  O178  1  0.76211747  -0.00462238  0.35869078  1
  O  O179  1  0.75706639  0.01079028  0.86833893  1
  O  O180  1  0.74540247  0.51140382  0.36533180  1
  O  O181  1  0.74091470  0.49663500  0.85533727  1
  O  O182  1  0.24256612  0.48846496  0.14135061  1
  O  O183  1  0.25097288  0.48435326  0.63612819  1
  O  O184  1  0.24844281  0.99067603  0.13810641  1
  O  O185  1  0.28602318  0.97451685  0.62454234  1
  O  O186  1  0.74535450  0.49376871  0.13552391  1
  O  O187  1  0.73639747  0.49251466  0.62799292  1
  O  O188  1  0.76193495  0.98842524  0.13621301  1
  O  O189  1  0.75437675  1.00370558  0.64130165  1
  O  O190  1  0.00529920  0.37758505  0.25652730  1
  O  O191  1  0.00811325  0.37932055  0.75499929  1
  O  O192  1  -0.00550795  0.86319819  0.25358486  1
  O  O193  1  0.00023165  0.86297288  0.74877446  1
  O  O194  1  0.52282626  0.37161264  0.24082754  1
  O  O195  1  0.49268226  0.36409211  0.76817069  1
  O  O196  1  0.50421602  0.88010438  0.26284204  1
  O  O197  1  0.50988948  0.87989071  0.75746059  1
  O  O198  1  0.48901793  0.12152274  0.24306818  1
  O  O199  1  0.49350237  0.13500131  0.74856168  1
  O  O200  1  0.48354503  0.62390132  0.26294370  1
  O  O201  1  0.51089036  0.64401484  0.75670142  1
  O  O202  1  0.98872187  0.12540365  0.24957408  1
  O  O203  1  0.98810844  0.12392765  0.73936172  1
  O  O204  1  0.99111616  0.63223618  0.25109024  1
  O  O205  1  1.00356325  0.63290840  0.73098563  1
  O  O206  1  0.37975112  0.26195086  -0.00046847  1
  O  O207  1  0.36006688  0.24196271  0.51304687  1
  O  O208  1  0.38268784  0.77003252  -0.00386698  1
  O  O209  1  0.36313141  0.72694172  0.50086815  1
  O  O210  1  0.87303399  0.26440113  0.00326528  1
  O  O211  1  0.86095014  0.24309414  0.51166693  1
  O  O212  1  0.86730716  0.75292165  0.00639995  1
  O  O213  1  0.86277459  0.76381219  0.49100960  1
  O  O214  1  0.13231105  0.24263006  0.49357628  1
  O  O215  1  0.13750695  0.30859912  0.98804141  1
  O  O216  1  0.13314013  0.73049925  0.49375865  1
  O  O217  1  0.11716963  0.74227476  0.98561561  1
  O  O218  1  0.63661015  0.23653454  0.50337037  1
  O  O219  1  0.61948740  0.23770155  0.98957199  1
  O  O220  1  0.63026824  0.74031436  0.49116448  1
  O  O221  1  0.64212301  0.73834877  1.00064583  1
  O  O222  1  0.50229338  0.23687005  0.11959529  1
  O  O223  1  0.49434742  0.24863518  0.63354230  1
  O  O224  1  0.49585639  0.75836797  0.13280163  1
  O  O225  1  0.49789490  0.76105908  0.64282721  1
  O  O226  1  0.99963324  0.23118764  0.12412541  1
  O  O227  1  0.98260710  0.24389224  0.61842495  1
  O  O228  1  0.98722303  0.74899887  0.13455165  1
  O  O229  1  1.00060409  0.73916648  0.63261994  1
  O  O230  1  0.00885237  0.25833896  0.38657878  1
  O  O231  1  0.00707841  0.26358496  0.88180558  1
  O  O232  1  0.00963385  0.74959097  0.36781566  1
  O  O233  1  0.00685759  0.75924809  0.85892834  1
  O  O234  1  0.49074830  0.28203208  0.40536090  1
  O  O235  1  0.50573576  0.25534640  0.87241005  1
  O  O236  1  0.50790189  0.75926335  0.37402807  1
  O  O237  1  0.49790903  0.77015097  0.86125142  1
  O  O238  1  0.24199692  0.13424188  0.50101672  1
  O  O239  1  0.26320899  0.12076643  0.99438992  1
  O  O240  1  0.23718338  0.61789624  0.49255465  1
  O  O241  1  0.23590543  0.61583430  0.99205251  1
  O  O242  1  0.73668480  0.12979207  0.50339033  1
  O  O243  1  0.74485566  0.11837483  0.99101478  1
  O  O244  1  0.74604154  0.63186363  0.49219045  1
  O  O245  1  0.74768957  0.63632074  1.00131690  1
  O  O246  1  0.26270342  0.38548941  0.01770353  1
  O  O247  1  0.23677404  0.36554342  0.51056841  1
  O  O248  1  0.26204774  0.88025094  -0.00424653  1
  O  O249  1  0.26215378  0.84637470  0.49697072  1
  O  O250  1  0.76136947  0.38910981  0.00819306  1
  O  O251  1  0.74963384  0.35987648  0.50102689  1
  O  O252  1  0.75897976  0.86383454  0.00176207  1
  O  O253  1  0.75371387  0.86826971  0.49980213  1
  O  O254  1  0.12245485  0.49013686  0.24173729  1
  O  O255  1  0.12943282  0.49954143  0.75373551  1
  O  O256  1  0.14153864  1.00306693  0.26056090  1
  O  O257  1  0.12783316  1.01182035  0.73902009  1
  O  O258  1  0.63568473  0.49743618  0.23964532  1
  O  O259  1  0.63149996  0.50444539  0.73237506  1
  O  O260  1  0.64217970  1.00134709  0.25430032  1
  O  O261  1  0.63299500  0.99187539  0.75831087  1
  O  O262  1  0.36922114  0.00790781  0.26091512  1
  O  O263  1  0.38747228  0.01759067  0.75287159  1
  O  O264  1  0.37307106  0.51892845  0.23008154  1
  O  O265  1  0.35688958  0.48455509  0.77169899  1
  O  O266  1  0.86971885  0.00684661  0.25924819  1
  O  O267  1  0.86162052  0.01493636  0.76323350  1
  O  O268  1  0.86661494  0.51130727  0.24432113  1
  O  O269  1  0.85932193  0.50383909  0.74236678  1
  O  O270  1  0.11366020  0.36759204  0.36725690  1
  O  O271  1  0.12004983  0.37178877  0.85190450  1
  O  O272  1  0.12676652  0.85588256  0.39772017  1
  O  O273  1  0.11326809  0.86504149  0.87573252  1
  O  O274  1  0.62924215  0.38285152  0.35876105  1
  O  O275  1  0.61185642  0.36618466  0.88978691  1
  O  O276  1  0.61996766  0.86594359  0.37201560  1
  O  O277  1  0.61716502  0.87658858  0.86756806  1
  O  O278  1  0.38251244  0.11989919  0.13883899  1
  O  O279  1  0.38897595  0.13830720  0.63378527  1
  O  O280  1  0.36633031  0.63243420  0.13345218  1
  O  O281  1  0.38210494  0.58873571  0.63160672  1
  O  O282  1  0.88698873  0.12306564  0.13562986  1
  O  O283  1  0.88321537  0.13121762  0.62937202  1
  O  O284  1  0.87329839  0.63459994  0.13707262  1
  O  O285  1  0.88514477  0.62809508  0.61946717  1
  O  O286  1  0.24140897  0.26171798  0.12773399  1
  O  O287  1  0.25459346  0.25849400  0.62250075  1
  O  O288  1  0.25891772  0.76140084  0.13542800  1
  O  O289  1  0.25316374  0.73301345  0.61685605  1
  O  O290  1  0.75326952  0.26547005  0.12656489  1
  O  O291  1  0.75941507  0.24993330  0.61756569  1
  O  O292  1  0.76431983  0.75868289  0.12145582  1
  O  O293  1  0.73987478  0.75125303  0.61176482  1
  O  O294  1  0.24101676  0.24500320  0.38588023  1
  O  O295  1  0.24694397  0.22998190  0.86488608  1
  O  O296  1  0.24488682  0.73590843  0.38466963  1
  O  O297  1  0.24128315  0.73574901  0.86850017  1
  O  O298  1  0.75613596  0.24574337  0.39160486  1
  O  O299  1  0.74096291  0.24104931  0.86942493  1
  O  O300  1  0.74217353  0.74262619  0.38155247  1
  O  O301  1  0.76138489  0.74975481  0.88549383  1
  O  O302  1  -0.00598966  0.11854381  0.00826588  1
  O  O303  1  0.00468571  0.12799157  0.51103620  1
  O  O304  1  0.01360108  0.61745017  0.00630359  1
  O  O305  1  0.00519679  0.62284388  0.50567268  1
  O  O306  1  0.50575609  0.11620972  0.00659368  1
  O  O307  1  0.51441871  0.12343521  0.50640360  1
  O  O308  1  0.51694770  0.62963472  -0.00691445  1
  O  O309  1  0.51427704  0.62555753  0.49017106  1
  O  O310  1  0.49427764  0.33577867  0.46197337  1
  O  O311  1  0.49182639  0.38043549  0.99528076  1
  O  O312  1  0.51079802  0.88723187  0.48983049  1
  O  O313  1  0.50853530  0.87941621  0.98989207  1
  O  O314  1  0.99731908  0.38402665  0.49212412  1
  O  O315  1  0.98599757  0.38142030  0.99737167  1
  O  O316  1  0.98295079  0.86678870  0.49569597  1
  O  O317  1  0.98296220  0.86019409  0.98151909  1
  O  O318  1  0.44408076  0.48725046  0.43310392  1
  O  O319  1  0.48970083  0.49198401  0.87562300  1
  O  O320  1  0.49684532  0.99482354  0.38105634  1
  O  O321  1  0.50371960  0.98851390  0.88781661  1
  O  O322  1  1.00031227  0.48980622  0.38135520  1
  O  O323  1  1.01775173  0.47947870  0.89290306  1
  O  O324  1  0.98559010  0.99626391  0.37229943  1
  O  O325  1  0.98928512  0.99078787  0.86196919  1
  O  O326  1  0.00662074  0.01488187  0.13351385  1
  O  O327  1  -0.00581256  0.01445707  0.62123504  1
  O  O328  1  0.01020893  0.50220065  0.11907406  1
  O  O329  1  -0.00377521  0.51322877  0.61538667  1
  O  O330  1  0.50199851  0.00685931  0.11572808  1
  O  O331  1  0.49529338  0.01091380  0.61262300  1
  O  O332  1  0.51845023  0.49856579  0.12374766  1
  O  O333  1  0.51353970  0.49166043  0.62624018  1
  O  O334  1  0.22928591  0.37364606  0.23862079  1
  O  O335  1  0.23255077  0.37606780  0.74582896  1
  O  O336  1  0.25997399  0.88069959  0.24774926  1
  O  O337  1  0.24601609  0.87344855  0.75935870  1
  O  O338  1  0.74636687  0.38420144  0.24253241  1
  O  O339  1  0.74905366  0.38714773  0.74396922  1
  O  O340  1  0.75119031  0.88345802  0.24112086  1
  O  O341  1  0.73802441  0.88243028  0.74899878  1
  O  O342  1  0.26014253  0.11808389  0.25573406  1
  O  O343  1  0.26873603  0.11703178  0.73363866  1
  O  O344  1  0.25907623  0.61158938  0.25594300  1
  O  O345  1  0.25249791  0.61205073  0.76615444  1
  O  O346  1  0.76210078  0.10959192  0.23855777  1
  O  O347  1  0.75412621  0.12167825  0.76125413  1
  O  O348  1  0.75749535  0.62044575  0.25788348  1
  O  O349  1  0.75082429  0.61185351  0.74260460  1
  O  O350  1  0.37361975  0.11981531  0.36544271  1
  O  O351  1  0.36679661  0.13331120  0.86118346  1
  O  O352  1  0.35903342  0.62016167  0.36619167  1
  O  O353  1  0.36275235  0.61278073  0.88876353  1
  O  O354  1  0.87866670  0.11207738  0.36554640  1
  O  O355  1  0.87029368  0.12405662  0.87081303  1
  O  O356  1  0.86539298  0.63315325  0.36607768  1
  O  O357  1  0.92534979  0.61094054  0.86710644  1
  O  O358  1  0.12819569  0.38163432  0.13211994  1
  O  O359  1  0.12771578  0.36815930  0.63600130  1
  O  O360  1  0.14813730  0.87034930  0.12870621  1
  O  O361  1  0.12616354  0.87274818  0.60879954  1
  O  O362  1  0.63599867  0.38720445  0.12619579  1
  O  O363  1  0.62208440  0.38602075  0.61057565  1
  O  O364  1  0.64283347  0.86812276  0.12291395  1
  O  O365  1  0.62425078  0.87989625  0.63691086  1
  O  O366  1  0.12822330  0.25590427  0.26427389  1
  O  O367  1  0.11853522  0.25403192  0.74868411  1
  O  O368  1  0.11702600  0.74364658  0.26036782  1
  O  O369  1  0.11223440  0.74891382  0.75617361  1
  O  O370  1  0.63889528  0.26238832  0.25237112  1
  O  O371  1  0.61409021  0.24529867  0.76541468  1
  O  O372  1  0.62592019  0.74673274  0.26273121  1
  O  O373  1  0.61840773  0.76718043  0.74853185  1
  O  O374  1  0.37148056  0.23351379  0.25529860  1
  O  O375  1  0.38350815  0.24493307  0.74335746  1
  O  O376  1  0.37454444  0.73487182  0.25547126  1
  O  O377  1  0.38535803  0.74584985  0.75273102  1
  O  O378  1  0.86644803  0.23097512  0.25094395  1
  O  O379  1  0.86546905  0.24054725  0.73618446  1
  O  O380  1  0.88095146  0.74450679  0.24669034  1
  O  O381  1  0.88917607  0.74512931  0.75279457  1
  O  O382  1  0.38900446  0.46925497  0.47822450  1
  O  O383  1  0.37532632  0.49043762  0.99412975  1
  O  O384  1  0.39190256  1.01671958  0.48566586  1
  O  O385  1  0.39059791  0.98401663  1.00517464  1
  O  O386  1  0.88383329  0.50024071  0.50181932  1
  O  O387  1  0.88785174  0.49587001  1.00887996  1
  O  O388  1  0.86368773  0.99055530  0.48641308  1
  O  O389  1  0.86744540  0.98897602  0.98594824  1
  O  O390  1  0.11148135  -0.03849810  0.00242441  1
  O  O391  1  0.13151604  0.01690030  0.49771513  1
  O  O392  1  0.11947136  0.50321882  0.01457128  1
  O  O393  1  0.10942687  0.51141938  0.49423913  1
  O  O394  1  0.62043587  0.01129322  -0.00379840  1
  O  O395  1  0.61960457  0.01435813  0.49240673  1
  O  O396  1  0.63028151  0.51471603  0.01053274  1
  O  O397  1  0.62771383  0.51246265  0.50508997  1
  O  O398  1  0.35943017  0.37242862  0.12674061  1
  O  O399  1  0.36334059  0.36721762  0.63261247  1
  O  O400  1  0.36196806  0.87629945  0.11492740  1
  O  O401  1  0.34259293  0.91354216  0.62028097  1
  O  O402  1  0.86892638  0.37294323  0.11814688  1
  O  O403  1  0.87695959  0.36158845  0.62089465  1
  O  O404  1  0.87173853  0.86997460  0.11404332  1
  O  O405  1  0.86951864  0.87880850  0.60746968  1
  O  O406  1  0.12787706  0.13286222  0.38288435  1
  O  O407  1  0.13752449  0.12687476  0.88677892  1
  O  O408  1  0.13356998  0.63188188  0.37851783  1
  O  O409  1  0.12792437  0.63236549  0.88118098  1
  O  O410  1  0.62061373  0.13050997  0.38262408  1
  O  O411  1  0.63200269  0.13151353  0.88424465  1
  O  O412  1  0.63414525  0.63039944  0.38250371  1
  O  O413  1  0.63003939  0.61728090  0.88613367  1
