# generated using pymatgen
data_V79Zn79O256
_symmetry_space_group_name_H-M   'P 1'
_cell_length_a   16.89438917
_cell_length_b   16.90030177
_cell_length_c   16.88584357
_cell_angle_alpha   89.99845008
_cell_angle_beta   89.85834441
_cell_angle_gamma   89.87397583
_symmetry_Int_Tables_number   1
_chemical_formula_structural   V79Zn79O256
_chemical_formula_sum   'V79 Zn79 O256'
_cell_volume   4821.22430422
_cell_formula_units_Z   1
loop_
 _symmetry_equiv_pos_site_id
 _symmetry_equiv_pos_as_xyz
  1  'x, y, z'
loop_
 _atom_site_type_symbol
 _atom_site_label
 _atom_site_symmetry_multiplicity
 _atom_site_fract_x
 _atom_site_fract_y
 _atom_site_fract_z
 _atom_site_occupancy
  V  V0  1  0.24865171  0.37640404  0.62473243  1
  V  V1  1  0.38385201  0.38229220  0.49104816  1
  V  V2  1  0.86887352  0.49615507  0.87458957  1
  V  V3  1  -0.01261301  0.24343886  0.74596362  1
  V  V4  1  -0.00058161  0.62393057  0.12376693  1
  V  V5  1  0.12946986  -0.00764376  0.12349912  1
  V  V6  1  0.25217313  -0.00650224  0.24413352  1
  V  V7  1  0.49984723  0.00487752  0.49660903  1
  V  V8  1  0.62069740  0.74875007  0.87525734  1
  V  V9  1  0.60984231  0.61943176  0.00431004  1
  V  V10  1  0.49980727  0.74619138  0.24066804  1
  V  V11  1  0.24625651  0.24960510  0.50157623  1
  V  V12  1  0.37762673  0.62224277  0.24396027  1
  V  V13  1  0.62687008  0.61766528  0.50455327  1
  V  V14  1  0.50612962  0.01007583  0.00920479  1
  V  V15  1  0.25035379  0.64037191  0.37553125  1
  V  V16  1  0.49830602  0.88862550  0.87318886  1
  V  V17  1  0.75473745  0.75800802  0.52370883  1
  V  V18  1  0.36628881  0.74501944  0.61245920  1
  V  V19  1  0.00653416  0.36557293  0.87691033  1
  V  V20  1  -0.00054817  0.49633110  -0.00118558  1
  V  V21  1  0.61616060  0.37710006  0.73891688  1
  V  V22  1  0.87186074  0.01242724  0.87526299  1
  V  V23  1  0.87355839  0.75344596  0.12087898  1
  V  V24  1  -0.00734213  0.48767628  0.51057867  1
  V  V25  1  0.49751650  0.25731664  0.25984400  1
  V  V26  1  0.63442730  0.23569997  0.37917972  1
  V  V27  1  0.49571576  0.24180515  0.75750405  1
  V  V28  1  0.63715466  0.87363556  0.74695738  1
  V  V29  1  0.37130589  0.62513089  0.76342706  1
  V  V30  1  0.12348375  0.63727690  0.49152510  1
  V  V31  1  0.75090506  0.75310798  0.00001853  1
  V  V32  1  0.37771732  0.47948842  0.88596223  1
  V  V33  1  -0.00265120  0.86981101  0.88013091  1
  V  V34  1  0.00446950  0.75467179  0.25953468  1
  V  V35  1  0.26357032  0.11133105  0.86831546  1
  V  V36  1  0.74746662  0.49063607  0.73529406  1
  V  V37  1  0.12540047  0.50066054  0.12517289  1
  V  V38  1  0.00780561  0.75194155  0.75037210  1
  V  V39  1  0.75154097  0.23854578  0.51660366  1
  V  V40  1  0.86741882  0.62427589  0.25336693  1
  V  V41  1  0.14198065  -0.00267741  0.63372690  1
  V  V42  1  0.37070787  0.88272391  0.00974525  1
  V  V43  1  0.89329697  0.00143350  0.37550250  1
  V  V44  1  0.62737990  0.87984696  0.24601570  1
  V  V45  1  -0.00460691  0.24204307  0.24719548  1
  V  V46  1  0.50126369  0.87200339  0.37713762  1
  V  V47  1  0.36712615  0.87167843  0.49857509  1
  V  V48  1  0.12574477  0.36770583  0.75065727  1
  V  V49  1  0.12824021  0.63067555  -0.01666031  1
  V  V50  1  0.88620425  0.87539476  0.50306292  1
  V  V51  1  -0.00200896  0.63572186  0.62154897  1
  V  V52  1  0.74720874  0.62277230  0.87523465  1
  V  V53  1  0.25451195  0.37410260  0.12137651  1
  V  V54  1  0.64631583  0.12743285  -0.00337004  1
  V  V55  1  0.87399822  0.63180505  0.74482903  1
  V  V56  1  0.75091411  0.49492928  0.23484109  1
  V  V57  1  0.60198191  0.49701885  0.12158034  1
  V  V58  1  0.25286649  0.49866965  0.26095031  1
  V  V59  1  0.63254446  0.00056552  0.61807377  1
  V  V60  1  -0.00549120  0.37601926  0.37209095  1
  V  V61  1  0.75527807  0.01182138  0.75135486  1
  V  V62  1  0.25035309  0.11873778  0.37490363  1
  V  V63  1  0.75344900  0.00861337  0.25997048  1
  V  V64  1  0.86301793  0.24983814  0.12635220  1
  V  V65  1  0.24611395  0.24861186  -0.00435023  1
  V  V66  1  0.12449450  0.37224139  0.24976031  1
  V  V67  1  0.85440392  0.37042644  0.00314488  1
  V  V68  1  0.37523065  0.12115343  0.25288670  1
  V  V69  1  0.37745205  0.24889270  0.12141575  1
  V  V70  1  0.64072376  0.25727462  0.88015725  1
  V  V71  1  -0.00203201  -0.00115610  0.00011273  1
  V  V72  1  0.12052801  0.11727401  0.50416063  1
  V  V73  1  0.62323976  0.37792448  0.25721458  1
  V  V74  1  0.86551516  0.50170174  0.37434417  1
  V  V75  1  -0.01225954  0.11792746  0.62649149  1
  V  V76  1  0.74854903  0.88111673  0.12344181  1
  V  V77  1  0.12406151  0.12466738  -0.00717344  1
  V  V78  1  0.64302105  0.74465655  0.37226610  1
  Zn  Zn79  1  0.24465172  0.50743030  0.75981664  1
  Zn  Zn80  1  -0.00249997  0.12353019  0.12704279  1
  Zn  Zn81  1  0.24277130  0.75597183  -0.00618631  1
  Zn  Zn82  1  0.85378040  0.36795166  0.52799272  1
  Zn  Zn83  1  0.11753057  0.24558679  0.37729931  1
  Zn  Zn84  1  0.49603053  0.12226005  0.63202754  1
  Zn  Zn85  1  0.35659493  0.75678770  0.12853517  1
  Zn  Zn86  1  0.50204206  0.74811085  0.74036955  1
  Zn  Zn87  1  0.51144042  0.12473535  0.13180198  1
  Zn  Zn88  1  0.12255742  0.87605162  0.74473918  1
  Zn  Zn89  1  0.43436747  0.43223067  0.06457657  1
  Zn  Zn90  1  0.37673228  0.24502229  0.62864074  1
  Zn  Zn91  1  0.12896196  0.50564614  0.62623135  1
  Zn  Zn92  1  0.49981415  0.61514345  0.61781643  1
  Zn  Zn93  1  0.12751188  0.86905208  0.25865683  1
  Zn  Zn94  1  0.18442179  0.18261398  0.18285835  1
  Zn  Zn95  1  0.18462166  0.18740150  0.69010108  1
  Zn  Zn96  1  0.18876520  0.68945738  0.18089472  1
  Zn  Zn97  1  0.18943735  0.68999356  0.68304487  1
  Zn  Zn98  1  0.68405404  0.18926609  0.18749157  1
  Zn  Zn99  1  0.68018821  0.18606457  0.68908079  1
  Zn  Zn100  1  0.68414251  0.68322423  0.18432846  1
  Zn  Zn101  1  0.68734305  0.68315699  0.68831722  1
  Zn  Zn102  1  0.30721295  0.30586438  0.31472358  1
  Zn  Zn103  1  0.31100261  0.30957806  0.81280444  1
  Zn  Zn104  1  0.31576000  0.81281068  0.31490640  1
  Zn  Zn105  1  0.32077968  0.80110096  0.81663768  1
  Zn  Zn106  1  0.80993249  0.31415632  0.31372783  1
  Zn  Zn107  1  0.81269616  0.31388045  0.81152538  1
  Zn  Zn108  1  0.82303840  0.82080450  0.30999905  1
  Zn  Zn109  1  0.81724264  0.81738550  0.81577201  1
  Zn  Zn110  1  0.17937414  0.43906751  0.44147546  1
  Zn  Zn111  1  0.18977441  0.44127243  0.93662760  1
  Zn  Zn112  1  0.18013157  0.93704461  0.43531668  1
  Zn  Zn113  1  0.20609650  0.91135162  0.90476685  1
  Zn  Zn114  1  0.68409059  0.42767762  0.43979232  1
  Zn  Zn115  1  0.55771953  0.42669274  0.93202391  1
  Zn  Zn116  1  0.69254048  0.93273556  0.43545374  1
  Zn  Zn117  1  0.68716845  0.93956669  0.93619436  1
  Zn  Zn118  1  0.31491167  0.06318291  0.05862620  1
  Zn  Zn119  1  0.31854052  0.06338721  0.56304856  1
  Zn  Zn120  1  0.30668452  0.56685308  0.06050924  1
  Zn  Zn121  1  0.31222553  0.56072009  0.55921076  1
  Zn  Zn122  1  0.81838622  0.06277221  0.06718873  1
  Zn  Zn123  1  0.81066751  0.05747877  0.55325840  1
  Zn  Zn124  1  0.80913006  0.56388882  0.05861595  1
  Zn  Zn125  1  0.80842136  0.57215598  0.55748261  1
  Zn  Zn126  1  0.43693614  0.44210241  0.31950146  1
  Zn  Zn127  1  0.43272233  0.43922304  0.68441190  1
  Zn  Zn128  1  0.44335393  0.94077887  0.18865562  1
  Zn  Zn129  1  0.44656659  0.92601542  0.67691562  1
  Zn  Zn130  1  0.93465723  0.43381700  0.18509116  1
  Zn  Zn131  1  0.94306722  0.44223714  0.68971196  1
  Zn  Zn132  1  0.93524919  0.93794904  0.18860777  1
  Zn  Zn133  1  0.93666447  0.93893360  0.68472501  1
  Zn  Zn134  1  0.06745924  0.05853873  0.31348367  1
  Zn  Zn135  1  0.06700627  0.06017132  0.81205063  1
  Zn  Zn136  1  0.05891640  0.56246712  0.31391609  1
  Zn  Zn137  1  0.05769983  0.55555534  0.80764506  1
  Zn  Zn138  1  0.56306393  0.06117024  0.31332359  1
  Zn  Zn139  1  0.57306204  0.06693025  0.81651341  1
  Zn  Zn140  1  0.56673052  0.56624702  0.31565668  1
  Zn  Zn141  1  0.55486838  0.55982990  0.80604921  1
  Zn  Zn142  1  0.43414586  0.19154040  0.43810831  1
  Zn  Zn143  1  0.43995452  0.19525919  0.93369565  1
  Zn  Zn144  1  0.44293212  0.68299840  0.42978422  1
  Zn  Zn145  1  0.43406407  0.69702155  0.94179534  1
  Zn  Zn146  1  0.93137999  0.18722478  0.43959836  1
  Zn  Zn147  1  0.93408602  0.18870090  0.94013043  1
  Zn  Zn148  1  0.93193597  0.68845643  0.43953884  1
  Zn  Zn149  1  0.93757481  0.68501817  0.93476798  1
  Zn  Zn150  1  0.06192768  0.31003741  0.06414205  1
  Zn  Zn151  1  0.05263813  0.31305990  0.56865471  1
  Zn  Zn152  1  0.06505989  0.81181125  0.06569537  1
  Zn  Zn153  1  0.06639724  0.81951553  0.55911632  1
  Zn  Zn154  1  0.57209698  0.30505223  0.06978573  1
  Zn  Zn155  1  0.56538199  0.30923441  0.56353737  1
  Zn  Zn156  1  0.56398439  0.81568887  0.05963738  1
  Zn  Zn157  1  0.56101260  0.80797372  0.56216552  1
  O  O158  1  0.12079213  0.11212628  0.11516908  1
  O  O159  1  0.12323489  0.11528117  0.62114211  1
  O  O160  1  0.11241461  0.61879022  0.11875074  1
  O  O161  1  0.12091529  0.62680075  0.61022786  1
  O  O162  1  0.62373514  0.14072356  0.10207154  1
  O  O163  1  0.61758115  0.10299930  0.63187016  1
  O  O164  1  0.62763636  0.60789444  0.11824277  1
  O  O165  1  0.62415591  0.63102800  0.60980119  1
  O  O166  1  0.37051206  0.37115354  0.38380287  1
  O  O167  1  0.37894349  0.38096290  0.87686870  1
  O  O168  1  0.39008157  0.86595873  0.38617808  1
  O  O169  1  0.39654411  0.87296195  0.88742732  1
  O  O170  1  0.88461796  0.38433275  0.37328213  1
  O  O171  1  0.88101387  0.37751968  0.88687489  1
  O  O172  1  0.86834829  0.88757432  0.38618077  1
  O  O173  1  0.88917905  0.88769685  0.87256899  1
  O  O174  1  0.24452748  0.01354858  0.36414385  1
  O  O175  1  0.25147083  0.01144714  0.87482866  1
  O  O176  1  0.24009597  0.50331077  0.36342125  1
  O  O177  1  0.26873542  0.49500696  0.87466405  1
  O  O178  1  0.74798672  0.00168389  0.36237955  1
  O  O179  1  0.76230392  -0.00473236  0.86655746  1
  O  O180  1  0.76312638  0.49447468  0.36627273  1
  O  O181  1  0.76358759  0.50387472  0.86542172  1
  O  O182  1  0.24489807  0.49195452  0.13402232  1
  O  O183  1  0.24887351  0.48728627  0.62742477  1
  O  O184  1  0.24232061  1.00698807  0.13317631  1
  O  O185  1  0.24088831  1.00301997  0.62121471  1
  O  O186  1  0.75130253  0.49745193  0.13241014  1
  O  O187  1  0.75735942  0.50284295  0.63670479  1
  O  O188  1  0.76300716  0.98517590  0.13253158  1
  O  O189  1  0.74008889  1.00052165  0.63512925  1
  O  O190  1  0.00693878  0.37085219  0.25471240  1
  O  O191  1  0.00374955  0.36639157  0.75699871  1
  O  O192  1  -0.00454766  0.85622596  0.24343046  1
  O  O193  1  -0.00671138  0.86343159  0.75392365  1
  O  O194  1  0.50356168  0.36418773  0.25297198  1
  O  O195  1  0.51282718  0.37051953  0.74814407  1
  O  O196  1  0.50836373  0.87071810  0.25677580  1
  O  O197  1  0.50888212  0.87548741  0.76327091  1
  O  O198  1  0.49125557  0.12863498  0.25045940  1
  O  O199  1  0.50639755  0.13719216  0.75473551  1
  O  O200  1  0.48870840  0.63522666  0.25932318  1
  O  O201  1  0.48452037  0.62813516  0.74529804  1
  O  O202  1  1.00655490  0.13896611  0.25088966  1
  O  O203  1  1.00386385  0.13641359  0.74534249  1
  O  O204  1  0.99097662  0.62868132  0.23891007  1
  O  O205  1  0.99406156  0.63271362  0.74396276  1
  O  O206  1  0.36570262  0.24210017  0.01526907  1
  O  O207  1  0.35824085  0.25834897  0.49779729  1
  O  O208  1  0.37292122  0.76991722  0.00377133  1
  O  O209  1  0.37825167  0.75657860  0.50257978  1
  O  O210  1  0.87662483  0.26220837  0.00921950  1
  O  O211  1  0.85843311  0.25070704  0.49950865  1
  O  O212  1  0.86139809  0.73928805  0.00714199  1
  O  O213  1  0.86093454  0.75810763  0.49672943  1
  O  O214  1  0.13261775  0.23990536  0.50288516  1
  O  O215  1  0.13422612  0.23620115  1.01229240  1
  O  O216  1  0.11892276  0.73587429  0.49803613  1
  O  O217  1  0.11405451  0.73265033  0.99857177  1
  O  O218  1  0.63237223  0.25208367  0.48552656  1
  O  O219  1  0.63073258  0.24384379  0.98808009  1
  O  O220  1  0.63923089  0.75312300  0.48714890  1
  O  O221  1  0.63219683  0.74204577  0.99442327  1
  O  O222  1  0.49141821  0.24650381  0.13912077  1
  O  O223  1  0.50723678  0.24494270  0.64208904  1
  O  O224  1  0.50522445  0.75497720  0.13925546  1
  O  O225  1  0.49001838  0.74280587  0.62374384  1
  O  O226  1  0.99290995  0.25032518  0.13396789  1
  O  O227  1  1.00134873  0.23673707  0.63846585  1
  O  O228  1  0.98943816  0.74037063  0.12541992  1
  O  O229  1  1.00303109  0.74239436  0.63291046  1
  O  O230  1  -0.00301542  0.25818352  0.36543289  1
  O  O231  1  -0.00499073  0.25817575  0.86555286  1
  O  O232  1  -0.00718485  0.74126554  0.35756913  1
  O  O233  1  -0.00584316  0.76271901  0.86960318  1
  O  O234  1  0.50972724  0.24357288  0.36590337  1
  O  O235  1  0.51215524  0.25156393  0.86324406  1
  O  O236  1  0.51211745  0.75811713  0.36475594  1
  O  O237  1  0.51318018  0.76179361  0.87777046  1
  O  O238  1  0.24423318  0.12968936  0.49318221  1
  O  O239  1  0.24392488  0.12972037  0.99308132  1
  O  O240  1  0.23576731  0.61802427  0.48560863  1
  O  O241  1  0.23118246  0.62638083  0.99636964  1
  O  O242  1  0.74736140  0.13715855  0.50258786  1
  O  O243  1  0.74484349  0.11818630  0.99813822  1
  O  O244  1  0.74266592  0.64795315  0.50168157  1
  O  O245  1  0.73896457  0.63209725  0.99428908  1
  O  O246  1  0.23724147  0.36621514  0.01544017  1
  O  O247  1  0.24706035  0.36728126  0.50559579  1
  O  O248  1  0.27277303  0.90069885  0.00582052  1
  O  O249  1  0.26962510  0.88435311  0.49046546  1
  O  O250  1  0.75947833  0.37469981  -0.00093846  1
  O  O251  1  0.74793257  0.35624112  0.49785864  1
  O  O252  1  0.73962297  0.86262212  0.00786387  1
  O  O253  1  0.75290772  0.86118026  0.50061010  1
  O  O254  1  0.12945652  0.49295735  0.24423763  1
  O  O255  1  0.12673240  0.48757645  0.74686219  1
  O  O256  1  0.13574512  1.00091104  0.23992676  1
  O  O257  1  0.13167447  0.99860769  0.73903417  1
  O  O258  1  0.63187854  0.49895930  0.23914525  1
  O  O259  1  0.63828250  0.48984016  0.75641354  1
  O  O260  1  0.63420362  0.98700789  0.25321392  1
  O  O261  1  0.63743328  0.99248874  0.74785640  1
  O  O262  1  0.36820610  0.01173674  0.24192744  1
  O  O263  1  0.34421101  -0.04086250  0.74028706  1
  O  O264  1  0.36309306  0.50808333  0.25343797  1
  O  O265  1  0.37433197  0.51131190  0.76474418  1
  O  O266  1  0.86296396  -0.00797240  0.26172990  1
  O  O267  1  0.86308093  -0.00221687  0.75769958  1
  O  O268  1  0.86963528  0.50435828  0.25256934  1
  O  O269  1  0.86804303  0.50479048  0.75471819  1
  O  O270  1  0.12044202  0.37391394  0.35864344  1
  O  O271  1  0.11422018  0.38221832  0.86722980  1
  O  O272  1  0.12244642  0.87199022  0.37066985  1
  O  O273  1  0.09975701  0.89092602  0.86025967  1
  O  O274  1  0.62331189  0.36564163  0.36212726  1
  O  O275  1  0.62823352  0.36309688  0.86515293  1
  O  O276  1  0.62217517  0.86377073  0.36472452  1
  O  O277  1  0.62004477  0.86822977  0.86868642  1
  O  O278  1  0.37479718  0.13394570  0.13621238  1
  O  O279  1  0.38364356  0.13159863  0.61953479  1
  O  O280  1  0.36497008  0.62830112  0.14058029  1
  O  O281  1  0.37630987  0.63524829  0.61961606  1
  O  O282  1  0.87957278  0.14468528  0.11798650  1
  O  O283  1  0.88912024  0.11251014  0.62187585  1
  O  O284  1  0.88113391  0.63025202  0.12968319  1
  O  O285  1  0.88344486  0.62290815  0.63495184  1
  O  O286  1  0.25677039  0.25550746  0.12241016  1
  O  O287  1  0.24751494  0.25770846  0.61689781  1
  O  O288  1  0.24382819  0.75520657  0.11031681  1
  O  O289  1  0.26631568  0.75258529  0.62343900  1
  O  O290  1  0.76411007  0.25356200  0.13397672  1
  O  O291  1  0.74252724  0.24628369  0.61699082  1
  O  O292  1  0.75483349  0.75397315  0.11876415  1
  O  O293  1  0.75051678  0.75591499  0.62326906  1
  O  O294  1  0.24049333  0.23833779  0.38218334  1
  O  O295  1  0.25281977  0.25149498  0.89366576  1
  O  O296  1  0.24298489  0.73885470  0.36882791  1
  O  O297  1  0.23633698  0.79945243  0.88703259  1
  O  O298  1  0.73655008  0.24669953  0.36875164  1
  O  O299  1  0.73991259  0.24818669  0.86698780  1
  O  O300  1  0.74212744  0.75414311  0.36461023  1
  O  O301  1  0.74180542  0.74610684  0.88136395  1
  O  O302  1  0.00674808  0.11644933  -0.00180293  1
  O  O303  1  0.00962910  0.13541161  0.51685043  1
  O  O304  1  0.00143536  0.61667715  0.00659914  1
  O  O305  1  0.00520793  0.62106847  0.50405905  1
  O  O306  1  0.50088010  0.11487533  -0.00062348  1
  O  O307  1  0.49687144  0.10566460  0.49042624  1
  O  O308  1  0.51138603  0.63477921  -0.00092945  1
  O  O309  1  0.52245134  0.63179404  0.49353990  1
  O  O310  1  0.48108267  0.36257591  0.50506886  1
  O  O311  1  0.50081570  0.36388497  1.00574987  1
  O  O312  1  0.49971693  0.87868958  0.49064581  1
  O  O313  1  0.50764498  0.89005276  0.99068050  1
  O  O314  1  1.02404988  0.37852765  0.47436273  1
  O  O315  1  1.00414315  0.37981818  0.99110539  1
  O  O316  1  0.98525829  0.86141814  0.49298909  1
  O  O317  1  1.00517605  0.88208907  0.98766891  1
  O  O318  1  0.51117525  0.49666200  0.37846407  1
  O  O319  1  0.48606442  0.50104541  0.87689980  1
  O  O320  1  0.51354593  0.98571396  0.38719461  1
  O  O321  1  0.50777165  0.99180118  0.88010071  1
  O  O322  1  0.98969956  0.49329846  0.38036563  1
  O  O323  1  0.98577950  0.48880636  0.87596290  1
  O  O324  1  0.99265567  0.99057095  0.36452074  1
  O  O325  1  0.98858775  0.99601583  0.87820141  1
  O  O326  1  0.00136426  0.00071364  0.11645906  1
  O  O327  1  0.01200672  0.01572733  0.63630582  1
  O  O328  1  0.00282035  0.50647713  0.12078642  1
  O  O329  1  0.00613603  0.52271663  0.62367436  1
  O  O330  1  0.51049788  0.00331214  0.11335891  1
  O  O331  1  0.50983588  -0.00201097  0.61286743  1
  O  O332  1  0.50391582  0.50205940  0.13158329  1
  O  O333  1  0.50171784  0.50329894  0.62758008  1
  O  O334  1  0.24295215  0.37876309  0.24338426  1
  O  O335  1  0.24173442  0.37021083  0.74131976  1
  O  O336  1  0.25521565  0.89051611  0.25509593  1
  O  O337  1  0.29286710  0.90250813  0.74551454  1
  O  O338  1  0.73875063  0.38608092  0.25322559  1
  O  O339  1  0.74908873  0.38745945  0.74802343  1
  O  O340  1  0.74417238  0.88090454  0.24208762  1
  O  O341  1  0.74170765  0.88127229  0.75545208  1
  O  O342  1  0.25531803  0.12059002  0.25568819  1
  O  O343  1  0.24534698  0.14049709  0.77220210  1
  O  O344  1  0.25121551  0.61884859  0.25988205  1
  O  O345  1  0.26645364  0.62461148  0.74097737  1
  O  O346  1  0.74346746  0.10534860  0.23841608  1
  O  O347  1  0.74465756  0.11005230  0.75143642  1
  O  O348  1  0.76112201  0.61544408  0.24285974  1
  O  O349  1  0.75566155  0.61480014  0.75464293  1
  O  O350  1  0.36383080  0.13135424  0.36364759  1
  O  O351  1  0.36254808  0.12807691  0.88197246  1
  O  O352  1  0.35754015  0.63065314  0.36770623  1
  O  O353  1  0.37331223  0.63667875  0.86433184  1
  O  O354  1  0.88225238  0.10285558  0.38181398  1
  O  O355  1  0.87790165  0.11194957  0.87389068  1
  O  O356  1  0.88118328  0.61524546  0.36116245  1
  O  O357  1  0.87106600  0.61497341  0.86730530  1
  O  O358  1  0.13045087  0.37983597  0.13435613  1
  O  O359  1  0.13061091  0.37680463  0.63219675  1
  O  O360  1  0.11919781  0.88809096  0.13144321  1
  O  O361  1  0.12287701  0.89136374  0.62546339  1
  O  O362  1  0.61958176  0.38892451  0.13918304  1
  O  O363  1  0.62778008  0.37168855  0.64018396  1
  O  O364  1  0.63611534  0.86804459  0.13546027  1
  O  O365  1  0.61589672  0.88504857  0.63905453  1
  O  O366  1  0.11641366  0.25838965  0.24686363  1
  O  O367  1  0.11241974  0.26299690  0.74851373  1
  O  O368  1  0.10736517  0.74604171  0.24204198  1
  O  O369  1  0.11384875  0.75430064  0.74546269  1
  O  O370  1  0.61704373  0.25717099  0.25517204  1
  O  O371  1  0.62129918  0.26036468  0.75839772  1
  O  O372  1  0.62191337  0.75347627  0.25683983  1
  O  O373  1  0.62559290  0.75484119  0.75979294  1
  O  O374  1  0.37940637  0.24295630  0.24507853  1
  O  O375  1  0.39304996  0.25822856  0.75147399  1
  O  O376  1  0.38300235  0.74436118  0.24767070  1
  O  O377  1  0.37775438  0.74129375  0.73815812  1
  O  O378  1  0.88385233  0.26347675  0.23653994  1
  O  O379  1  0.88807661  0.25542547  0.74857559  1
  O  O380  1  0.88013120  0.74109320  0.24022188  1
  O  O381  1  0.88104530  0.73634950  0.75849890  1
  O  O382  1  0.36984874  0.48174194  0.49962421  1
  O  O383  1  0.37223917  0.50049198  0.99275941  1
  O  O384  1  0.39287842  0.98441801  0.50544623  1
  O  O385  1  0.39609060  0.99446123  1.00379319  1
  O  O386  1  0.88330256  0.50950165  0.49000806  1
  O  O387  1  0.87758990  0.48968859  0.99396479  1
  O  O388  1  0.87274499  0.98780608  0.48671898  1
  O  O389  1  0.88515620  1.00368695  0.98867080  1
  O  O390  1  0.11272945  0.00554134  0.00734117  1
  O  O391  1  0.12794578  0.01103645  0.51117475  1
  O  O392  1  0.11903164  0.50925755  0.00525260  1
  O  O393  1  0.10559548  0.50721370  0.50254259  1
  O  O394  1  0.61870227  0.01672676  -0.00926284  1
  O  O395  1  0.62068489  -0.01095326  0.51261334  1
  O  O396  1  0.61596588  0.50314631  0.01363831  1
  O  O397  1  0.64546685  0.52066367  0.49205836  1
  O  O398  1  0.36238022  0.36490272  0.12968232  1
  O  O399  1  0.36226409  0.36845659  0.61648166  1
  O  O400  1  0.38853182  0.87527561  0.11299735  1
  O  O401  1  0.38321315  0.85988556  0.60724664  1
  O  O402  1  0.87816999  0.36826727  0.11030624  1
  O  O403  1  0.94314769  0.39923372  0.58481563  1
  O  O404  1  0.86567330  0.85992682  0.12773502  1
  O  O405  1  0.87642561  0.88705836  0.60433970  1
  O  O406  1  0.12949185  0.12458216  0.38655240  1
  O  O407  1  0.13228908  0.11914115  0.88890343  1
  O  O408  1  0.13010422  0.62186072  0.38357943  1
  O  O409  1  0.11397777  0.61826317  0.88471756  1
  O  O410  1  0.62591243  0.13647660  0.36950006  1
  O  O411  1  0.62602099  0.13992831  0.88722537  1
  O  O412  1  0.63076638  0.64176354  0.37915569  1
  O  O413  1  0.62679081  0.63100396  0.87996442  1
