# generated using pymatgen
data_V79Zn79O256
_symmetry_space_group_name_H-M   'P 1'
_cell_length_a   16.90935211
_cell_length_b   16.97878418
_cell_length_c   16.95696362
_cell_angle_alpha   90.10916164
_cell_angle_beta   89.90635667
_cell_angle_gamma   89.95768725
_symmetry_Int_Tables_number   1
_chemical_formula_structural   V79Zn79O256
_chemical_formula_sum   'V79 Zn79 O256'
_cell_volume   4868.33164865
_cell_formula_units_Z   1
loop_
 _symmetry_equiv_pos_site_id
 _symmetry_equiv_pos_as_xyz
  1  'x, y, z'
loop_
 _atom_site_type_symbol
 _atom_site_label
 _atom_site_symmetry_multiplicity
 _atom_site_fract_x
 _atom_site_fract_y
 _atom_site_fract_z
 _atom_site_occupancy
  V  V0  1  0.26547919  0.87161507  0.61286319  1
  V  V1  1  0.62455133  0.37383625  0.23842650  1
  V  V2  1  0.63251647  0.37006703  0.73567531  1
  V  V3  1  0.62290513  0.24833661  0.37565733  1
  V  V4  1  0.00189281  0.13624953  0.12639481  1
  V  V5  1  0.12837828  0.74863249  0.88169229  1
  V  V6  1  0.87027041  0.25854629  0.62732798  1
  V  V7  1  0.48599729  0.74169750  0.24171536  1
  V  V8  1  0.37318199  0.51709729  0.37516366  1
  V  V9  1  0.37841065  0.64565359  0.74197062  1
  V  V10  1  0.13728099  0.75783358  0.39603036  1
  V  V11  1  0.36720469  0.24765968  0.11838210  1
  V  V12  1  0.37454533  0.00342626  0.87409635  1
  V  V13  1  0.61096233  0.51806263  0.11790753  1
  V  V14  1  0.75392431  0.76407515  0.50478352  1
  V  V15  1  0.00816293  0.61980748  0.12725736  1
  V  V16  1  0.75012135  0.12613462  0.87914342  1
  V  V17  1  0.12437186  0.88100781  0.24226024  1
  V  V18  1  0.00906552  0.50296684  0.00522963  1
  V  V19  1  0.36885255  0.00479696  0.38452334  1
  V  V20  1  0.24565534  0.61922329  0.87412494  1
  V  V21  1  0.12321124  0.39218381  0.24565849  1
  V  V22  1  0.50411520  0.49488319  0.50871098  1
  V  V23  1  0.24944100  0.38147035  0.62412498  1
  V  V24  1  0.74676690  0.49647764  0.24267350  1
  V  V25  1  0.36644030  0.86597586  0.00342017  1
  V  V26  1  0.74652141  -0.00195548  0.24177908  1
  V  V27  1  0.87757687  0.13436352  0.24217843  1
  V  V28  1  0.37152012  0.38569463  0.00372805  1
  V  V29  1  0.25747995  0.00043275  0.23963995  1
  V  V30  1  0.50184296  -0.00237867  0.00325613  1
  V  V31  1  0.87254921  0.37652291  0.49581584  1
  V  V32  1  0.87746470  0.76309133  0.12004569  1
  V  V33  1  0.51728421  0.00485721  0.50018628  1
  V  V34  1  0.01044638  0.25197200  0.75321867  1
  V  V35  1  0.37072104  0.24934165  0.61794739  1
  V  V36  1  0.50706585  0.12309734  0.62188681  1
  V  V37  1  0.62908235  0.73361430  0.87546977  1
  V  V38  1  0.00211450  0.74861506  0.25595758  1
  V  V39  1  0.62656751  0.87713650  0.24073131  1
  V  V40  1  0.88182218  0.49603331  0.37191094  1
  V  V41  1  0.12750341  0.13339258  0.49495685  1
  V  V42  1  0.37679501  0.49683104  0.86050114  1
  V  V43  1  0.74484167  0.12690587  0.37405496  1
  V  V44  1  0.63125289  0.61898117  0.51018552  1
  V  V45  1  0.50434164  0.38017605  0.88112696  1
  V  V46  1  -0.00126383  0.74190179  0.74536773  1
  V  V47  1  0.74582453  0.49933374  0.72844908  1
  V  V48  1  -0.00336260  0.36281579  0.36752596  1
  V  V49  1  0.87573215  0.12872432  0.75220863  1
  V  V50  1  0.87233513  0.00021317  0.37618783  1
  V  V51  1  0.00281838  0.37183807  0.87542206  1
  V  V52  1  -0.00685803  0.87854112  0.38157698  1
  V  V53  1  0.86909155  0.36912070  0.01288210  1
  V  V54  1  -0.00418502  0.00419951  0.50182994  1
  V  V55  1  0.49049453  0.37370817  0.37653380  1
  V  V56  1  0.87257254  -0.00211458  0.87916627  1
  V  V57  1  0.13203664  0.39599646  0.75300839  1
  V  V58  1  0.62796379  0.87551840  0.74056555  1
  V  V59  1  0.25058461  0.00305248  0.75473111  1
  V  V60  1  0.62125988  0.12081136  0.00468145  1
  V  V61  1  0.62451828  0.25090859  0.87842847  1
  V  V62  1  0.49426442  0.87572160  0.37842210  1
  V  V63  1  0.86951607  0.62396506  0.74698763  1
  V  V64  1  0.12369707  0.00372840  0.62444574  1
  V  V65  1  0.12192280  0.24473274  0.35768241  1
  V  V66  1  0.87645919  0.62553333  0.24710276  1
  V  V67  1  0.49117844  0.24587448  0.24914329  1
  V  V68  1  0.86358771  0.49855158  0.87511326  1
  V  V69  1  0.86718684  0.76838478  0.62538128  1
  V  V70  1  0.50308278  0.86696142  0.86822185  1
  V  V71  1  0.74818780  0.25190775  0.49974667  1
  V  V72  1  0.75291218  0.62487943  0.37638465  1
  V  V73  1  -0.00568779  0.87285216  0.87775087  1
  V  V74  1  0.62650690  0.75005988  0.37219532  1
  V  V75  1  0.49681904  0.12067220  0.12632815  1
  V  V76  1  0.00364802  -0.00785683  0.00844680  1
  V  V77  1  0.12911851  0.13517638  -0.00071059  1
  V  V78  1  0.12479953  0.87571364  0.74759860  1
  Zn  Zn79  1  0.03970756  0.52767829  0.52467692  1
  Zn  Zn80  1  0.50297225  0.24719807  0.74764689  1
  Zn  Zn81  1  0.75355104  0.25205784  0.02403379  1
  Zn  Zn82  1  0.22712148  0.15780373  0.86610495  1
  Zn  Zn83  1  0.00140447  0.13568937  0.62186383  1
  Zn  Zn84  1  0.74103664  0.74445221  -0.00133866  1
  Zn  Zn85  1  0.37318830  0.12828118  0.74926929  1
  Zn  Zn86  1  0.25458641  0.13029311  0.36453632  1
  Zn  Zn87  1  0.25477531  0.25073353  0.49049339  1
  Zn  Zn88  1  0.74983508  -0.01273876  0.72553752  1
  Zn  Zn89  1  0.49845280  0.63180546  0.62666884  1
  Zn  Zn90  1  0.26852381  0.51469923  0.23442725  1
  Zn  Zn91  1  0.75085666  0.88255599  0.10806969  1
  Zn  Zn92  1  0.23608408  0.38697755  0.11667241  1
  Zn  Zn93  1  0.26651055  0.84891104  0.13172501  1
  Zn  Zn94  1  0.18877939  0.18168117  0.17884055  1
  Zn  Zn95  1  0.18722038  0.18579095  0.68305750  1
  Zn  Zn96  1  0.20618513  0.67818338  0.20851654  1
  Zn  Zn97  1  0.20060050  0.69387966  0.69148735  1
  Zn  Zn98  1  0.68288929  0.18574515  0.18715549  1
  Zn  Zn99  1  0.70331062  0.15424412  0.66905838  1
  Zn  Zn100  1  0.68965325  0.68974135  0.18455300  1
  Zn  Zn101  1  0.68743704  0.69225710  0.69526400  1
  Zn  Zn102  1  0.30491190  0.31852060  0.30636099  1
  Zn  Zn103  1  0.31534233  0.31337305  0.80494481  1
  Zn  Zn104  1  0.31150389  0.81307242  0.31893331  1
  Zn  Zn105  1  0.31176588  0.81748040  0.81164503  1
  Zn  Zn106  1  0.80792626  0.31174594  0.30201134  1
  Zn  Zn107  1  0.80989212  0.31301662  0.81888165  1
  Zn  Zn108  1  0.81271759  0.81339327  0.31125950  1
  Zn  Zn109  1  0.80685540  0.81153331  0.81455410  1
  Zn  Zn110  1  0.18954927  0.42659764  0.44094363  1
  Zn  Zn111  1  0.19050713  0.43516675  0.93481183  1
  Zn  Zn112  1  0.18307816  0.94020242  0.43712822  1
  Zn  Zn113  1  0.18470573  0.93986747  0.94077994  1
  Zn  Zn114  1  0.68592806  0.43495750  0.43157044  1
  Zn  Zn115  1  0.68673159  0.43923317  0.94328885  1
  Zn  Zn116  1  0.68582523  0.93900859  0.43064490  1
  Zn  Zn117  1  0.68836011  0.93247244  0.93607565  1
  Zn  Zn118  1  0.31339879  0.05778766  0.06070519  1
  Zn  Zn119  1  0.31143841  0.06151307  0.56269874  1
  Zn  Zn120  1  0.30599528  0.56651770  0.04941188  1
  Zn  Zn121  1  0.32047283  0.55631424  0.56344655  1
  Zn  Zn122  1  0.81492395  0.06425341  0.06035549  1
  Zn  Zn123  1  0.81388470  0.06673369  0.56026957  1
  Zn  Zn124  1  0.80680798  0.55886072  0.06056238  1
  Zn  Zn125  1  0.85432182  0.58591219  0.54207320  1
  Zn  Zn126  1  0.43852176  0.43974588  0.18962205  1
  Zn  Zn127  1  0.44180139  0.42832697  0.68744647  1
  Zn  Zn128  1  0.43748362  0.93107452  0.18971379  1
  Zn  Zn129  1  0.44168179  0.93968153  0.68532698  1
  Zn  Zn130  1  0.94029553  0.43589545  0.18944519  1
  Zn  Zn131  1  0.93704108  0.44388770  0.68495442  1
  Zn  Zn132  1  0.93828737  0.94244472  0.19279069  1
  Zn  Zn133  1  0.93820747  0.94189184  0.69200451  1
  Zn  Zn134  1  0.06303926  0.06201810  0.30953365  1
  Zn  Zn135  1  0.06063281  0.06294313  0.81729939  1
  Zn  Zn136  1  0.14102420  0.56693784  0.35342591  1
  Zn  Zn137  1  0.05471400  0.56498459  0.81858043  1
  Zn  Zn138  1  0.55986713  0.06090298  0.30949646  1
  Zn  Zn139  1  0.56162240  0.05795899  0.81167755  1
  Zn  Zn140  1  0.55962654  0.56009961  0.31128121  1
  Zn  Zn141  1  0.55986511  0.55641752  0.80121954  1
  Zn  Zn142  1  0.43640581  0.18382420  0.43689216  1
  Zn  Zn143  1  0.40816507  0.20892432  0.91834455  1
  Zn  Zn144  1  0.44559590  0.68371719  0.43855935  1
  Zn  Zn145  1  0.42968312  0.68838215  0.92702851  1
  Zn  Zn146  1  0.93500600  0.18767128  0.43496986  1
  Zn  Zn147  1  0.94162217  0.18791516  0.94055153  1
  Zn  Zn148  1  0.97683931  0.67310246  0.42927658  1
  Zn  Zn149  1  0.89729230  0.66421787  0.95630917  1
  Zn  Zn150  1  0.05735086  0.31344700  0.06428852  1
  Zn  Zn151  1  0.04387778  0.35022153  0.58080543  1
  Zn  Zn152  1  0.11312896  0.76146108  0.09129744  1
  Zn  Zn153  1  0.05455439  0.81923515  0.56871685  1
  Zn  Zn154  1  0.55722015  0.31009211  0.06112486  1
  Zn  Zn155  1  0.55996773  0.30653583  0.55833641  1
  Zn  Zn156  1  0.55973538  0.80500586  0.05820718  1
  Zn  Zn157  1  0.56484034  0.81346797  0.55449999  1
  O  O158  1  0.10899095  0.12207713  0.11822017  1
  O  O159  1  0.12070528  0.12109143  0.61374203  1
  O  O160  1  0.10650787  0.63529183  0.13063752  1
  O  O161  1  0.16830327  0.62253255  0.59474747  1
  O  O162  1  0.61089354  0.12689072  0.11503539  1
  O  O163  1  0.60334433  0.14419061  0.61779222  1
  O  O164  1  0.62544652  0.61771801  0.12752784  1
  O  O165  1  0.62272952  0.63650139  0.61308008  1
  O  O166  1  0.38945946  0.36655895  0.37374700  1
  O  O167  1  0.38388423  0.37996068  0.88141229  1
  O  O168  1  0.38776921  0.88481968  0.37434624  1
  O  O169  1  0.38420292  0.88335460  0.88054472  1
  O  O170  1  0.87721896  0.37538332  0.37346488  1
  O  O171  1  0.88630497  0.38278388  0.87607423  1
  O  O172  1  0.87886286  0.89160363  0.36875398  1
  O  O173  1  0.88306373  0.88584144  0.86382654  1
  O  O174  1  0.26119273  -0.00343392  0.36985760  1
  O  O175  1  0.25786241  -0.00340834  0.86651750  1
  O  O176  1  0.27816044  0.48464149  0.39060638  1
  O  O177  1  0.25591317  0.51345035  0.87584413  1
  O  O178  1  0.75481344  0.00906658  0.36818805  1
  O  O179  1  0.75811706  0.01228585  0.87824834  1
  O  O180  1  0.75294540  0.50934776  0.36388203  1
  O  O181  1  0.76160256  0.49300881  0.87207540  1
  O  O182  1  0.26466692  0.49866058  0.12380340  1
  O  O183  1  0.25809611  0.47950828  0.62268142  1
  O  O184  1  0.25996320  0.98917988  0.13909916  1
  O  O185  1  0.24307334  0.99577735  0.63648868  1
  O  O186  1  0.74222276  0.50667229  0.13931332  1
  O  O187  1  0.75331278  0.49656926  0.63273084  1
  O  O188  1  0.75777201  0.99864539  0.13758853  1
  O  O189  1  0.73701562  1.04811568  0.63499054  1
  O  O190  1  0.00713031  0.37264256  0.25806244  1
  O  O191  1  0.01279323  0.37120824  0.75687592  1
  O  O192  1  0.00717880  0.87489525  0.26175147  1
  O  O193  1  0.00879923  0.87328680  0.75803553  1
  O  O194  1  0.50609616  0.36466324  0.25767675  1
  O  O195  1  0.51800070  0.37302526  0.75792228  1
  O  O196  1  0.50882171  0.86898190  0.25976774  1
  O  O197  1  0.50394998  0.88069685  0.76403296  1
  O  O198  1  0.50303072  0.13367184  0.23956947  1
  O  O199  1  0.49945131  0.12060177  0.73320854  1
  O  O200  1  0.50328450  0.64409040  0.26164670  1
  O  O201  1  0.48417449  0.61999116  0.74260864  1
  O  O202  1  0.98925273  0.11396567  0.23708999  1
  O  O203  1  0.98887886  0.13391960  0.75470194  1
  O  O204  1  0.98884210  0.63351824  0.24775797  1
  O  O205  1  0.99374065  0.63556481  0.74966900  1
  O  O206  1  0.38274623  0.26406059  0.01606131  1
  O  O207  1  0.37335030  0.24551776  0.51188552  1
  O  O208  1  0.37339246  0.76845481  -0.01322075  1
  O  O209  1  0.41425191  0.74788914  0.53137953  1
  O  O210  1  0.87746162  0.26552123  -0.00496619  1
  O  O211  1  0.86818234  0.25565644  0.50496991  1
  O  O212  1  0.89813393  0.75905049  0.02221855  1
  O  O213  1  0.86811974  0.75332828  0.52134799  1
  O  O214  1  0.12234234  0.23724384  0.48728107  1
  O  O215  1  0.12052154  0.23521970  1.00641474  1
  O  O216  1  0.12030546  0.76679654  0.49469568  1
  O  O217  1  0.11320552  0.75385837  0.97850486  1
  O  O218  1  0.63210983  0.25470547  0.48380786  1
  O  O219  1  0.62081601  0.23791760  0.99262134  1
  O  O220  1  0.63359684  0.74126953  0.48923747  1
  O  O221  1  0.61929967  0.74514738  0.98198531  1
  O  O222  1  0.49237601  0.24120410  0.13219967  1
  O  O223  1  0.48722281  0.24077106  0.61958966  1
  O  O224  1  0.50470064  0.75443538  0.14383066  1
  O  O225  1  0.47456402  0.74565466  0.58685146  1
  O  O226  1  0.99576753  0.23412869  0.12457985  1
  O  O227  1  0.99015692  0.25654846  0.63629039  1
  O  O228  1  0.99509674  0.74394890  0.14212191  1
  O  O229  1  0.98352330  0.76106562  0.63751342  1
  O  O230  1  0.00654395  0.25340280  0.37185271  1
  O  O231  1  -0.00627237  0.26327823  0.86696084  1
  O  O232  1  -0.01950348  0.76897257  0.36847124  1
  O  O233  1  0.00935304  0.75951691  0.86009902  1
  O  O234  1  0.50432344  0.25106085  0.36938397  1
  O  O235  1  0.50743532  0.25831328  0.87125053  1
  O  O236  1  0.50944902  0.75882196  0.37260883  1
  O  O237  1  0.50390365  0.76288946  0.87710907  1
  O  O238  1  0.23867586  0.12445657  0.49402072  1
  O  O239  1  0.22962135  0.11532693  1.00819731  1
  O  O240  1  0.22062443  0.62438335  0.53825281  1
  O  O241  1  0.26413650  0.63699814  0.97184245  1
  O  O242  1  0.75835876  0.13862661  0.48051533  1
  O  O243  1  0.74053121  0.12570329  0.99487802  1
  O  O244  1  0.75130163  0.63281439  0.49030957  1
  O  O245  1  0.78886608  0.64125280  0.99060956  1
  O  O246  1  0.26581892  0.37617440  -0.00101212  1
  O  O247  1  0.23652059  0.36230510  0.52100549  1
  O  O248  1  0.26305481  0.88349145  0.00246279  1
  O  O249  1  0.24612555  0.88874888  0.51527666  1
  O  O250  1  0.76625139  0.37280794  -0.00352187  1
  O  O251  1  0.75733985  0.35965587  0.48584509  1
  O  O252  1  0.74670799  0.86191770  -0.00154572  1
  O  O253  1  0.74169260  0.86266968  0.49416242  1
  O  O254  1  0.11218486  0.48881846  0.25592416  1
  O  O255  1  0.12285256  0.49406615  0.75152467  1
  O  O256  1  0.13624521  0.98589881  0.25990159  1
  O  O257  1  0.12911407  0.99503055  0.74851414  1
  O  O258  1  0.62862290  0.49386770  0.24337112  1
  O  O259  1  0.63688410  0.48504345  0.74925327  1
  O  O260  1  0.63444215  0.99014087  0.25678341  1
  O  O261  1  0.62627802  0.98149019  0.75657128  1
  O  O262  1  0.36261723  -0.01104280  0.26070895  1
  O  O263  1  0.36519392  -0.00161368  0.75654941  1
  O  O264  1  0.38058478  0.49750580  0.27013317  1
  O  O265  1  0.37481806  0.49091107  0.75927321  1
  O  O266  1  0.86636603  0.00838349  0.25925629  1
  O  O267  1  0.87225124  0.01321462  0.75880126  1
  O  O268  1  0.86666585  0.50548187  0.25272859  1
  O  O269  1  0.86377093  0.50113087  0.75177715  1
  O  O270  1  0.11634677  0.36264603  0.36196571  1
  O  O271  1  0.11794760  0.37904271  0.86272651  1
  O  O272  1  0.11228494  0.86940295  0.37293569  1
  O  O273  1  0.11939151  0.86796054  0.86582079  1
  O  O274  1  0.61505710  0.36541910  0.36373236  1
  O  O275  1  0.62010336  0.36678840  0.87886500  1
  O  O276  1  0.61795416  0.86657354  0.36712051  1
  O  O277  1  0.61113530  0.86925202  0.87039796  1
  O  O278  1  0.38113133  0.13958209  0.11543394  1
  O  O279  1  0.38086182  0.13283050  0.62568786  1
  O  O280  1  0.41152458  0.62824038  0.08095821  1
  O  O281  1  0.37088746  0.62383810  0.63979828  1
  O  O282  1  0.88369305  0.12079571  0.13519257  1
  O  O283  1  0.88078007  0.14017117  0.63595300  1
  O  O284  1  0.88364966  0.63154750  0.13695300  1
  O  O285  1  0.86959446  0.63694762  0.64362787  1
  O  O286  1  0.26544302  0.25600392  0.13203613  1
  O  O287  1  0.26237024  0.24961975  0.62579003  1
  O  O288  1  0.22230653  0.74704580  0.12654431  1
  O  O289  1  0.24844693  0.77381862  0.62870597  1
  O  O290  1  0.74935952  0.25269165  0.13393454  1
  O  O291  1  0.75825919  0.24085964  0.61049447  1
  O  O292  1  0.76945207  0.75062474  0.12592727  1
  O  O293  1  0.75850991  0.74992304  0.62054497  1
  O  O294  1  0.24046703  0.24836269  0.37271039  1
  O  O295  1  0.29942933  0.23625945  0.88303239  1
  O  O296  1  0.23667404  0.75531059  0.38232538  1
  O  O297  1  0.23260841  0.74977629  0.86655995  1
  O  O298  1  0.74139026  0.24415327  0.37423508  1
  O  O299  1  0.74074925  0.24266274  0.88548337  1
  O  O300  1  0.74804117  0.74309158  0.38095103  1
  O  O301  1  0.73350338  0.74600299  0.87261281  1
  O  O302  1  0.00425685  0.11753242  0.01047913  1
  O  O303  1  0.00535849  0.11809930  0.49816789  1
  O  O304  1  -0.00889039  0.60839201  0.00780865  1
  O  O305  1  -0.03650230  0.60826522  0.51315986  1
  O  O306  1  0.50508015  0.11498551  0.00722963  1
  O  O307  1  0.49499239  0.11265664  0.50660205  1
  O  O308  1  0.46584732  0.63020414  0.02761953  1
  O  O309  1  0.51492423  0.61008822  0.50052905  1
  O  O310  1  0.51293408  0.38739903  0.48995899  1
  O  O311  1  0.49045029  0.37145607  0.98845934  1
  O  O312  1  0.51040916  0.89328206  0.48880097  1
  O  O313  1  0.49355569  0.88210729  0.99234655  1
  O  O314  1  0.98301994  0.36702858  0.48080159  1
  O  O315  1  0.99357894  0.38240004  0.99376014  1
  O  O316  1  0.99988874  0.89239399  0.49189753  1
  O  O317  1  1.00278536  0.88872612  0.98619109  1
  O  O318  1  0.49270397  0.49173314  0.38051950  1
  O  O319  1  0.49372059  0.48797532  0.86881600  1
  O  O320  1  0.49217767  0.99782747  0.38190039  1
  O  O321  1  0.49489950  0.98825524  0.88385543  1
  O  O322  1  0.98161520  0.48589549  0.36902229  1
  O  O323  1  0.99226472  0.49141435  0.88498841  1
  O  O324  1  0.99227051  0.99683087  0.38011289  1
  O  O325  1  0.99105990  0.99247769  0.87886373  1
  O  O326  1  -0.00790541  0.00203246  0.11058326  1
  O  O327  1  0.00217938  0.00397094  0.61653496  1
  O  O328  1  -0.00396400  0.50477976  0.11363812  1
  O  O329  1  0.01536580  0.46015874  0.60968696  1
  O  O330  1  0.48841978  0.00919498  0.11661031  1
  O  O331  1  0.49929420  0.01010025  0.61019830  1
  O  O332  1  0.51169536  0.50353166  0.13118654  1
  O  O333  1  0.49860106  0.49497036  0.61055943  1
  O  O334  1  0.23310676  0.38765564  0.24880669  1
  O  O335  1  0.23804308  0.37492690  0.74823908  1
  O  O336  1  0.23782497  0.87891805  0.25036254  1
  O  O337  1  0.24033182  0.88537641  0.74518328  1
  O  O338  1  0.73671672  0.38695682  0.25776450  1
  O  O339  1  0.74079122  0.38210662  0.75214110  1
  O  O340  1  0.74236186  0.88433979  0.25283954  1
  O  O341  1  0.73513092  0.87608736  0.75172758  1
  O  O342  1  0.24313754  0.10411918  0.24732958  1
  O  O343  1  0.24778274  0.11403074  0.75384938  1
  O  O344  1  0.22307894  0.60433329  0.28413858  1
  O  O345  1  0.26583624  0.63109505  0.76162527  1
  O  O346  1  0.75857919  0.11718232  0.25512503  1
  O  O347  1  0.76327000  0.13734827  0.76846631  1
  O  O348  1  0.75735642  0.62131866  0.25861781  1
  O  O349  1  0.75233448  0.60702187  0.74775022  1
  O  O350  1  0.37394740  0.10957127  0.37229427  1
  O  O351  1  0.39080646  0.10528701  0.86988039  1
  O  O352  1  0.37210934  0.61725010  0.38361849  1
  O  O353  1  0.37188259  0.61637181  0.85908873  1
  O  O354  1  0.86874907  0.11857383  0.36213386  1
  O  O355  1  0.87047294  0.12065794  0.87226602  1
  O  O356  1  0.86936120  0.61602111  0.36494452  1
  O  O357  1  0.88529611  0.60920400  0.85663902  1
  O  O358  1  0.12030924  0.36966630  0.14123306  1
  O  O359  1  0.14003716  0.36405476  0.64569992  1
  O  O360  1  0.11497913  0.87309733  0.14368935  1
  O  O361  1  0.12440682  0.88552795  0.63644213  1
  O  O362  1  0.61502256  0.37836716  0.13659929  1
  O  O363  1  0.62435238  0.36124601  0.63786942  1
  O  O364  1  0.62809719  0.86674776  0.13835362  1
  O  O365  1  0.61187725  0.86543433  0.64205119  1
  O  O366  1  0.12893050  0.24663103  0.25615536  1
  O  O367  1  0.11215502  0.24316362  0.75080744  1
  O  O368  1  0.11264735  0.76604024  0.26535913  1
  O  O369  1  0.11659477  0.75794128  0.74963471  1
  O  O370  1  0.61297373  0.25561413  0.25706798  1
  O  O371  1  0.62875843  0.26116947  0.76382000  1
  O  O372  1  0.62712860  0.75700148  0.26179852  1
  O  O373  1  0.62393302  0.76311097  0.76328946  1
  O  O374  1  0.38480147  0.26089343  0.23631959  1
  O  O375  1  0.38382369  0.24635775  0.73433732  1
  O  O376  1  0.38592457  0.75705752  0.25355098  1
  O  O377  1  0.37939465  0.74488165  0.75320864  1
  O  O378  1  0.87467989  0.23236051  0.25458248  1
  O  O379  1  0.88027111  0.24869667  0.74564197  1
  O  O380  1  0.88172472  0.74330987  0.24661500  1
  O  O381  1  0.87714766  0.74409966  0.74699627  1
  O  O382  1  0.39653722  0.50516485  0.49170445  1
  O  O383  1  0.37660878  0.48804160  0.98521937  1
  O  O384  1  0.37902758  1.00028936  0.48654999  1
  O  O385  1  0.38326997  0.99285940  0.99167252  1
  O  O386  1  0.85700848  0.48323451  0.48409589  1
  O  O387  1  0.88134031  0.48713406  0.99256489  1
  O  O388  1  0.88254874  1.01275704  0.48749709  1
  O  O389  1  0.88759498  1.00818810  0.98730520  1
  O  O390  1  0.10725992  0.00799578  -0.00533955  1
  O  O391  1  0.11370158  0.01125091  0.50216817  1
  O  O392  1  0.10816064  0.49381346  -0.00550284  1
  O  O393  1  0.12191344  0.51343494  0.45118597  1
  O  O394  1  0.61391756  0.00955438  -0.00771225  1
  O  O395  1  0.61605703  0.00952739  0.48980018  1
  O  O396  1  0.63054911  0.49694679  0.02073307  1
  O  O397  1  0.61965683  0.50836603  0.49234623  1
  O  O398  1  0.38132464  0.37069659  0.11246017  1
  O  O399  1  0.36320915  0.35993855  0.63214274  1
  O  O400  1  0.37896587  0.87329304  0.10869508  1
  O  O401  1  0.36459329  0.88498491  0.62489529  1
  O  O402  1  0.88066876  0.37803090  0.11156717  1
  O  O403  1  0.87413048  0.36465741  0.61342329  1
  O  O404  1  0.87496870  0.86428155  0.13853298  1
  O  O405  1  0.86738606  0.86764703  0.63894574  1
  O  O406  1  0.12583250  0.12963012  0.37730267  1
  O  O407  1  0.12132507  0.12572765  0.89096855  1
  O  O408  1  0.08951716  0.66589783  0.38150386  1
  O  O409  1  0.13543813  0.63576154  0.86593654  1
  O  O410  1  0.63429527  0.13572476  0.36265028  1
  O  O411  1  0.62987641  0.13082582  0.88094256  1
  O  O412  1  0.63647386  0.63182736  0.38095802  1
  O  O413  1  0.61249976  0.63640314  0.86303177  1
