# generated using pymatgen
data_V79Zn79O256
_symmetry_space_group_name_H-M   'P 1'
_cell_length_a   16.92752020
_cell_length_b   16.87239197
_cell_length_c   16.94335324
_cell_angle_alpha   89.91542670
_cell_angle_beta   90.09097126
_cell_angle_gamma   90.02920005
_symmetry_Int_Tables_number   1
_chemical_formula_structural   V79Zn79O256
_chemical_formula_sum   'V79 Zn79 O256'
_cell_volume   4839.14110410
_cell_formula_units_Z   1
loop_
 _symmetry_equiv_pos_site_id
 _symmetry_equiv_pos_as_xyz
  1  'x, y, z'
loop_
 _atom_site_type_symbol
 _atom_site_label
 _atom_site_symmetry_multiplicity
 _atom_site_fract_x
 _atom_site_fract_y
 _atom_site_fract_z
 _atom_site_occupancy
  V  V0  1  0.25606653  0.24595772  0.50732800  1
  V  V1  1  -0.00502413  0.38488354  0.37664907  1
  V  V2  1  0.87564343  0.50624422  0.86671735  1
  V  V3  1  0.87329218  0.11398332  0.25649361  1
  V  V4  1  0.12597652  0.25448550  0.87628312  1
  V  V5  1  0.10814982  0.62820834  -0.02022440  1
  V  V6  1  0.13582357  0.74822815  0.39528539  1
  V  V7  1  0.88292921  0.38244814  -0.00109780  1
  V  V8  1  0.11689058  0.12090876  0.50444043  1
  V  V9  1  0.12479317  0.12632018  0.00701808  1
  V  V10  1  0.75295333  0.24965753  0.50192240  1
  V  V11  1  0.75884955  0.11102952  0.87248981  1
  V  V12  1  0.38019009  0.12692730  0.25003840  1
  V  V13  1  0.37901590  -0.00457086  0.37535685  1
  V  V14  1  0.49278193  0.12530150  0.62505817  1
  V  V15  1  0.12280115  -0.00040602  0.63827040  1
  V  V16  1  0.75888279  0.11250484  0.38402892  1
  V  V17  1  0.49458101  0.49982362  0.49463531  1
  V  V18  1  0.36536705  0.74631597  0.64267817  1
  V  V19  1  0.25137071  0.38385188  0.12395725  1
  V  V20  1  0.24725795  -0.00684270  0.24183307  1
  V  V21  1  0.87192622  0.87788767  -0.00913386  1
  V  V22  1  0.61975935  0.74817595  0.86902827  1
  V  V23  1  0.37244955  0.12443935  0.75196422  1
  V  V24  1  0.87471195  0.25092815  0.13643718  1
  V  V25  1  -0.00782374  0.62439324  0.14695898  1
  V  V26  1  0.25892353  0.50826434  0.25384093  1
  V  V27  1  0.62467649  0.24603541  0.37788863  1
  V  V28  1  0.12469575  0.25153140  0.37772314  1
  V  V29  1  0.25726453  0.51001215  0.74493405  1
  V  V30  1  0.50545524  0.62728873  0.10534062  1
  V  V31  1  -0.00400040  -0.01408696  0.49517759  1
  V  V32  1  0.25604599  0.12540099  0.87472798  1
  V  V33  1  -0.00605941  0.75591761  0.75757267  1
  V  V34  1  0.74942499  -0.00498098  0.72435351  1
  V  V35  1  0.75695470  0.25127148  -0.00485928  1
  V  V36  1  0.39768939  0.62667167  0.25484246  1
  V  V37  1  0.49800418  0.25096631  0.74686043  1
  V  V38  1  0.24926883  0.12253685  0.37595853  1
  V  V39  1  0.62251311  0.37725291  0.75247236  1
  V  V40  1  0.36743113  0.86279179  0.49340612  1
  V  V41  1  -0.00495598  0.00204332  0.00203380  1
  V  V42  1  0.12425334  0.85861247  0.23949420  1
  V  V43  1  0.62439654  0.50247528  0.62831660  1
  V  V44  1  0.62758210  0.25093711  0.87174104  1
  V  V45  1  0.61808766  0.76694942  0.36860366  1
  V  V46  1  -0.00517878  0.63561906  0.61498110  1
  V  V47  1  0.62339033  0.36200319  0.24730409  1
  V  V48  1  0.24889840  0.88268134  0.63950216  1
  V  V49  1  0.73862405  0.88613640  0.12546516  1
  V  V50  1  0.25563609  0.62654009  0.38708094  1
  V  V51  1  0.00393082  0.38851151  0.87592356  1
  V  V52  1  0.62538395  0.63225325  0.49395391  1
  V  V53  1  0.62542156  0.11858652  0.50822008  1
  V  V54  1  0.49851631  -0.00420904  0.50309283  1
  V  V55  1  0.12595288  0.38081011  0.25181213  1
  V  V56  1  0.50341516  0.00497472  0.00010986  1
  V  V57  1  0.02577683  0.87881003  0.87760795  1
  V  V58  1  0.24752477  0.63774417  0.87343382  1
  V  V59  1  0.62045632  0.88210864  0.73864747  1
  V  V60  1  0.75229659  0.62952924  0.85989918  1
  V  V61  1  0.49090959  0.63105940  0.63691004  1
  V  V62  1  0.25342262  0.37234046  0.62725093  1
  V  V63  1  0.25049626  0.25751179  0.00356346  1
  V  V64  1  0.00001976  0.24693127  0.74837415  1
  V  V65  1  0.61579364  0.49368969  0.11200147  1
  V  V66  1  0.37830574  0.50062682  0.88345038  1
  V  V67  1  0.37572948  0.25304240  0.13212759  1
  V  V68  1  0.12853921  0.38079535  0.74600687  1
  V  V69  1  0.88064100  0.24418851  0.62880882  1
  V  V70  1  0.50290923  0.12705146  0.12212247  1
  V  V71  1  0.87572151  0.38539315  0.50288371  1
  V  V72  1  0.03234170  0.49803489  0.51191487  1
  V  V73  1  0.49987174  0.37002249  0.37300304  1
  V  V74  1  0.36805274  0.86293307  0.00978249  1
  V  V75  1  0.50016540  0.88002328  0.87334237  1
  V  V76  1  0.74756255  0.74219026  0.00020052  1
  V  V77  1  0.37760287  0.37103629  0.50140039  1
  V  V78  1  0.75065270  0.37767822  0.12645247  1
  Zn  Zn79  1  0.12720381  -0.00928859  0.12347526  1
  Zn  Zn80  1  -0.00046004  0.12428813  0.13182791  1
  Zn  Zn81  1  0.75444700  0.50708875  0.74320946  1
  Zn  Zn82  1  0.37192173  0.00090809  0.87445975  1
  Zn  Zn83  1  0.00022252  0.24990313  0.25181246  1
  Zn  Zn84  1  0.81971830  0.57665401  0.32798780  1
  Zn  Zn85  1  0.74787165  -0.01415654  0.26532261  1
  Zn  Zn86  1  0.00316102  0.86891399  0.37022020  1
  Zn  Zn87  1  0.87521696  0.74658774  0.13358796  1
  Zn  Zn88  1  0.74991555  0.37540084  0.62718029  1
  Zn  Zn89  1  0.40892729  0.40232639  0.00973763  1
  Zn  Zn90  1  0.50097936  0.77204851  0.24479333  1
  Zn  Zn91  1  0.63562980  0.12149892  0.00741964  1
  Zn  Zn92  1  0.88979893  0.10474337  0.75007417  1
  Zn  Zn93  1  0.10886932  0.49757256  0.10873545  1
  Zn  Zn94  1  0.19134865  0.18909352  0.19117681  1
  Zn  Zn95  1  0.18514562  0.18599187  0.68850922  1
  Zn  Zn96  1  0.18279873  0.68310285  0.16783491  1
  Zn  Zn97  1  0.17251833  0.69425448  0.68541569  1
  Zn  Zn98  1  0.64395894  0.12929678  0.23703849  1
  Zn  Zn99  1  0.68974302  0.18387673  0.68759551  1
  Zn  Zn100  1  0.67965829  0.68732294  0.18695870  1
  Zn  Zn101  1  0.68196536  0.69741223  0.67905408  1
  Zn  Zn102  1  0.31222522  0.31413977  0.31611262  1
  Zn  Zn103  1  0.31838727  0.31566543  0.81697400  1
  Zn  Zn104  1  0.31512650  0.80613416  0.30341872  1
  Zn  Zn105  1  0.31270642  0.81859497  0.81760519  1
  Zn  Zn106  1  0.80233945  0.41280477  0.31534401  1
  Zn  Zn107  1  0.81308393  0.31770804  0.81014259  1
  Zn  Zn108  1  0.78413956  0.79348539  0.30915205  1
  Zn  Zn109  1  0.81627558  0.81927348  0.80120537  1
  Zn  Zn110  1  0.19643233  0.43672181  0.43486493  1
  Zn  Zn111  1  0.19064241  0.44852133  0.93381210  1
  Zn  Zn112  1  0.18950737  0.93410298  0.43916581  1
  Zn  Zn113  1  0.19256923  0.94239386  0.94371024  1
  Zn  Zn114  1  0.68730014  0.43960849  0.44769945  1
  Zn  Zn115  1  0.69199563  0.43888234  0.93306577  1
  Zn  Zn116  1  0.69117745  0.93304950  0.45497831  1
  Zn  Zn117  1  0.68323917  0.93372997  0.94022289  1
  Zn  Zn118  1  0.31761460  0.06160905  0.05778208  1
  Zn  Zn119  1  0.31237501  0.06153279  0.56569142  1
  Zn  Zn120  1  0.31005647  0.58679184  0.06352970  1
  Zn  Zn121  1  0.31517350  0.55759814  0.56484078  1
  Zn  Zn122  1  0.81536987  0.06393822  0.06623419  1
  Zn  Zn123  1  0.82126833  0.06273012  0.56528856  1
  Zn  Zn124  1  0.81311232  0.56120436  0.06132498  1
  Zn  Zn125  1  0.83357005  0.60068396  0.52342587  1
  Zn  Zn126  1  0.44153292  0.43920165  0.19447387  1
  Zn  Zn127  1  0.43652964  0.43700701  0.68806316  1
  Zn  Zn128  1  0.43383848  0.94104594  0.17952482  1
  Zn  Zn129  1  0.43439011  0.93939063  0.68673340  1
  Zn  Zn130  1  0.93297749  0.44909455  0.19143399  1
  Zn  Zn131  1  0.93738532  0.43543565  0.68516644  1
  Zn  Zn132  1  0.93681479  0.93079189  0.18170816  1
  Zn  Zn133  1  0.94106833  0.92305412  0.69366066  1
  Zn  Zn134  1  0.05936619  0.05894458  0.31508728  1
  Zn  Zn135  1  0.06786728  0.06372152  0.82136525  1
  Zn  Zn136  1  0.06973503  0.56494699  0.31668995  1
  Zn  Zn137  1  0.06712602  0.57987736  0.78219304  1
  Zn  Zn138  1  0.56674991  -0.05261033  0.30469690  1
  Zn  Zn139  1  0.56702345  0.06471886  0.81245732  1
  Zn  Zn140  1  0.61995395  0.53466571  0.32440254  1
  Zn  Zn141  1  0.55912235  0.56384426  0.81618350  1
  Zn  Zn142  1  0.43812586  0.18395872  0.43652317  1
  Zn  Zn143  1  0.44704403  0.21813266  0.94603041  1
  Zn  Zn144  1  0.44268328  0.68700483  0.43359748  1
  Zn  Zn145  1  0.43216127  0.68508963  0.92606954  1
  Zn  Zn146  1  0.93855382  0.19063249  0.43882777  1
  Zn  Zn147  1  0.93902752  0.19029839  0.93234369  1
  Zn  Zn148  1  0.95929370  0.67482493  0.41597227  1
  Zn  Zn149  1  0.93141076  0.69300549  0.93527323  1
  Zn  Zn150  1  0.06084859  0.31369704  0.06518805  1
  Zn  Zn151  1  0.06514509  0.31227866  0.56474674  1
  Zn  Zn152  1  0.06003651  0.80157761  0.06164734  1
  Zn  Zn153  1  0.06974420  0.81405869  0.56580194  1
  Zn  Zn154  1  0.56501159  0.30706005  0.05737658  1
  Zn  Zn155  1  0.56316060  0.31078908  0.56629576  1
  Zn  Zn156  1  0.56100425  0.81153895  0.05750666  1
  Zn  Zn157  1  0.55139903  0.81062212  0.55993277  1
  O  O158  1  0.12400493  0.13067118  0.11534670  1
  O  O159  1  0.13238453  0.11082086  0.61622960  1
  O  O160  1  0.10118666  0.62091772  0.11394926  1
  O  O161  1  0.08897101  0.61426231  0.66426569  1
  O  O162  1  0.60525644  0.13878761  0.12552802  1
  O  O163  1  0.61580166  0.12746627  0.61432186  1
  O  O164  1  0.61710403  0.60213014  0.13187391  1
  O  O165  1  0.60603968  0.62574826  0.62012040  1
  O  O166  1  0.38594430  0.36651250  0.38773432  1
  O  O167  1  0.36420524  0.39576552  0.88401832  1
  O  O168  1  0.36324362  0.87945465  0.38715876  1
  O  O169  1  0.38887400  0.87899440  0.87715307  1
  O  O170  1  0.88894602  0.36763879  0.38821881  1
  O  O171  1  0.88411045  0.38251557  0.88069645  1
  O  O172  1  0.87598276  0.84351906  0.38503039  1
  O  O173  1  0.87005512  0.87801947  0.88923722  1
  O  O174  1  0.25845497  0.00388813  0.36847098  1
  O  O175  1  0.25088579  0.02093341  0.88051656  1
  O  O176  1  0.24692085  0.51078171  0.36358175  1
  O  O177  1  0.25620719  0.50960353  0.85878234  1
  O  O178  1  0.75583971  0.00786146  0.39284112  1
  O  O179  1  0.74944577  0.01112676  0.88029410  1
  O  O180  1  0.73043820  0.49713009  0.36085617  1
  O  O181  1  0.75459329  0.51228735  0.86918159  1
  O  O182  1  0.25134446  0.49306166  0.13735642  1
  O  O183  1  0.25625029  0.48894433  0.63723244  1
  O  O184  1  0.25051993  1.00637147  0.13917925  1
  O  O185  1  0.24204955  0.99110551  0.62442744  1
  O  O186  1  0.74052714  0.48431760  0.11633316  1
  O  O187  1  0.72838087  0.50360717  0.62731827  1
  O  O188  1  0.74811833  0.98828500  0.11973659  1
  O  O189  1  0.74237682  1.00061983  0.62564389  1
  O  O190  1  0.01122179  0.37646836  0.26080627  1
  O  O191  1  0.01130500  0.36973136  0.75571183  1
  O  O192  1  0.01940555  0.88015396  0.25332649  1
  O  O193  1  0.01630535  0.89460722  0.77823646  1
  O  O194  1  0.50580416  0.36943476  0.26258499  1
  O  O195  1  0.51020581  0.36425510  0.74354525  1
  O  O196  1  0.49030505  0.88385761  0.25447728  1
  O  O197  1  0.51067019  0.88827418  0.76023535  1
  O  O198  1  0.48357633  0.12019040  0.23558551  1
  O  O199  1  0.49622346  0.12935573  0.74134080  1
  O  O200  1  0.49435314  0.61382953  0.26374104  1
  O  O201  1  0.49722201  0.62272951  0.73501186  1
  O  O202  1  0.99043113  0.12864539  0.25364623  1
  O  O203  1  1.00105235  0.14129785  0.76459637  1
  O  O204  1  0.99834069  0.62245024  0.24812537  1
  O  O205  1  0.97448443  0.65513662  0.75398216  1
  O  O206  1  0.35548374  0.24439141  0.01556199  1
  O  O207  1  0.36399816  0.25296468  0.49645830  1
  O  O208  1  0.38381144  0.76449851  -0.00932391  1
  O  O209  1  0.37654167  0.76141599  0.50214800  1
  O  O210  1  0.87278677  0.26023706  0.00214927  1
  O  O211  1  0.87236879  0.25551245  0.51056034  1
  O  O212  1  0.85822591  0.75860648  -0.00355327  1
  O  O213  1  0.87074332  0.81073004  0.45421223  1
  O  O214  1  0.13232761  0.24299928  0.49550002  1
  O  O215  1  0.13192652  0.24651445  0.99799471  1
  O  O216  1  0.14086818  0.75389005  0.49380609  1
  O  O217  1  0.12193069  0.72805410  1.00019078  1
  O  O218  1  0.63384787  0.24376976  0.50007665  1
  O  O219  1  0.64141510  0.24523146  0.98962101  1
  O  O220  1  0.60382674  0.73619096  0.49245567  1
  O  O221  1  0.63977294  0.76079704  0.97936615  1
  O  O222  1  0.48375852  0.24005635  0.12407472  1
  O  O223  1  0.50394573  0.23809615  0.63450688  1
  O  O224  1  0.52056898  0.72900709  0.12912367  1
  O  O225  1  0.48285046  0.73802957  0.62230581  1
  O  O226  1  0.98928636  0.24888555  0.12796803  1
  O  O227  1  0.99499665  0.25629975  0.63655448  1
  O  O228  1  0.99302393  0.73289780  0.12519304  1
  O  O229  1  0.99486812  0.73732115  0.60494186  1
  O  O230  1  0.01283751  0.26221379  0.37903654  1
  O  O231  1  0.00588287  0.26510935  0.86802061  1
  O  O232  1  0.02899801  0.75010732  0.37863383  1
  O  O233  1  -0.00926554  0.77006779  0.86610655  1
  O  O234  1  0.51330756  0.25764109  0.38973565  1
  O  O235  1  0.52014947  0.23303002  0.85738869  1
  O  O236  1  0.51075484  0.75076725  0.37056473  1
  O  O237  1  0.51482110  0.75769282  0.87668756  1
  O  O238  1  0.24277806  0.12953994  0.49622414  1
  O  O239  1  0.24217116  0.13503131  0.99730847  1
  O  O240  1  0.25912264  0.61724630  0.48554408  1
  O  O241  1  0.23898631  0.62753052  0.97411081  1
  O  O242  1  0.74673241  0.12864017  0.50275048  1
  O  O243  1  0.75651982  0.13206829  0.98854677  1
  O  O244  1  0.72198289  0.62467504  0.51586846  1
  O  O245  1  0.75003073  0.63840258  0.98809001  1
  O  O246  1  0.24180329  0.37011473  0.01209943  1
  O  O247  1  0.25811235  0.36690745  0.50567811  1
  O  O248  1  0.26948236  0.87878725  -0.00721702  1
  O  O249  1  0.26490756  0.88027672  0.51351005  1
  O  O250  1  0.76162051  0.36783197  0.00079554  1
  O  O251  1  0.75706364  0.36578180  0.50370235  1
  O  O252  1  0.75462234  0.87029881  0.00695480  1
  O  O253  1  0.71822768  0.83930081  0.52297482  1
  O  O254  1  0.13695302  0.49035233  0.25188924  1
  O  O255  1  0.13993576  0.48548564  0.75522187  1
  O  O256  1  0.13859000  0.99636278  0.25125292  1
  O  O257  1  0.12368329  1.01061710  0.73667473  1
  O  O258  1  0.62101637  0.47139026  0.23157258  1
  O  O259  1  0.61812858  0.49248336  0.74567804  1
  O  O260  1  0.63890631  1.01869022  0.26107327  1
  O  O261  1  0.63550952  0.99206927  0.74949727  1
  O  O262  1  0.36266655  0.00645838  0.25665972  1
  O  O263  1  0.37974013  0.01880400  0.75515744  1
  O  O264  1  0.36544480  0.50666372  0.25192338  1
  O  O265  1  0.36224145  0.49607330  0.75682041  1
  O  O266  1  0.87163178  0.00999417  0.24526558  1
  O  O267  1  0.85784019  -0.00709323  0.73412622  1
  O  O268  1  0.87258525  0.49057827  0.27286825  1
  O  O269  1  0.87109240  0.49067050  0.76183430  1
  O  O270  1  0.12269589  0.36926281  0.37115973  1
  O  O271  1  0.12164276  0.37343253  0.86896356  1
  O  O272  1  0.13721282  0.85807490  0.36540059  1
  O  O273  1  0.12335360  0.86859404  0.89012391  1
  O  O274  1  0.62159668  0.36329232  0.36889148  1
  O  O275  1  0.63276504  0.36312041  0.86512664  1
  O  O276  1  0.62377914  0.87279103  0.38063981  1
  O  O277  1  0.61696542  0.87015629  0.86697973  1
  O  O278  1  0.37433228  0.13450286  0.13214111  1
  O  O279  1  0.38190052  0.12603301  0.63431779  1
  O  O280  1  0.40557140  0.61050742  0.14009991  1
  O  O281  1  0.37784119  0.63617354  0.62240260  1
  O  O282  1  0.87438413  0.13349246  0.13651434  1
  O  O283  1  0.87508470  0.13936623  0.63461578  1
  O  O284  1  0.88897150  0.62455933  0.11429004  1
  O  O285  1  0.89509386  0.61143317  0.62008285  1
  O  O286  1  0.25389666  0.26372729  0.12387816  1
  O  O287  1  0.24599317  0.25490779  0.61439040  1
  O  O288  1  0.27465730  0.68544279  0.10890649  1
  O  O289  1  0.25691085  0.75916959  0.63368653  1
  O  O290  1  0.76182683  0.25994982  0.10771123  1
  O  O291  1  0.75791514  0.24871896  0.61705722  1
  O  O292  1  0.74248731  0.75087260  0.10569693  1
  O  O293  1  0.76768764  0.76161347  0.62186944  1
  O  O294  1  0.24106240  0.24674102  0.38547375  1
  O  O295  1  0.24608103  0.24960721  0.88706957  1
  O  O296  1  0.24789646  0.73598507  0.37006767  1
  O  O297  1  0.24692298  0.73606910  0.85318449  1
  O  O298  1  0.74405810  0.24065842  0.39569793  1
  O  O299  1  0.74865916  0.24469580  0.87875758  1
  O  O300  1  0.71804633  0.74700013  0.38644018  1
  O  O301  1  0.74707191  0.74755653  0.87528402  1
  O  O302  1  0.00850264  0.12044904  -0.00279989  1
  O  O303  1  0.01242195  0.11647200  0.49602578  1
  O  O304  1  0.00715382  0.62037022  -0.02301681  1
  O  O305  1  0.01423942  0.60719681  0.50844218  1
  O  O306  1  0.49706763  0.12558802  0.01028773  1
  O  O307  1  0.50483031  0.11878629  0.50685387  1
  O  O308  1  0.49855988  0.62830579  0.00728814  1
  O  O309  1  0.49825697  0.61327917  0.50732983  1
  O  O310  1  0.49398370  0.37782477  0.49909336  1
  O  O311  1  0.48575812  0.32803691  0.98370254  1
  O  O312  1  0.47959880  0.88633775  0.51039721  1
  O  O313  1  0.49750970  0.88454656  0.99162123  1
  O  O314  1  0.99876317  0.38408807  0.49679813  1
  O  O315  1  0.99422812  0.37367860  0.98919491  1
  O  O316  1  1.00828123  0.88216893  0.49522831  1
  O  O317  1  0.99416979  0.87978660  0.99392011  1
  O  O318  1  0.51550989  0.48093277  0.38809384  1
  O  O319  1  0.47821379  0.51130384  0.87357776  1
  O  O320  1  0.48413136  1.00000580  0.38601159  1
  O  O321  1  0.50030358  0.99644830  0.88148039  1
  O  O322  1  1.01618167  0.49191328  0.39478845  1
  O  O323  1  0.99510252  0.49175950  0.85945072  1
  O  O324  1  1.00422942  0.99133814  0.38941515  1
  O  O325  1  1.01176386  0.99162988  0.89265481  1
  O  O326  1  0.00607675  0.00285311  0.11498854  1
  O  O327  1  0.01758484  -0.01843803  0.61923448  1
  O  O328  1  -0.00418355  0.51381257  0.12535046  1
  O  O329  1  0.00465636  0.49176500  0.61104538  1
  O  O330  1  0.49106179  0.01902538  0.11449366  1
  O  O331  1  0.49162160  0.01165191  0.61442637  1
  O  O332  1  0.50991125  0.49629217  0.11842931  1
  O  O333  1  0.50109354  0.51014143  0.61885755  1
  O  O334  1  0.24643301  0.38414748  0.24653219  1
  O  O335  1  0.24727227  0.37583480  0.74322794  1
  O  O336  1  0.24410723  0.88615148  0.25091801  1
  O  O337  1  0.25854448  0.88286460  0.73859306  1
  O  O338  1  0.73740905  0.35986376  0.23478557  1
  O  O339  1  0.73649731  0.37952561  0.74612061  1
  O  O340  1  0.75937905  0.87384186  0.23095802  1
  O  O341  1  0.73679437  0.88925820  0.75040291  1
  O  O342  1  0.25604124  0.11617413  0.25663255  1
  O  O343  1  0.26078615  0.14156867  0.76247249  1
  O  O344  1  0.25425308  0.61212364  0.25224552  1
  O  O345  1  0.24081376  0.61219282  0.74582556  1
  O  O346  1  0.76020882  0.12356567  0.27051748  1
  O  O347  1  0.74906037  0.10777085  0.75672998  1
  O  O348  1  0.77825744  0.64858577  0.24042059  1
  O  O349  1  0.74452213  0.63082188  0.75551647  1
  O  O350  1  0.37041304  0.11798034  0.36825082  1
  O  O351  1  0.36816422  0.13376978  0.87142653  1
  O  O352  1  0.36474033  0.62654315  0.36446887  1
  O  O353  1  0.35802101  0.61696069  0.87094323  1
  O  O354  1  0.86904700  0.13147375  0.37002490  1
  O  O355  1  0.86284587  0.12968933  0.86632169  1
  O  O356  1  0.86090163  0.63265997  0.41698760  1
  O  O357  1  0.86405643  0.61674224  0.87707008  1
  O  O358  1  0.13184092  0.37794658  0.13519163  1
  O  O359  1  0.14009436  0.36866570  0.63448312  1
  O  O360  1  0.12407990  0.87125796  0.13545366  1
  O  O361  1  0.14178656  0.88453295  0.62325037  1
  O  O362  1  0.62938170  0.37088055  0.12744528  1
  O  O363  1  0.62346247  0.38504204  0.63262556  1
  O  O364  1  0.63963622  0.87065579  0.11859267  1
  O  O365  1  0.61028542  0.86799892  0.64107446  1
  O  O366  1  0.12862277  0.26086022  0.26150187  1
  O  O367  1  0.12000598  0.25853238  0.75560941  1
  O  O368  1  0.13772623  0.75817531  0.24440454  1
  O  O369  1  0.09097799  0.76562447  0.73049318  1
  O  O370  1  0.62597478  0.24595094  0.26857601  1
  O  O371  1  0.62282466  0.25654172  0.75220779  1
  O  O372  1  0.62056673  0.74903460  0.26335074  1
  O  O373  1  0.63302083  0.76834478  0.76086623  1
  O  O374  1  0.36341544  0.24076536  0.24272532  1
  O  O375  1  0.39032592  0.24453099  0.75904550  1
  O  O376  1  0.38541969  0.73189421  0.24942535  1
  O  O377  1  0.37694129  0.75304458  0.73961325  1
  O  O378  1  0.87556333  0.24417860  0.23933533  1
  O  O379  1  0.88591153  0.25795836  0.74339312  1
  O  O380  1  0.83665583  0.71398963  0.24404763  1
  O  O381  1  0.90454909  0.80993261  0.72326482  1
  O  O382  1  0.38428492  0.48557479  0.50303692  1
  O  O383  1  0.36375363  0.50802406  0.99141765  1
  O  O384  1  0.37857168  0.99702537  0.49222230  1
  O  O385  1  0.38703353  0.99329606  0.99481666  1
  O  O386  1  0.86874982  0.48445255  0.50562640  1
  O  O387  1  0.86809024  0.48826215  0.98527360  1
  O  O388  1  0.89781876  0.99891896  0.51456790  1
  O  O389  1  0.88721812  0.99456596  1.00646401  1
  O  O390  1  0.12114177  0.01156181  0.00570208  1
  O  O391  1  0.11932456  0.00506566  0.50576263  1
  O  O392  1  0.13286028  0.51876866  -0.00070819  1
  O  O393  1  0.13096660  0.49077403  0.51234789  1
  O  O394  1  0.61041824  0.00674139  -0.00445151  1
  O  O395  1  0.61005283  0.00688636  0.49675092  1
  O  O396  1  0.62415511  0.48597562  0.01219666  1
  O  O397  1  0.61215117  0.50624481  0.51120424  1
  O  O398  1  0.36876133  0.37127286  0.12583141  1
  O  O399  1  0.36587828  0.37268867  0.61521010  1
  O  O400  1  0.37898047  0.87214316  0.10969420  1
  O  O401  1  0.36673595  0.86466568  0.62115567  1
  O  O402  1  0.87015447  0.37169366  0.11813320  1
  O  O403  1  0.87168646  0.36436168  0.61899085  1
  O  O404  1  0.86631145  0.86611294  0.11295929  1
  O  O405  1  0.76525642  0.83461226  0.58813815  1
  O  O406  1  0.12897060  0.13328324  0.38240164  1
  O  O407  1  0.13439251  0.13510040  0.88661357  1
  O  O408  1  0.14241151  0.63677013  0.37301657  1
  O  O409  1  0.13181788  0.62130089  0.87039643  1
  O  O410  1  0.63848146  0.13310464  0.39407471  1
  O  O411  1  0.64375689  0.13415998  0.87274418  1
  O  O412  1  0.61611994  0.62350440  0.39162089  1
  O  O413  1  0.63051720  0.64208212  0.86625307  1
