# generated using pymatgen
data_V79Zn79O256
_symmetry_space_group_name_H-M   'P 1'
_cell_length_a   16.90751616
_cell_length_b   16.91082248
_cell_length_c   16.90176642
_cell_angle_alpha   90.11599861
_cell_angle_beta   90.09248049
_cell_angle_gamma   89.91924242
_symmetry_Int_Tables_number   1
_chemical_formula_structural   V79Zn79O256
_chemical_formula_sum   'V79 Zn79 O256'
_cell_volume   4832.53215173
_cell_formula_units_Z   1
loop_
 _symmetry_equiv_pos_site_id
 _symmetry_equiv_pos_as_xyz
  1  'x, y, z'
loop_
 _atom_site_type_symbol
 _atom_site_label
 _atom_site_symmetry_multiplicity
 _atom_site_fract_x
 _atom_site_fract_y
 _atom_site_fract_z
 _atom_site_occupancy
  V  V0  1  0.35408899  0.61225218  0.74684269  1
  V  V1  1  0.50140374  0.87952423  0.87674085  1
  V  V2  1  0.62508798  0.37574058  0.75893418  1
  V  V3  1  0.12972642  0.26668436  0.37976074  1
  V  V4  1  -0.00265999  0.25138242  0.74556781  1
  V  V5  1  0.00142847  0.75010286  0.25587684  1
  V  V6  1  0.62372497  0.75224058  0.87597402  1
  V  V7  1  0.74060754  0.12877695  0.88244687  1
  V  V8  1  0.75234703  0.88403165  0.13092959  1
  V  V9  1  0.38150627  0.12855562  0.74360237  1
  V  V10  1  0.24996165  0.12858991  0.87715206  1
  V  V11  1  0.50127571  0.00947989  0.50447530  1
  V  V12  1  0.00088370  0.12889168  0.62415253  1
  V  V13  1  0.00329075  0.62564128  0.12607248  1
  V  V14  1  0.88360008  0.25216936  0.11688585  1
  V  V15  1  0.87825983  0.88277316  -0.01146833  1
  V  V16  1  0.25270122  0.73605140  0.50858154  1
  V  V17  1  0.37356128  0.74587052  0.12346323  1
  V  V18  1  0.12550884  0.62689826  -0.01247800  1
  V  V19  1  0.87264655  0.00103104  0.37266696  1
  V  V20  1  0.39354079  0.38847496  0.00170266  1
  V  V21  1  0.86199380  0.61557263  0.26182906  1
  V  V22  1  0.61690888  0.61499671  0.00637783  1
  V  V23  1  0.36648777  0.87128701  0.51105828  1
  V  V24  1  0.61884283  0.50608351  0.63162622  1
  V  V25  1  0.87279130  0.74615768  0.62334445  1
  V  V26  1  0.62569270  0.87693376  0.25063515  1
  V  V27  1  0.75712404  0.25184312  0.50562980  1
  V  V28  1  0.23973463  0.11292117  0.37554593  1
  V  V29  1  0.75512132  0.00285372  0.75498647  1
  V  V30  1  0.74699285  0.38538669  0.13809449  1
  V  V31  1  0.37709193  0.00377345  0.87519283  1
  V  V32  1  0.50331763  0.01410516  0.00419018  1
  V  V33  1  0.12944646  0.49116426  0.12912810  1
  V  V34  1  0.24434370  0.88058392  0.13069176  1
  V  V35  1  0.62478810  0.87776962  0.75010745  1
  V  V36  1  0.50376888  0.25471190  0.76955669  1
  V  V37  1  0.37855631  0.49864919  0.37532137  1
  V  V38  1  0.12789339  0.25095868  0.87378930  1
  V  V39  1  0.12849625  0.49903379  0.61620038  1
  V  V40  1  0.87422379  0.12565112  0.25007189  1
  V  V41  1  0.25483867  0.26283770  0.01873114  1
  V  V42  1  0.38356182  0.37451205  0.49668670  1
  V  V43  1  0.49531159  0.74203009  0.73710892  1
  V  V44  1  0.87551069  0.75368998  0.12592412  1
  V  V45  1  0.13132805  0.73621730  0.38281055  1
  V  V46  1  -0.01218308  0.49183665  0.49778808  1
  V  V47  1  0.00391169  0.00803000  0.50121289  1
  V  V48  1  0.62486719  0.01003152  0.12510371  1
  V  V49  1  0.50199244  0.86986322  0.37594107  1
  V  V50  1  0.87214816  0.49647045  0.88033127  1
  V  V51  1  0.86470940  0.61571808  0.74446681  1
  V  V52  1  0.75516492  0.37746770  0.62343843  1
  V  V53  1  0.61598580  0.62515517  0.48158101  1
  V  V54  1  0.62308983  0.01434308  0.62133627  1
  V  V55  1  0.37789584  0.14079302  0.24892897  1
  V  V56  1  0.00117379  0.87315574  0.38646916  1
  V  V57  1  0.36408616  0.62511741  0.25303907  1
  V  V58  1  0.00346788  0.25066935  0.25132664  1
  V  V59  1  0.74103140  0.74617444  0.48573063  1
  V  V60  1  0.73977936  0.12346360  0.38140347  1
  V  V61  1  0.37321814  -0.00246242  0.36495710  1
  V  V62  1  0.87658805  0.12695056  0.75380167  1
  V  V63  1  0.38852871  0.25170029  0.62265966  1
  V  V64  1  -0.02291390  0.37646232  0.37540241  1
  V  V65  1  0.74880210  0.75073133  -0.00079382  1
  V  V66  1  0.12953145  0.38077900  0.74939399  1
  V  V67  1  0.50121273  0.74842981  0.24918390  1
  V  V68  1  0.00076491  0.62106910  0.61813348  1
  V  V69  1  0.12924783  0.00138595  0.62446006  1
  V  V70  1  0.25396524  0.37680339  0.62770792  1
  V  V71  1  0.00678906  0.01065483  -0.00465117  1
  V  V72  1  0.61108260  0.27435732  0.37298477  1
  V  V73  1  0.24539819  0.74760550  -0.01435188  1
  V  V74  1  0.24358192  0.48706568  0.25444040  1
  V  V75  1  0.74829640  0.87636131  0.62336702  1
  V  V76  1  0.25155492  -0.00401338  0.74411055  1
  V  V77  1  0.73807553  0.25358867  0.00192113  1
  V  V78  1  0.37448759  0.87660866  -0.00067542  1
  Zn  Zn79  1  0.50040098  0.14012412  0.13396551  1
  Zn  Zn80  1  0.12481391  0.13076065  0.01461842  1
  Zn  Zn81  1  -0.00587109  0.37376827  0.87985645  1
  Zn  Zn82  1  0.49723481  0.60555404  0.12076953  1
  Zn  Zn83  1  0.87079054  0.87524550  0.50014580  1
  Zn  Zn84  1  0.74298187  0.61903172  0.86814496  1
  Zn  Zn85  1  0.13494028  0.88163761  0.26036699  1
  Zn  Zn86  1  0.00649148  0.74863892  0.75778398  1
  Zn  Zn87  1  0.01540362  0.86879262  0.87208466  1
  Zn  Zn88  1  0.49610946  0.50526258  0.50393412  1
  Zn  Zn89  1  0.24663126  0.24374297  0.50599713  1
  Zn  Zn90  1  0.37349584  0.50380930  0.87698146  1
  Zn  Zn91  1  0.12775780  0.86864565  0.74941420  1
  Zn  Zn92  1  -0.00136146  0.49038800  0.00266879  1
  Zn  Zn93  1  0.12178343  0.01016253  0.13194791  1
  Zn  Zn94  1  0.18984285  0.18557970  0.19755070  1
  Zn  Zn95  1  0.18969360  0.18704071  0.68670194  1
  Zn  Zn96  1  0.18592168  0.69143270  0.18769925  1
  Zn  Zn97  1  0.18700028  0.68531421  0.68628894  1
  Zn  Zn98  1  0.69199752  0.19475936  0.19505514  1
  Zn  Zn99  1  0.68767970  0.19296383  0.69134695  1
  Zn  Zn100  1  0.68600054  0.68760537  0.18711777  1
  Zn  Zn101  1  0.68365643  0.68992309  0.68346631  1
  Zn  Zn102  1  0.30908784  0.31369452  0.31502946  1
  Zn  Zn103  1  0.31622516  0.31816451  0.81656749  1
  Zn  Zn104  1  0.31302063  0.81180126  0.31577461  1
  Zn  Zn105  1  0.31745322  0.81170026  0.80727095  1
  Zn  Zn106  1  0.80393230  0.30549956  0.31081979  1
  Zn  Zn107  1  0.80833631  0.31241484  0.81198813  1
  Zn  Zn108  1  0.81567698  0.81178956  0.31043846  1
  Zn  Zn109  1  0.81475030  0.80834897  0.80807498  1
  Zn  Zn110  1  0.19538260  0.44200000  0.44244789  1
  Zn  Zn111  1  0.19390815  0.43954278  0.93440324  1
  Zn  Zn112  1  0.18376139  0.93494608  0.44270302  1
  Zn  Zn113  1  0.18543969  0.93735145  0.93293111  1
  Zn  Zn114  1  0.68771122  0.43820575  0.43441236  1
  Zn  Zn115  1  0.69513345  0.43730254  0.94180508  1
  Zn  Zn116  1  0.68457953  0.93884451  0.43638131  1
  Zn  Zn117  1  0.68891762  0.94183658  0.94094353  1
  Zn  Zn118  1  0.31127919  0.06781050  0.06625954  1
  Zn  Zn119  1  0.31547580  0.06414310  0.55794910  1
  Zn  Zn120  1  0.30723737  0.55671745  0.05550356  1
  Zn  Zn121  1  0.31874193  0.56342887  0.56990946  1
  Zn  Zn122  1  0.81796808  0.06467168  0.06419127  1
  Zn  Zn123  1  0.81684766  0.06701582  0.56334061  1
  Zn  Zn124  1  0.81197758  0.56647365  0.06233204  1
  Zn  Zn125  1  0.78924159  0.54157341  0.52564933  1
  Zn  Zn126  1  0.42593058  0.42411723  0.18565887  1
  Zn  Zn127  1  0.44085859  0.44273711  0.69744375  1
  Zn  Zn128  1  0.43743625  0.93660193  0.18376146  1
  Zn  Zn129  1  0.43903945  0.93612123  0.68784728  1
  Zn  Zn130  1  0.93467849  0.43459673  0.18756797  1
  Zn  Zn131  1  0.93964392  0.43598303  0.68952563  1
  Zn  Zn132  1  0.96331113  0.94940684  0.19692870  1
  Zn  Zn133  1  0.93923054  0.93700144  0.68758980  1
  Zn  Zn134  1  0.06015122  0.06227805  0.30921771  1
  Zn  Zn135  1  0.06285031  0.05664438  0.81526726  1
  Zn  Zn136  1  0.05651588  0.55922392  0.31389619  1
  Zn  Zn137  1  0.05461289  0.56170760  0.80572350  1
  Zn  Zn138  1  0.55757246  0.06050121  0.31062961  1
  Zn  Zn139  1  0.56511387  0.06647540  0.81129478  1
  Zn  Zn140  1  0.55558477  0.55827553  0.30644628  1
  Zn  Zn141  1  0.55551075  0.56284882  0.81898301  1
  Zn  Zn142  1  0.43570534  0.18945817  0.43256623  1
  Zn  Zn143  1  0.43163645  0.19278606  0.94330618  1
  Zn  Zn144  1  0.43290615  0.68720758  0.43590409  1
  Zn  Zn145  1  0.43663121  0.68494140  0.93135380  1
  Zn  Zn146  1  0.93573403  0.19005385  0.43769564  1
  Zn  Zn147  1  0.93580310  0.18653082  0.93006201  1
  Zn  Zn148  1  0.93543926  0.68462390  0.44241444  1
  Zn  Zn149  1  0.93820895  0.68520358  0.93308187  1
  Zn  Zn150  1  0.06474886  0.31144681  0.05930908  1
  Zn  Zn151  1  0.06213159  0.31225491  0.55950520  1
  Zn  Zn152  1  0.06178127  0.81143367  0.05804897  1
  Zn  Zn153  1  0.08201748  0.79693018  0.58730916  1
  Zn  Zn154  1  0.57229957  0.32830035  0.05582651  1
  Zn  Zn155  1  0.57229097  0.31155808  0.55842107  1
  Zn  Zn156  1  0.56180514  0.81728602  0.06428699  1
  Zn  Zn157  1  0.56325821  0.81590837  0.55800527  1
  O  O158  1  0.13335700  0.12157617  0.12639663  1
  O  O159  1  0.11134970  0.11863343  0.63095194  1
  O  O160  1  0.11448835  0.62510885  0.12303710  1
  O  O161  1  0.11192366  0.60971853  0.62922614  1
  O  O162  1  0.62419486  0.11348630  0.14030539  1
  O  O163  1  0.62911611  0.11301139  0.62942510  1
  O  O164  1  0.62030706  0.63223443  0.11028400  1
  O  O165  1  0.63114740  0.60853128  0.62474329  1
  O  O166  1  0.36479865  0.38422291  0.38647414  1
  O  O167  1  0.35764176  0.38493898  0.89601017  1
  O  O168  1  0.38277546  0.88125665  0.37975141  1
  O  O169  1  0.38122349  0.88415876  0.87978583  1
  O  O170  1  0.87952347  0.36994290  0.37750095  1
  O  O171  1  0.87265058  0.39216388  0.86443417  1
  O  O172  1  0.88103978  0.88278335  0.37793484  1
  O  O173  1  0.86472381  0.87362564  0.88931609  1
  O  O174  1  0.25590141  0.00607356  0.37958682  1
  O  O175  1  0.25726909  0.01113508  0.86765403  1
  O  O176  1  0.25418982  0.50096736  0.36089966  1
  O  O177  1  0.26180651  0.51909171  0.90138808  1
  O  O178  1  0.76215155  0.00953338  0.38598572  1
  O  O179  1  0.74445119  0.01212011  0.86491948  1
  O  O180  1  0.76753969  0.51059530  0.41721570  1
  O  O181  1  0.76507825  0.50524734  0.87864140  1
  O  O182  1  0.23643591  0.50624315  0.13644629  1
  O  O183  1  0.24044434  0.48843168  0.61759574  1
  O  O184  1  0.24893003  0.98231168  0.11579973  1
  O  O185  1  0.24242023  1.01679358  0.63302566  1
  O  O186  1  0.76331466  0.48277911  0.11619625  1
  O  O187  1  0.73595602  0.48475243  0.61527883  1
  O  O188  1  0.74319266  0.99109243  0.11846919  1
  O  O189  1  0.74413098  0.99429561  0.62860147  1
  O  O190  1  -0.00656860  0.36665387  0.26659418  1
  O  O191  1  0.00991543  0.36553127  0.75116769  1
  O  O192  1  -0.01099623  0.85686647  0.26610471  1
  O  O193  1  0.00131257  0.87199112  0.75222393  1
  O  O194  1  0.49469857  0.31355173  0.20425380  1
  O  O195  1  0.50950822  0.36222314  0.74919855  1
  O  O196  1  0.50326599  0.86838267  0.25623969  1
  O  O197  1  0.50537066  0.87109289  0.75833098  1
  O  O198  1  0.48450202  0.12482657  0.25226177  1
  O  O199  1  0.49123703  0.13874496  0.75551508  1
  O  O200  1  0.49022314  0.63701105  0.24403853  1
  O  O201  1  0.51525563  0.64380567  0.74700750  1
  O  O202  1  0.98704198  0.14060566  0.26413698  1
  O  O203  1  0.99531575  0.13011046  0.74655696  1
  O  O204  1  0.99447415  0.63566054  0.24431619  1
  O  O205  1  0.98797343  0.62690241  0.73338069  1
  O  O206  1  0.35951633  0.26322635  -0.00374327  1
  O  O207  1  0.37375693  0.25740476  0.50651728  1
  O  O208  1  0.36594699  0.75165005  0.00435779  1
  O  O209  1  0.36334853  0.76201517  0.49040088  1
  O  O210  1  0.87702432  0.23972850  0.01495644  1
  O  O211  1  0.85798444  0.25011260  0.49755233  1
  O  O212  1  0.86682813  0.75698960  0.00700166  1
  O  O213  1  0.85640765  0.74831162  0.50617052  1
  O  O214  1  0.12455051  0.24933627  0.48406860  1
  O  O215  1  0.13548304  0.24652734  0.98981581  1
  O  O216  1  0.13775864  0.75295041  0.49165108  1
  O  O217  1  0.13543235  0.74064258  1.00035350  1
  O  O218  1  0.63772611  0.25403324  0.48311041  1
  O  O219  1  0.63942816  0.24402700  1.00774809  1
  O  O220  1  0.63070978  0.74022295  0.50156072  1
  O  O221  1  0.63166881  0.75358991  0.99274432  1
  O  O222  1  0.50706685  0.26921511  0.14125085  1
  O  O223  1  0.49025882  0.25373403  0.62635813  1
  O  O224  1  0.48472705  0.75901130  0.13220555  1
  O  O225  1  0.50742859  0.76042396  0.63943568  1
  O  O226  1  0.99183115  0.25567128  0.13591894  1
  O  O227  1  1.00818369  0.24318996  0.63556255  1
  O  O228  1  0.99526299  0.74733193  0.13453728  1
  O  O229  1  0.98193508  0.73522146  0.60302216  1
  O  O230  1  0.00636850  0.26307077  0.37497682  1
  O  O231  1  0.01255534  0.24858999  0.86557123  1
  O  O232  1  0.00841143  0.75428465  0.37766177  1
  O  O233  1  -0.00408042  0.75416073  0.87016155  1
  O  O234  1  0.51197618  0.25369006  0.38199902  1
  O  O235  1  0.49818586  0.25142925  0.86818441  1
  O  O236  1  0.49165727  0.75984325  0.36196941  1
  O  O237  1  0.51111712  0.75942201  0.87104299  1
  O  O238  1  0.26060457  0.12914310  0.48009587  1
  O  O239  1  0.25589037  0.13675505  0.98767549  1
  O  O240  1  0.26125542  0.63674881  0.49939622  1
  O  O241  1  0.23812066  0.63932938  1.00666454  1
  O  O242  1  0.75300798  0.13362811  0.49124421  1
  O  O243  1  0.75649878  0.12838159  0.98760360  1
  O  O244  1  0.73412321  0.64125421  0.50348666  1
  O  O245  1  0.73963389  0.64023472  1.00127178  1
  O  O246  1  0.23735724  0.36197429  0.00753413  1
  O  O247  1  0.25996674  0.37069726  0.51151116  1
  O  O248  1  0.25392692  0.86252831  0.00681886  1
  O  O249  1  0.26374329  0.87323164  0.49638048  1
  O  O250  1  0.75221386  0.35646393  0.00240318  1
  O  O251  1  0.74706184  0.36343151  0.51265563  1
  O  O252  1  0.75897530  0.87054436  0.00842210  1
  O  O253  1  0.74388984  0.86559617  0.50811591  1
  O  O254  1  0.13431908  0.50741661  0.24315801  1
  O  O255  1  0.11592933  0.48641903  0.73752076  1
  O  O256  1  0.08271171  0.97996782  0.23625031  1
  O  O257  1  0.13754042  1.00355145  0.74240362  1
  O  O258  1  0.57937552  0.48865382  0.21675106  1
  O  O259  1  0.62153235  0.48827682  0.74077107  1
  O  O260  1  0.61554668  0.98471090  0.24008271  1
  O  O261  1  0.63278712  0.99732915  0.74174590  1
  O  O262  1  0.37871914  -0.00085035  0.26248514  1
  O  O263  1  0.37393164  0.01070395  0.75275009  1
  O  O264  1  0.36287314  0.50234453  0.25349452  1
  O  O265  1  0.36222838  0.50590970  0.74904954  1
  O  O266  1  0.88632605  0.00956519  0.26256092  1
  O  O267  1  0.86087452  0.00782527  0.74289120  1
  O  O268  1  0.88360752  0.51838003  0.24458206  1
  O  O269  1  0.87675605  0.51245657  0.75356673  1
  O  O270  1  0.12893777  0.36687212  0.37576009  1
  O  O271  1  0.13089146  0.36702759  0.86387844  1
  O  O272  1  0.11413194  0.86800541  0.37645929  1
  O  O273  1  0.13209837  0.86900541  0.86453765  1
  O  O274  1  0.61964649  0.37600447  0.37300637  1
  O  O275  1  0.63558717  0.38164653  0.85764123  1
  O  O276  1  0.61302718  0.88113599  0.36516660  1
  O  O277  1  0.62289207  0.87136663  0.87146097  1
  O  O278  1  0.37357901  0.12193147  0.14485688  1
  O  O279  1  0.37024612  0.13628837  0.63580240  1
  O  O280  1  0.37774331  0.63167456  0.12986479  1
  O  O281  1  0.37747537  0.62280518  0.64656930  1
  O  O282  1  0.86971793  0.13567310  0.13925646  1
  O  O283  1  0.88736291  0.12302099  0.63920932  1
  O  O284  1  0.88510994  0.63811367  0.12513156  1
  O  O285  1  0.87756125  0.62733789  0.63159482  1
  O  O286  1  0.24646338  0.24758780  0.11658768  1
  O  O287  1  0.26039648  0.25781846  0.62501016  1
  O  O288  1  0.26032425  0.75738460  0.11932130  1
  O  O289  1  0.24681619  0.75024239  0.60672293  1
  O  O290  1  0.76130940  0.25099834  0.11611289  1
  O  O291  1  0.74185970  0.25587798  0.61263734  1
  O  O292  1  0.75625529  0.76081707  0.11712113  1
  O  O293  1  0.75312667  0.76044330  0.62006248  1
  O  O294  1  0.23586892  0.24327692  0.37394395  1
  O  O295  1  0.24214153  0.24351332  0.87256525  1
  O  O296  1  0.23539538  0.75297057  0.37849898  1
  O  O297  1  0.25652125  0.75246544  0.88761687  1
  O  O298  1  0.74471405  0.23866623  0.38606411  1
  O  O299  1  0.75826272  0.23949397  0.88928878  1
  O  O300  1  0.74773279  0.75844821  0.38739148  1
  O  O301  1  0.74031451  0.75128121  0.88209812  1
  O  O302  1  0.00076399  0.11360297  -0.00742356  1
  O  O303  1  -0.00887790  0.11885290  0.51070127  1
  O  O304  1  0.01238355  0.62981046  0.01008835  1
  O  O305  1  -0.00599085  0.60612268  0.50666768  1
  O  O306  1  0.49015243  0.11882014  0.01229884  1
  O  O307  1  0.49090427  0.10706539  0.49692200  1
  O  O308  1  0.51173346  0.63029163  0.00222252  1
  O  O309  1  0.51199475  0.63033981  0.49734312  1
  O  O310  1  0.48564367  0.37849608  0.50734016  1
  O  O311  1  0.49252537  0.37080914  0.99371018  1
  O  O312  1  0.48940331  0.87594709  0.49061405  1
  O  O313  1  0.49377429  0.88543791  0.99548757  1
  O  O314  1  1.00099236  0.38026336  0.48780162  1
  O  O315  1  1.00596126  0.37783494  0.99227110  1
  O  O316  1  0.99661879  0.88250085  0.49316462  1
  O  O317  1  0.98493950  0.87168585  0.99616690  1
  O  O318  1  0.48205380  0.49853798  0.37411029  1
  O  O319  1  0.48588790  0.48770044  0.85663777  1
  O  O320  1  0.49287302  0.99048726  0.38568142  1
  O  O321  1  0.49830245  1.00101204  0.88362441  1
  O  O322  1  1.00080143  0.48620994  0.38469567  1
  O  O323  1  0.98635765  0.49905383  0.87326681  1
  O  O324  1  0.99310668  0.99390826  0.38479016  1
  O  O325  1  1.00360296  0.99017929  0.88950858  1
  O  O326  1  0.00055121  -0.01063258  0.09866112  1
  O  O327  1  0.00533734  0.00930345  0.61914105  1
  O  O328  1  0.00995065  0.51038583  0.12814124  1
  O  O329  1  0.00615017  0.49872536  0.61459162  1
  O  O330  1  0.50790738  -0.00009849  0.11752677  1
  O  O331  1  0.50653166  -0.00522479  0.61261250  1
  O  O332  1  0.51841125  0.49273813  0.16058513  1
  O  O333  1  0.51430395  0.49542555  0.62377696  1
  O  O334  1  0.25001006  0.38826495  0.24775579  1
  O  O335  1  0.24188295  0.36868099  0.73877519  1
  O  O336  1  0.25071958  0.87125050  0.23595509  1
  O  O337  1  0.25956952  0.89353396  0.74950407  1
  O  O338  1  0.75722380  0.37682631  0.23877772  1
  O  O339  1  0.73232221  0.35702436  0.73581923  1
  O  O340  1  0.74087813  0.86788149  0.24053724  1
  O  O341  1  0.74681071  0.88357197  0.74311829  1
  O  O342  1  0.26306487  0.12622016  0.26810435  1
  O  O343  1  0.26161240  0.12204389  0.75849885  1
  O  O344  1  0.26059203  0.62167643  0.24398462  1
  O  O345  1  0.25499665  0.63079667  0.75410538  1
  O  O346  1  0.76417869  0.13187483  0.26949915  1
  O  O347  1  0.75629073  0.12369331  0.75789435  1
  O  O348  1  0.76277609  0.62866710  0.24296787  1
  O  O349  1  0.76136231  0.62944287  0.74734084  1
  O  O350  1  0.37053622  0.11569112  0.36629085  1
  O  O351  1  0.36931843  0.12396264  0.86595795  1
  O  O352  1  0.37697880  0.61586950  0.36229497  1
  O  O353  1  0.38962847  0.62127579  0.85218231  1
  O  O354  1  0.86964442  0.11762191  0.37209471  1
  O  O355  1  0.86643329  0.12423582  0.86051232  1
  O  O356  1  0.87755560  0.63125473  0.36053351  1
  O  O357  1  0.87298720  0.62054512  0.85792637  1
  O  O358  1  0.11772189  0.39347330  0.12662844  1
  O  O359  1  0.13325363  0.37748300  0.62974700  1
  O  O360  1  0.14001281  0.86741287  0.12307895  1
  O  O361  1  0.12469034  0.89912303  0.62219454  1
  O  O362  1  0.64755599  0.37221085  0.12386107  1
  O  O363  1  0.63055961  0.38352698  0.63173788  1
  O  O364  1  0.63387664  0.88376595  0.13008646  1
  O  O365  1  0.63441220  0.88361731  0.62944503  1
  O  O366  1  0.11319911  0.24433567  0.26729242  1
  O  O367  1  0.11917666  0.25698287  0.75556387  1
  O  O368  1  0.11712193  0.75383897  0.26315893  1
  O  O369  1  0.10824948  0.76260134  0.70138090  1
  O  O370  1  0.63304860  0.24622740  0.27607709  1
  O  O371  1  0.60992568  0.25719182  0.74829606  1
  O  O372  1  0.61134158  0.76257060  0.23832639  1
  O  O373  1  0.62249069  0.75873847  0.75913639  1
  O  O374  1  0.37280431  0.24044651  0.25694359  1
  O  O375  1  0.38734656  0.24949161  0.74580975  1
  O  O376  1  0.37823264  0.74394559  0.24338852  1
  O  O377  1  0.39109639  0.74328057  0.75344480  1
  O  O378  1  0.88260058  0.24353780  0.24464121  1
  O  O379  1  0.88937473  0.24418562  0.75679024  1
  O  O380  1  0.88055185  0.74176099  0.24180702  1
  O  O381  1  0.87424828  0.74043310  0.73518951  1
  O  O382  1  0.37426392  0.49495496  0.49258180  1
  O  O383  1  0.38832089  0.49652933  1.00507859  1
  O  O384  1  0.38370650  0.98859797  0.49361634  1
  O  O385  1  0.38264341  0.99766516  0.99556212  1
  O  O386  1  0.89075336  0.48950274  0.51063397  1
  O  O387  1  0.88194478  0.51586007  0.98375052  1
  O  O388  1  0.88515463  0.99816525  0.49375005  1
  O  O389  1  0.88106500  0.98732850  1.00208566  1
  O  O390  1  0.11710447  0.00437833  0.00076020  1
  O  O391  1  0.11180510  0.00182924  0.50508216  1
  O  O392  1  0.12768804  0.51578906  0.01580798  1
  O  O393  1  0.11542681  0.49142503  0.51053238  1
  O  O394  1  0.61439195  -0.00207696  0.01031712  1
  O  O395  1  0.60917238  -0.00558246  0.50584632  1
  O  O396  1  0.63022766  0.51689749  -0.00520259  1
  O  O397  1  0.61927110  0.51442401  0.50695600  1
  O  O398  1  0.36987361  0.37759888  0.10222156  1
  O  O399  1  0.37008651  0.37012848  0.62149227  1
  O  O400  1  0.36480667  0.86810647  0.11922482  1
  O  O401  1  0.37723967  0.87797034  0.60978074  1
  O  O402  1  0.86953699  0.35674828  0.12778828  1
  O  O403  1  0.85413838  0.37922544  0.63860828  1
  O  O404  1  0.86980140  0.86592899  0.12140431  1
  O  O405  1  0.86364852  0.86741618  0.62248678  1
  O  O406  1  0.13757596  0.12100692  0.37097074  1
  O  O407  1  0.13609633  0.13454962  0.87167687  1
  O  O408  1  0.11811851  0.63789154  0.37475200  1
  O  O409  1  0.11768998  0.61639025  0.88957805  1
  O  O410  1  0.64090662  0.11071253  0.37313799  1
  O  O411  1  0.64114579  0.12997346  0.87037694  1
  O  O412  1  0.62076192  0.61684704  0.38188311  1
  O  O413  1  0.62510623  0.63630313  0.88537553  1
