# generated using pymatgen
data_V79Zn79O256
_symmetry_space_group_name_H-M   'P 1'
_cell_length_a   16.86347558
_cell_length_b   16.88166813
_cell_length_c   16.88547580
_cell_angle_alpha   89.90284599
_cell_angle_beta   89.85819416
_cell_angle_gamma   90.00968863
_symmetry_Int_Tables_number   1
_chemical_formula_structural   V79Zn79O256
_chemical_formula_sum   'V79 Zn79 O256'
_cell_volume   4806.99630420
_cell_formula_units_Z   1
loop_
 _symmetry_equiv_pos_site_id
 _symmetry_equiv_pos_as_xyz
  1  'x, y, z'
loop_
 _atom_site_type_symbol
 _atom_site_label
 _atom_site_symmetry_multiplicity
 _atom_site_fract_x
 _atom_site_fract_y
 _atom_site_fract_z
 _atom_site_occupancy
  V  V0  1  0.00231177  0.25699857  0.25171573  1
  V  V1  1  0.36835490  -0.01286369  0.87678767  1
  V  V2  1  0.12994670  0.36823599  0.75471647  1
  V  V3  1  0.48534725  0.62293870  0.13009683  1
  V  V4  1  0.85771161  0.37883427  0.50602075  1
  V  V5  1  0.74434624  0.75308578  0.50007565  1
  V  V6  1  0.25105129  -0.00259729  0.73830210  1
  V  V7  1  0.87450873  0.50073600  0.37511812  1
  V  V8  1  0.00126082  0.50331823  0.50016023  1
  V  V9  1  0.50897774  0.12264809  0.11256898  1
  V  V10  1  0.86904760  0.12511579  0.25389568  1
  V  V11  1  0.74449792  0.24461324  0.00057087  1
  V  V12  1  0.76214125  0.12689208  0.86784711  1
  V  V13  1  0.87969877  0.73510354  0.62795194  1
  V  V14  1  0.63641800  0.62510028  0.00437744  1
  V  V15  1  0.36899757  0.12687383  0.75805951  1
  V  V16  1  0.62481890  0.74451953  0.37586466  1
  V  V17  1  0.49635932  0.62447861  0.62090339  1
  V  V18  1  0.25305514  0.37345277  0.61163029  1
  V  V19  1  0.00289299  -0.00158999  0.00526307  1
  V  V20  1  0.00589927  0.86582412  0.36923108  1
  V  V21  1  0.01016356  0.62951283  0.12074864  1
  V  V22  1  0.12386553  0.50147515  0.62592693  1
  V  V23  1  0.11232153  0.00771930  0.62158972  1
  V  V24  1  0.50271947  -0.01420838  -0.01215718  1
  V  V25  1  0.37584642  0.25055089  0.12475156  1
  V  V26  1  0.64297517  0.38713145  0.74378103  1
  V  V27  1  0.12577168  0.23592418  0.87559671  1
  V  V28  1  0.87671834  0.75013378  0.12389042  1
  V  V29  1  0.22936332  0.62924737  0.88038925  1
  V  V30  1  0.74519034  0.88040934  0.62649364  1
  V  V31  1  0.12734894  0.62748550  0.50064707  1
  V  V32  1  0.01025966  0.37783991  0.37166719  1
  V  V33  1  0.75164506  0.62041417  0.85902382  1
  V  V34  1  0.25581671  0.50107824  0.75837462  1
  V  V35  1  0.49690423  0.26216530  0.75623401  1
  V  V36  1  0.37539669  0.62541846  0.75893489  1
  V  V37  1  0.22908403  -0.00518085  0.23947980  1
  V  V38  1  0.00531406  0.50299957  -0.00019714  1
  V  V39  1  0.87300635  0.49906495  0.85797200  1
  V  V40  1  0.49925062  0.25264943  0.25156812  1
  V  V41  1  0.37180181  -0.00090243  0.37280030  1
  V  V42  1  0.25070787  0.75921203  -0.00311294  1
  V  V43  1  0.86638511  0.37583557  0.00236507  1
  V  V44  1  0.87790096  0.62904385  0.24929771  1
  V  V45  1  0.25292168  0.86728341  0.12690855  1
  V  V46  1  0.75449535  0.00714024  0.74613958  1
  V  V47  1  0.13185484  0.11871360  0.01807591  1
  V  V48  1  0.75051209  0.86892107  0.12430871  1
  V  V49  1  0.26452799  0.62383277  0.36875785  1
  V  V50  1  0.62184510  0.87533321  0.24699193  1
  V  V51  1  0.62001533  0.24927275  0.38801465  1
  V  V52  1  0.48595746  0.49618948  0.49795618  1
  V  V53  1  0.37204050  0.76550321  0.62451411  1
  V  V54  1  0.12724701  0.86858632  0.74892772  1
  V  V55  1  0.37919639  0.37581643  -0.01212354  1
  V  V56  1  0.62155541  0.25079854  0.87533956  1
  V  V57  1  0.48529058  0.74633370  0.24763145  1
  V  V58  1  0.50609090  0.12983972  0.62308023  1
  V  V59  1  0.87000188  0.23951146  0.63664727  1
  V  V60  1  0.86561427  0.25462999  0.12736190  1
  V  V61  1  0.87576268  0.87841736  -0.00579204  1
  V  V62  1  -0.00658240  0.74054560  0.75407944  1
  V  V63  1  0.49570120  0.87513380  0.38252664  1
  V  V64  1  0.74244426  0.12612059  0.38761789  1
  V  V65  1  0.87873093  0.87859967  0.49696508  1
  V  V66  1  0.25418909  0.49196605  0.24458607  1
  V  V67  1  0.50269114  0.00634796  0.50033259  1
  V  V68  1  -0.00220571  0.01276428  0.49405638  1
  V  V69  1  0.51053086  0.76173729  0.76451341  1
  V  V70  1  0.49562848  0.49868647  -0.01234030  1
  V  V71  1  0.25022239  0.76319845  0.50432944  1
  V  V72  1  0.74932164  0.49422138  0.24353392  1
  V  V73  1  0.37050669  0.25226358  0.61396368  1
  V  V74  1  0.67390499  0.57304082  0.55492353  1
  V  V75  1  0.25080843  0.24641824  -0.00215775  1
  V  V76  1  0.62755469  0.37178421  0.24467772  1
  V  V77  1  0.75200361  -0.00009059  0.25396544  1
  V  V78  1  0.00210370  0.36755997  0.87587051  1
  Zn  Zn79  1  0.37697894  0.11901828  0.24539511  1
  Zn  Zn80  1  0.13351297  0.22606766  0.40683882  1
  Zn  Zn81  1  0.11762255  0.49089329  0.13979984  1
  Zn  Zn82  1  0.62654440  0.49365410  0.12224775  1
  Zn  Zn83  1  0.00222501  0.12071887  0.13369511  1
  Zn  Zn84  1  0.38283976  0.46908347  0.36898015  1
  Zn  Zn85  1  0.69755055  0.78370026  -0.05520494  1
  Zn  Zn86  1  0.62432525  0.00453244  0.62698467  1
  Zn  Zn87  1  0.91289913  0.12179009  0.75283347  1
  Zn  Zn88  1  0.62933688  0.00041037  0.11152248  1
  Zn  Zn89  1  0.74761747  0.62370243  0.37556075  1
  Zn  Zn90  1  0.00124139  0.87487894  0.87444306  1
  Zn  Zn91  1  0.12692622  0.75288751  0.35183284  1
  Zn  Zn92  1  0.23703655  0.36891636  0.12743844  1
  Zn  Zn93  1  0.24675005  0.12404393  0.37911988  1
  Zn  Zn94  1  0.20034835  0.19568498  0.21369292  1
  Zn  Zn95  1  0.18494355  0.18563332  0.68163165  1
  Zn  Zn96  1  0.19325202  0.68906489  0.18316991  1
  Zn  Zn97  1  0.18702676  0.68812815  0.68770370  1
  Zn  Zn98  1  0.68437778  0.18708357  0.18860028  1
  Zn  Zn99  1  0.68967394  0.20079056  0.68636228  1
  Zn  Zn100  1  0.68584188  0.68432587  0.18870114  1
  Zn  Zn101  1  0.68829032  0.69538334  0.69068087  1
  Zn  Zn102  1  0.30534120  0.30782318  0.32256806  1
  Zn  Zn103  1  0.31044937  0.31015239  0.81241091  1
  Zn  Zn104  1  0.30641174  0.81657261  0.31601559  1
  Zn  Zn105  1  0.31146208  0.80915619  0.81284487  1
  Zn  Zn106  1  0.80886722  0.31195682  0.32071328  1
  Zn  Zn107  1  0.81169545  0.31232868  0.81097919  1
  Zn  Zn108  1  0.81654818  0.81268937  0.31248902  1
  Zn  Zn109  1  0.79553328  0.81868139  0.81514758  1
  Zn  Zn110  1  0.19010826  0.44093283  0.43223718  1
  Zn  Zn111  1  0.19111849  0.43379988  0.94154204  1
  Zn  Zn112  1  0.18064936  0.94373713  0.43471682  1
  Zn  Zn113  1  0.18669043  0.93625105  0.93451305  1
  Zn  Zn114  1  0.67799766  0.43548330  0.42671415  1
  Zn  Zn115  1  0.68280303  0.43734354  0.92976260  1
  Zn  Zn116  1  0.68356572  0.93819358  0.43821178  1
  Zn  Zn117  1  0.68192797  0.94860748  0.92218809  1
  Zn  Zn118  1  0.31742047  0.05709081  0.06428355  1
  Zn  Zn119  1  0.31384439  0.06198555  0.55806095  1
  Zn  Zn120  1  0.31062729  0.56257531  0.05770010  1
  Zn  Zn121  1  0.31235034  0.56790291  0.56577853  1
  Zn  Zn122  1  0.81289346  0.06242964  0.06385640  1
  Zn  Zn123  1  0.81957698  0.06452501  0.56692865  1
  Zn  Zn124  1  0.81912611  0.55908324  0.06283947  1
  Zn  Zn125  1  0.83589576  0.52562152  0.65513856  1
  Zn  Zn126  1  0.43515191  0.43768238  0.18567897  1
  Zn  Zn127  1  0.43849836  0.44099829  0.68401514  1
  Zn  Zn128  1  0.43416499  0.93348006  0.18151468  1
  Zn  Zn129  1  0.44302965  0.94070920  0.69140274  1
  Zn  Zn130  1  0.93507967  0.43910209  0.18481397  1
  Zn  Zn131  1  0.95462844  0.40110892  0.67407408  1
  Zn  Zn132  1  0.94032367  0.93871160  0.18751581  1
  Zn  Zn133  1  0.93298492  0.93361080  0.68777622  1
  Zn  Zn134  1  0.05627615  0.06345735  0.31704364  1
  Zn  Zn135  1  0.06645108  0.05529312  0.81960819  1
  Zn  Zn136  1  0.06855433  0.57312306  0.31081746  1
  Zn  Zn137  1  0.05790781  0.55786784  0.80883206  1
  Zn  Zn138  1  0.56128761  0.06525211  0.30879031  1
  Zn  Zn139  1  0.56613439  0.06937214  0.81101001  1
  Zn  Zn140  1  0.55786930  0.55888483  0.31261426  1
  Zn  Zn141  1  0.56548176  0.57137093  0.80978867  1
  Zn  Zn142  1  0.43141357  0.18709348  0.43537559  1
  Zn  Zn143  1  0.43642940  0.18342923  0.93561667  1
  Zn  Zn144  1  0.43910700  0.69151471  0.44221170  1
  Zn  Zn145  1  0.43659384  0.68776819  0.94163565  1
  Zn  Zn146  1  0.92758033  0.19727109  0.43677936  1
  Zn  Zn147  1  0.94099715  0.18387529  0.94321512  1
  Zn  Zn148  1  0.93620729  0.68725048  0.44044316  1
  Zn  Zn149  1  0.93067421  0.68767127  0.93675804  1
  Zn  Zn150  1  0.05780525  0.31056867  0.06444532  1
  Zn  Zn151  1  0.04728023  0.29806918  0.55827713  1
  Zn  Zn152  1  0.07291631  0.80998383  0.06442625  1
  Zn  Zn153  1  0.06324211  0.81838422  0.56675537  1
  Zn  Zn154  1  0.56311616  0.31559447  0.06175764  1
  Zn  Zn155  1  0.56190248  0.31861616  0.56976596  1
  Zn  Zn156  1  0.55341251  0.80817826  0.06423521  1
  Zn  Zn157  1  0.55967762  0.81418411  0.56698013  1
  O  O158  1  0.12522128  0.13224067  0.11886635  1
  O  O159  1  0.12690859  0.10713204  0.62602726  1
  O  O160  1  0.11063586  0.61817079  0.12306741  1
  O  O161  1  0.13575862  0.61012958  0.61688699  1
  O  O162  1  0.61320177  0.12061014  0.12486839  1
  O  O163  1  0.60912462  0.13489595  0.63022556  1
  O  O164  1  0.62304695  0.61856146  0.11415757  1
  O  O165  1  0.61621369  0.63326221  0.61932848  1
  O  O166  1  0.37818747  0.35867573  0.38268925  1
  O  O167  1  0.37409770  0.36989021  0.88826930  1
  O  O168  1  0.38752143  0.88322155  0.37075671  1
  O  O169  1  0.37635155  0.88823215  0.86778688  1
  O  O170  1  0.88123875  0.38358371  0.38354964  1
  O  O171  1  0.88252742  0.38156563  0.87940226  1
  O  O172  1  0.88218794  0.86757844  0.38993572  1
  O  O173  1  0.87300249  0.87001852  0.89340323  1
  O  O174  1  0.26260407  -0.01239136  0.36325686  1
  O  O175  1  0.26259221  -0.00291489  0.86392494  1
  O  O176  1  0.25737834  0.51132429  0.36872485  1
  O  O177  1  0.24282266  0.50995310  0.86539743  1
  O  O178  1  0.73937690  0.01163724  0.36394967  1
  O  O179  1  0.75290575  0.02161482  0.86695497  1
  O  O180  1  0.75847780  0.50316610  0.36609053  1
  O  O181  1  0.76556412  0.50407791  0.87615302  1
  O  O182  1  0.25006043  0.50424466  0.13699349  1
  O  O183  1  0.24583951  0.48982248  0.63380496  1
  O  O184  1  0.25105781  0.99307404  0.13524255  1
  O  O185  1  0.24730413  0.99812034  0.63307756  1
  O  O186  1  0.75125138  0.50137507  0.13940791  1
  O  O187  1  0.73061134  0.51839827  0.61464316  1
  O  O188  1  0.74716773  0.98989002  0.13373377  1
  O  O189  1  0.74672111  0.99770643  0.62537862  1
  O  O190  1  -0.01260421  0.36475595  0.25703638  1
  O  O191  1  0.01862516  0.38266835  0.76667387  1
  O  O192  1  -0.01269708  0.87958633  0.27124486  1
  O  O193  1  0.00595253  0.86846768  0.75141388  1
  O  O194  1  0.50733980  0.36065430  0.24317168  1
  O  O195  1  0.49397234  0.36398879  0.74951011  1
  O  O196  1  0.50712829  0.86684855  0.25219379  1
  O  O197  1  0.49989005  0.86141385  0.74806429  1
  O  O198  1  0.50012878  0.13264393  0.23443018  1
  O  O199  1  0.48988646  0.13375471  0.74170193  1
  O  O200  1  0.50439218  0.63046763  0.23781083  1
  O  O201  1  0.49324856  0.63385185  0.74166736  1
  O  O202  1  0.98534985  0.13573528  0.25510087  1
  O  O203  1  1.02171576  0.13708744  0.76144389  1
  O  O204  1  0.98697904  0.61377912  0.23370559  1
  O  O205  1  1.00395306  0.64080194  0.74843800  1
  O  O206  1  0.36948635  0.25288457  0.00372701  1
  O  O207  1  0.38007486  0.25244881  0.51597989  1
  O  O208  1  0.35298029  0.73658918  -0.00329412  1
  O  O209  1  0.36338991  0.74953688  0.51310559  1
  O  O210  1  0.86778436  0.25593098  0.00769031  1
  O  O211  1  0.87881539  0.27443646  0.50988329  1
  O  O212  1  0.87810853  0.76244840  0.01356864  1
  O  O213  1  0.86364207  0.75245315  0.50923189  1
  O  O214  1  0.13486916  0.26937763  0.50640515  1
  O  O215  1  0.13150709  0.24019540  0.99733552  1
  O  O216  1  0.13834264  0.74098857  0.51549668  1
  O  O217  1  0.14711998  0.74396410  1.00446611  1
  O  O218  1  0.61132104  0.25466171  0.48649393  1
  O  O219  1  0.63618721  0.25915656  0.99254131  1
  O  O220  1  0.63473107  0.76091290  0.49039317  1
  O  O221  1  0.61848629  0.73064684  1.00351984  1
  O  O222  1  0.49711308  0.23933790  0.12572908  1
  O  O223  1  0.48647004  0.24902507  0.63409953  1
  O  O224  1  0.50234213  0.73433636  0.13403708  1
  O  O225  1  0.48736001  0.74526191  0.62700957  1
  O  O226  1  0.98254636  0.24798111  0.13517879  1
  O  O227  1  0.96891666  0.29183918  0.63379182  1
  O  O228  1  0.99403613  0.73607029  0.11880045  1
  O  O229  1  0.98432896  0.75116155  0.62759476  1
  O  O230  1  -0.00275888  0.25897086  0.36360889  1
  O  O231  1  0.01034115  0.26070928  0.88652117  1
  O  O232  1  0.00333029  0.76088035  0.38445936  1
  O  O233  1  -0.01343767  0.75260829  0.85832601  1
  O  O234  1  0.51108782  0.23400175  0.36221154  1
  O  O235  1  0.50820979  0.24231648  0.86692767  1
  O  O236  1  0.50569680  0.75656771  0.37027541  1
  O  O237  1  0.49583526  0.74620001  0.86360383  1
  O  O238  1  0.26336199  0.13330529  0.49116065  1
  O  O239  1  0.24165780  0.13275837  1.00945249  1
  O  O240  1  0.24398630  0.62929754  0.49224457  1
  O  O241  1  0.24678563  0.61850323  0.98184740  1
  O  O242  1  0.75300948  0.11629588  0.48556430  1
  O  O243  1  0.75713916  0.13490284  0.98778603  1
  O  O244  1  0.73905462  0.63592665  0.49893350  1
  O  O245  1  0.73902324  0.61706760  1.00096531  1
  O  O246  1  0.26032121  0.36587362  0.00565925  1
  O  O247  1  0.25157058  0.38519949  0.51416901  1
  O  O248  1  0.25273640  0.86547267  -0.00034386  1
  O  O249  1  0.24298363  0.86112658  0.49613422  1
  O  O250  1  0.76086901  0.36587004  -0.00997517  1
  O  O251  1  0.76010821  0.38175457  0.48752517  1
  O  O252  1  0.76175173  0.87693013  0.01276734  1
  O  O253  1  0.75695160  0.87123961  0.50318796  1
  O  O254  1  0.14633184  0.51127916  0.25374109  1
  O  O255  1  0.13367078  0.49299395  0.74386850  1
  O  O256  1  0.13052498  0.99946358  0.24944665  1
  O  O257  1  0.13236867  0.99251691  0.74097777  1
  O  O258  1  0.63198639  0.48952987  0.25499837  1
  O  O259  1  0.61803633  0.48456927  0.75969339  1
  O  O260  1  0.62956553  0.98737731  0.24658493  1
  O  O261  1  0.64489116  1.01026606  0.74665356  1
  O  O262  1  0.38332191  -0.00247388  0.26417020  1
  O  O263  1  0.37067900  0.00586936  0.75628873  1
  O  O264  1  0.36372014  0.49859924  0.25389141  1
  O  O265  1  0.36382566  0.51009465  0.74239347  1
  O  O266  1  0.86267275  0.01135977  0.24552699  1
  O  O267  1  0.86429329  0.01498606  0.73660466  1
  O  O268  1  0.86856350  0.50463168  0.25707029  1
  O  O269  1  0.88308277  0.49221936  0.75660310  1
  O  O270  1  0.11094285  0.38105979  0.37427013  1
  O  O271  1  0.12094759  0.36540563  0.87361885  1
  O  O272  1  0.11179886  0.87026008  0.37791206  1
  O  O273  1  0.12119268  0.88033831  0.85587372  1
  O  O274  1  0.62357122  0.35649672  0.36330842  1
  O  O275  1  0.63046135  0.36028902  0.86286871  1
  O  O276  1  0.61670809  0.86814570  0.36527500  1
  O  O277  1  0.68999941  0.85695210  0.86236819  1
  O  O278  1  0.38692417  0.13383184  0.12209484  1
  O  O279  1  0.37954537  0.13896893  0.63354563  1
  O  O280  1  0.38705837  0.62211999  0.12273192  1
  O  O281  1  0.37995542  0.63416895  0.63608076  1
  O  O282  1  0.87289692  0.13479275  0.13647797  1
  O  O283  1  0.88607466  0.13916854  0.62254848  1
  O  O284  1  0.87821793  0.63341788  0.13044771  1
  O  O285  1  0.86861083  0.63553048  0.62673786  1
  O  O286  1  0.26069062  0.24791918  0.12047108  1
  O  O287  1  0.26002009  0.26191702  0.62960827  1
  O  O288  1  0.25649836  0.75802786  0.11611492  1
  O  O289  1  0.26165255  0.74725408  0.61774026  1
  O  O290  1  0.75607960  0.24379106  0.11565803  1
  O  O291  1  0.76911644  0.25347545  0.62295965  1
  O  O292  1  0.75742648  0.76041410  0.13064726  1
  O  O293  1  0.75738378  0.75816341  0.61928604  1
  O  O294  1  0.22538855  0.23228566  0.32824372  1
  O  O295  1  0.24167369  0.25260023  0.88998445  1
  O  O296  1  0.24882570  0.74348106  0.38899850  1
  O  O297  1  0.24748423  0.73761036  0.87929796  1
  O  O298  1  0.73379123  0.23771161  0.37415905  1
  O  O299  1  0.74596536  0.24360618  0.88171852  1
  O  O300  1  0.74402105  0.75093765  0.38401059  1
  O  O301  1  0.77475517  0.72032809  0.88065432  1
  O  O302  1  0.01316550  0.11964700  0.00698517  1
  O  O303  1  -0.01114591  0.11197437  0.48730245  1
  O  O304  1  -0.01230627  0.61699432  0.01193733  1
  O  O305  1  0.01032803  0.61292914  0.49480726  1
  O  O306  1  0.50040224  0.12088945  0.00915946  1
  O  O307  1  0.49029340  0.11874967  0.51162263  1
  O  O308  1  0.50624729  0.61574701  0.01057589  1
  O  O309  1  0.49628498  0.62092124  0.51260772  1
  O  O310  1  0.50487289  0.39856014  0.51138257  1
  O  O311  1  0.49693301  0.39043883  1.00276251  1
  O  O312  1  0.50357565  0.88181116  0.48845969  1
  O  O313  1  0.49834564  0.88657416  1.00160780  1
  O  O314  1  0.99169792  0.39132824  0.48896080  1
  O  O315  1  0.98858799  0.38048359  0.99187116  1
  O  O316  1  0.99339699  0.87969412  0.49528482  1
  O  O317  1  0.99053838  0.87706802  1.00463153  1
  O  O318  1  0.49337731  0.50981746  0.39160417  1
  O  O319  1  0.49908643  0.51262280  0.89005255  1
  O  O320  1  0.49597140  0.99470631  0.37945432  1
  O  O321  1  0.49323717  1.00463138  0.88189144  1
  O  O322  1  0.99411978  0.49766576  0.37599094  1
  O  O323  1  0.98867807  0.49294968  0.87975878  1
  O  O324  1  1.00306076  0.98622046  0.39059323  1
  O  O325  1  1.00594080  0.99480333  0.89766927  1
  O  O326  1  -0.00065941  0.00291983  0.11442454  1
  O  O327  1  0.00618030  0.00085940  0.61606712  1
  O  O328  1  -0.00400674  0.50975862  0.11642387  1
  O  O329  1  0.01535051  0.48868128  0.61528116  1
  O  O330  1  0.49769874  0.00944471  0.11110615  1
  O  O331  1  0.49921587  0.01146528  0.61946325  1
  O  O332  1  0.50385059  0.51200205  0.12259664  1
  O  O333  1  0.49632879  0.51488039  0.61676979  1
  O  O334  1  0.25111991  0.38895976  0.24725856  1
  O  O335  1  0.24507041  0.38509740  0.75257855  1
  O  O336  1  0.25081759  0.88238248  0.24003879  1
  O  O337  1  0.23655795  0.87859071  0.75140006  1
  O  O338  1  0.74217822  0.38256942  0.25736054  1
  O  O339  1  0.74437087  0.38162706  0.75073529  1
  O  O340  1  0.74429577  0.88097613  0.24642722  1
  O  O341  1  0.76811336  0.89147289  0.73095196  1
  O  O342  1  0.25759722  0.09903745  0.24858859  1
  O  O343  1  0.26017170  0.11459427  0.74293667  1
  O  O344  1  0.25476593  0.62726572  0.26583687  1
  O  O345  1  0.25328769  0.62087306  0.75850116  1
  O  O346  1  0.75101307  0.11681143  0.25376883  1
  O  O347  1  0.75290135  0.12818029  0.75962447  1
  O  O348  1  0.75982726  0.61677875  0.25204698  1
  O  O349  1  0.74662346  0.62082356  0.75879357  1
  O  O350  1  0.37453303  0.10957893  0.36901068  1
  O  O351  1  0.37685188  0.11689013  0.86258269  1
  O  O352  1  0.36383083  0.63010073  0.38153584  1
  O  O353  1  0.36897890  0.62687359  0.86091520  1
  O  O354  1  0.85492210  0.13761800  0.36395952  1
  O  O355  1  0.86585570  0.13706749  0.87005095  1
  O  O356  1  0.87594418  0.61894429  0.36588084  1
  O  O357  1  0.87058526  0.60469809  0.87570318  1
  O  O358  1  0.12418517  0.38042199  0.11886329  1
  O  O359  1  0.14040196  0.38079588  0.63743587  1
  O  O360  1  0.14876618  0.87727222  0.11632301  1
  O  O361  1  0.12017213  0.88953900  0.63911915  1
  O  O362  1  0.62580408  0.37530064  0.13849010  1
  O  O363  1  0.62518996  0.37179525  0.64456682  1
  O  O364  1  0.63199566  0.87200117  0.13123455  1
  O  O365  1  0.64068111  0.87687564  0.62011082  1
  O  O366  1  0.09868037  0.24892187  0.23603387  1
  O  O367  1  0.14085068  0.26040547  0.76135966  1
  O  O368  1  0.11359616  0.73351005  0.24425752  1
  O  O369  1  0.11053003  0.76109291  0.73683710  1
  O  O370  1  0.61799355  0.25514999  0.25294616  1
  O  O371  1  0.61560199  0.26126377  0.75566926  1
  O  O372  1  0.62074494  0.75971229  0.25641513  1
  O  O373  1  0.61010784  0.74600284  0.75180021  1
  O  O374  1  0.38370693  0.24610202  0.23828741  1
  O  O375  1  0.37866533  0.24303782  0.74910312  1
  O  O376  1  0.38693032  0.75385946  0.25759103  1
  O  O377  1  0.37908180  0.74516319  0.73925356  1
  O  O378  1  0.87285787  0.24566147  0.24449433  1
  O  O379  1  0.87270454  0.24476652  0.74179601  1
  O  O380  1  0.87196953  0.73987721  0.24038039  1
  O  O381  1  0.88110452  0.75687967  0.73572567  1
  O  O382  1  0.38247120  0.50161533  0.50160988  1
  O  O383  1  0.38747076  0.49139855  1.00534436  1
  O  O384  1  0.38641997  0.99871600  0.48386439  1
  O  O385  1  0.38323947  1.00546938  0.98297989  1
  O  O386  1  0.88313052  0.50017493  0.48414478  1
  O  O387  1  0.88179649  0.48980058  0.99363855  1
  O  O388  1  0.88897326  0.99070822  0.50816794  1
  O  O389  1  0.88215113  0.98534988  1.00843718  1
  O  O390  1  0.12644174  0.01425773  0.00107812  1
  O  O391  1  0.11221904  -0.00588979  0.51285402  1
  O  O392  1  0.10645146  0.49581500  -0.00775089  1
  O  O393  1  0.12126988  0.50654815  0.50528843  1
  O  O394  1  0.60998693  -0.00208653  -0.00606081  1
  O  O395  1  0.60878574  -0.00081805  0.50219036  1
  O  O396  1  0.61511535  0.50576990  0.00043344  1
  O  O397  1  0.61856843  0.51106593  0.49324012  1
  O  O398  1  0.37906163  0.36003028  0.11422115  1
  O  O399  1  0.36255958  0.36510540  0.63220750  1
  O  O400  1  0.35704965  0.88272398  0.11862431  1
  O  O401  1  0.37695362  0.86423345  0.62891631  1
  O  O402  1  0.87570048  0.36665771  0.11472971  1
  O  O403  1  0.86203521  0.41470596  0.60589485  1
  O  O404  1  0.86891071  0.86707800  0.12504741  1
  O  O405  1  0.86730087  0.86656790  0.61137565  1
  O  O406  1  0.12938936  0.11496128  0.38230346  1
  O  O407  1  0.12809569  0.13356617  0.89112926  1
  O  O408  1  0.13569328  0.63062871  0.38857743  1
  O  O409  1  0.13043169  0.62501657  0.86934541  1
  O  O410  1  0.63285948  0.13365279  0.37199527  1
  O  O411  1  0.63874915  0.14230561  0.86981376  1
  O  O412  1  0.62452830  0.64155251  0.36666663  1
  O  O413  1  0.64386533  0.61735737  0.88636728  1
