# generated using pymatgen
data_V79Zn79O256
_symmetry_space_group_name_H-M   'P 1'
_cell_length_a   16.92524359
_cell_length_b   16.92979044
_cell_length_c   16.91358692
_cell_angle_alpha   90.03112129
_cell_angle_beta   89.95789045
_cell_angle_gamma   90.17716933
_symmetry_Int_Tables_number   1
_chemical_formula_structural   V79Zn79O256
_chemical_formula_sum   'V79 Zn79 O256'
_cell_volume   4846.40799671
_cell_formula_units_Z   1
loop_
 _symmetry_equiv_pos_site_id
 _symmetry_equiv_pos_as_xyz
  1  'x, y, z'
loop_
 _atom_site_type_symbol
 _atom_site_label
 _atom_site_symmetry_multiplicity
 _atom_site_fract_x
 _atom_site_fract_y
 _atom_site_fract_z
 _atom_site_occupancy
  V  V0  1  0.12928608  -0.01228448  0.13144142  1
  V  V1  1  0.88435203  0.00207415  0.38569841  1
  V  V2  1  0.88007730  0.62880990  0.24603081  1
  V  V3  1  0.49654256  0.49791620  0.49416177  1
  V  V4  1  0.12020064  0.61692054  -0.00155555  1
  V  V5  1  0.24168707  0.49537473  0.74701748  1
  V  V6  1  0.62852361  0.62840909  0.49676476  1
  V  V7  1  0.50729424  0.00250740  0.00645775  1
  V  V8  1  0.00736393  0.37655847  0.36940289  1
  V  V9  1  0.37736132  0.61882230  0.24998431  1
  V  V10  1  0.75597533  0.86700941  0.63241228  1
  V  V11  1  0.12255397  0.75991044  0.35854456  1
  V  V12  1  0.12010175  -0.00002172  0.62215820  1
  V  V13  1  0.75059181  0.63181509  0.37364877  1
  V  V14  1  0.88771096  0.62925660  0.74300109  1
  V  V15  1  0.61784217  0.12358607  0.50249161  1
  V  V16  1  0.36814278  0.36807957  0.49486390  1
  V  V17  1  -0.00089691  0.61402850  0.11891847  1
  V  V18  1  0.25685553  0.11832518  0.36264894  1
  V  V19  1  0.37871490  0.12957446  0.75399528  1
  V  V20  1  0.24556474  0.36603083  0.62657100  1
  V  V21  1  0.74965409  0.37801718  0.63315691  1
  V  V22  1  0.12996923  0.25008746  0.37606401  1
  V  V23  1  0.24911378  0.62798579  0.87400154  1
  V  V24  1  0.12005099  0.75299551  0.87046226  1
  V  V25  1  0.49994397  0.37310196  0.37110526  1
  V  V26  1  0.74873263  0.75011614  -0.00587277  1
  V  V27  1  0.63037387  0.87610612  0.23210322  1
  V  V28  1  0.50298905  0.23102179  0.24753395  1
  V  V29  1  0.75158419  0.37696575  0.11632589  1
  V  V30  1  0.88656195  0.87453454  0.50142216  1
  V  V31  1  0.74629820  0.12398284  0.37712217  1
  V  V32  1  -0.00287778  0.00248541  -0.00237928  1
  V  V33  1  0.62002819  0.50241975  0.12399769  1
  V  V34  1  0.25171593  0.87182278  0.61668189  1
  V  V35  1  0.24205204  -0.00488459  0.75577703  1
  V  V36  1  0.50011178  0.36504210  0.86616994  1
  V  V37  1  0.86603648  0.87503749  -0.00207520  1
  V  V38  1  0.00387067  0.50311846  0.50406139  1
  V  V39  1  0.75075033  -0.00638769  0.24424750  1
  V  V40  1  0.25872890  0.62109696  0.36845253  1
  V  V41  1  0.13273003  0.12745806  0.50115054  1
  V  V42  1  -0.00082564  0.38085625  0.89128154  1
  V  V43  1  0.62618692  0.63175328  -0.00764128  1
  V  V44  1  0.87342310  0.24673194  0.63003677  1
  V  V45  1  0.00165196  0.26081079  0.74691871  1
  V  V46  1  0.50664473  0.85991769  0.86849850  1
  V  V47  1  0.74845772  0.50027658  0.24943386  1
  V  V48  1  0.37710910  -0.01478514  0.38624926  1
  V  V49  1  0.49812163  0.50338217  -0.00109425  1
  V  V50  1  0.63257863  0.23229349  0.87537353  1
  V  V51  1  0.37759883  0.63237448  0.74320270  1
  V  V52  1  0.62816839  0.49679453  0.62957433  1
  V  V53  1  0.74661018  0.25109874  0.49418075  1
  V  V54  1  0.12552099  0.12673114  0.00069485  1
  V  V55  1  0.87661146  0.50133989  0.37287804  1
  V  V56  1  0.37265338  0.37188723  0.00962006  1
  V  V57  1  0.86990169  0.49371432  0.88036804  1
  V  V58  1  0.87898644  0.75035797  0.11963545  1
  V  V59  1  0.61859660  -0.00511346  0.62819400  1
  V  V60  1  0.61828534  0.37241761  0.24995442  1
  V  V61  1  0.26009256  0.75892906  0.00889078  1
  V  V62  1  0.87474253  0.37623219  0.49826572  1
  V  V63  1  0.75052369  0.62063493  0.86337634  1
  V  V64  1  0.13690907  0.63038670  0.49866869  1
  V  V65  1  0.86764917  0.01536827  0.86917042  1
  V  V66  1  -0.00112039  0.87210548  0.86763885  1
  V  V67  1  0.49950620  0.63731601  0.12418238  1
  V  V68  1  0.37596653  0.22165166  0.12927843  1
  V  V69  1  0.14156491  0.49354533  0.13695772  1
  V  V70  1  0.12516759  0.25496740  0.87209040  1
  V  V71  1  0.37499350  0.50000936  0.87178481  1
  V  V72  1  0.74983482  0.02163794  0.74860340  1
  V  V73  1  0.00162578  0.25100050  0.25017577  1
  V  V74  1  -0.00128567  0.12639010  0.62305524  1
  V  V75  1  0.50752149  0.87490860  0.40888727  1
  V  V76  1  0.87339677  0.25483880  0.11930180  1
  V  V77  1  0.49334966  0.75918493  0.24983450  1
  V  V78  1  0.50138272  0.63126125  0.62592029  1
  Zn  Zn79  1  -0.00307805  0.12608813  0.12868083  1
  Zn  Zn80  1  0.50056373  0.13160162  0.63334992  1
  Zn  Zn81  1  0.63044204  0.75730278  0.37531271  1
  Zn  Zn82  1  0.61472009  0.36906278  0.74453860  1
  Zn  Zn83  1  -0.00030077  0.65135964  0.62163659  1
  Zn  Zn84  1  0.24987523  0.12792506  0.87540236  1
  Zn  Zn85  1  0.24384896  0.25414035  0.01039962  1
  Zn  Zn86  1  0.39112202  0.76741962  0.61347238  1
  Zn  Zn87  1  0.74449405  0.24630588  -0.00078644  1
  Zn  Zn88  1  0.38583751  0.25257124  0.63139291  1
  Zn  Zn89  1  0.12253489  0.49784568  0.62685436  1
  Zn  Zn90  1  0.37509085  -0.01158469  0.87991489  1
  Zn  Zn91  1  0.75899077  0.75070268  0.50391158  1
  Zn  Zn92  1  0.87160271  0.12521526  0.25067233  1
  Zn  Zn93  1  0.06409356  0.81538638  0.70171761  1
  Zn  Zn94  1  0.18614716  0.18494472  0.18689880  1
  Zn  Zn95  1  0.18798516  0.18531207  0.69180839  1
  Zn  Zn96  1  0.18795433  0.68558210  0.18669655  1
  Zn  Zn97  1  0.18914436  0.68334135  0.68503018  1
  Zn  Zn98  1  0.68862809  0.18616675  0.18552531  1
  Zn  Zn99  1  0.67979360  0.19407947  0.68796460  1
  Zn  Zn100  1  0.69162778  0.69394308  0.18525369  1
  Zn  Zn101  1  0.69459190  0.67949213  0.68545041  1
  Zn  Zn102  1  0.31355672  0.29667365  0.31184610  1
  Zn  Zn103  1  0.31015744  0.31233223  0.81436942  1
  Zn  Zn104  1  0.30307017  0.80073397  0.44266342  1
  Zn  Zn105  1  0.31380413  0.81384809  0.80837477  1
  Zn  Zn106  1  0.81270493  0.31456747  0.30853360  1
  Zn  Zn107  1  0.81132721  0.30921196  0.81480672  1
  Zn  Zn108  1  0.84898706  0.83226543  0.29536997  1
  Zn  Zn109  1  0.81098697  0.80943175  0.81167788  1
  Zn  Zn110  1  0.19042161  0.44148819  0.42985811  1
  Zn  Zn111  1  0.18820957  0.43625718  0.94195585  1
  Zn  Zn112  1  0.18247918  0.94488541  0.43637249  1
  Zn  Zn113  1  0.18413072  0.93377612  0.94230901  1
  Zn  Zn114  1  0.68590100  0.43916271  0.43663179  1
  Zn  Zn115  1  0.68339314  0.43995380  0.93445690  1
  Zn  Zn116  1  0.69350601  0.93782239  0.44389209  1
  Zn  Zn117  1  0.67940572  0.93591072  0.92837875  1
  Zn  Zn118  1  0.31118832  0.04723352  0.05633834  1
  Zn  Zn119  1  0.31361386  0.06256513  0.56493757  1
  Zn  Zn120  1  0.31412480  0.56910910  0.06237097  1
  Zn  Zn121  1  0.31496970  0.55736925  0.56108415  1
  Zn  Zn122  1  0.81480914  0.06364792  0.06486473  1
  Zn  Zn123  1  0.80990038  0.06343420  0.56393759  1
  Zn  Zn124  1  0.81097666  0.56097863  0.05776713  1
  Zn  Zn125  1  0.81480888  0.56124540  0.56308545  1
  Zn  Zn126  1  0.38532450  0.41591054  0.21785760  1
  Zn  Zn127  1  0.43334122  0.44258430  0.68123438  1
  Zn  Zn128  1  0.44715790  0.96345317  0.20346360  1
  Zn  Zn129  1  0.43042679  0.94180224  0.69398316  1
  Zn  Zn130  1  0.93874673  0.43803276  0.18463205  1
  Zn  Zn131  1  0.93210444  0.44112224  0.69270698  1
  Zn  Zn132  1  0.95173358  0.93285527  0.18488273  1
  Zn  Zn133  1  0.93160786  0.94423026  0.68633657  1
  Zn  Zn134  1  0.06394522  0.06518049  0.31111726  1
  Zn  Zn135  1  0.05719900  0.06938699  0.80781759  1
  Zn  Zn136  1  0.06491023  0.56798970  0.31145823  1
  Zn  Zn137  1  0.05871431  0.56095428  0.81275609  1
  Zn  Zn138  1  0.56481049  0.04848891  0.32287331  1
  Zn  Zn139  1  0.55985283  0.05106893  0.81892967  1
  Zn  Zn140  1  0.55968311  0.56204470  0.31128704  1
  Zn  Zn141  1  0.56271752  0.56761070  0.80861278  1
  Zn  Zn142  1  0.43792697  0.19091642  0.43639920  1
  Zn  Zn143  1  0.44064384  0.17835233  0.93953153  1
  Zn  Zn144  1  0.44346872  0.69083801  0.43889017  1
  Zn  Zn145  1  0.43759803  0.69397624  0.93402147  1
  Zn  Zn146  1  0.93819594  0.18700356  0.44098977  1
  Zn  Zn147  1  0.93886904  0.19358848  0.93797230  1
  Zn  Zn148  1  0.94288610  0.69098947  0.43567589  1
  Zn  Zn149  1  0.93620602  0.68424254  0.93347761  1
  Zn  Zn150  1  0.06258911  0.31752787  0.06562441  1
  Zn  Zn151  1  0.06291117  0.31303563  0.55730358  1
  Zn  Zn152  1  0.06281605  0.80660976  0.05548161  1
  Zn  Zn153  1  0.06824256  0.81773179  0.53586432  1
  Zn  Zn154  1  0.55581004  0.30640455  0.05901525  1
  Zn  Zn155  1  0.56001595  0.30918841  0.56190159  1
  Zn  Zn156  1  0.55971928  0.82321818  0.05493115  1
  Zn  Zn157  1  0.57666072  0.81169446  0.70925108  1
  O  O158  1  0.11707561  0.12097851  0.11353463  1
  O  O159  1  0.12007648  0.12339653  0.61846074  1
  O  O160  1  0.11635455  0.61813274  0.11746096  1
  O  O161  1  0.12750664  0.61972651  0.60927040  1
  O  O162  1  0.66107026  0.12251771  0.08838257  1
  O  O163  1  0.62537354  0.11784659  0.61746832  1
  O  O164  1  0.62215885  0.61993118  0.11724415  1
  O  O165  1  0.62273468  0.61406590  0.61475162  1
  O  O166  1  0.38389419  0.36809031  0.38807891  1
  O  O167  1  0.38267120  0.38120618  0.88116780  1
  O  O168  1  0.38564442  0.87984284  0.39168710  1
  O  O169  1  0.38932818  0.87454805  0.86201805  1
  O  O170  1  0.88217813  0.38158979  0.37858888  1
  O  O171  1  0.88383053  0.38485569  0.86858234  1
  O  O172  1  0.86201645  0.89348773  0.39270236  1
  O  O173  1  0.88035998  0.88169794  0.88127429  1
  O  O174  1  0.26184914  0.00889307  0.37921006  1
  O  O175  1  0.24108845  -0.00121034  0.86254681  1
  O  O176  1  0.24943984  0.52010237  0.37191083  1
  O  O177  1  0.25640634  0.50524045  0.86888765  1
  O  O178  1  0.75516393  0.01115969  0.37344033  1
  O  O179  1  0.75855550  -0.00136928  0.86139246  1
  O  O180  1  0.75687267  0.50686866  0.36938462  1
  O  O181  1  0.76124851  0.50323246  0.87590758  1
  O  O182  1  0.24112911  0.51069721  0.12625300  1
  O  O183  1  0.25003394  0.49127004  0.63306222  1
  O  O184  1  0.22821827  1.00341460  0.11923647  1
  O  O185  1  0.23970391  0.99397710  0.63184452  1
  O  O186  1  0.74001293  0.49708901  0.12834070  1
  O  O187  1  0.74048104  0.48798018  0.61337797  1
  O  O188  1  0.76163123  0.99889529  0.14597316  1
  O  O189  1  0.74885559  0.99805801  0.63863547  1
  O  O190  1  -0.00599416  0.36825396  0.26210031  1
  O  O191  1  0.00000389  0.36493922  0.75246604  1
  O  O192  1  -0.04617512  0.85651809  0.25955110  1
  O  O193  1  -0.00619563  0.88264122  0.76264400  1
  O  O194  1  0.50111040  0.37355360  0.25668571  1
  O  O195  1  0.49062916  0.38087467  0.76348370  1
  O  O196  1  0.51926405  0.87291947  0.24728538  1
  O  O197  1  0.49879619  0.87713408  0.75377818  1
  O  O198  1  0.51961259  0.13367285  0.25635003  1
  O  O199  1  0.48135382  0.11320564  0.75430706  1
  O  O200  1  0.49920830  0.63780542  0.24555609  1
  O  O201  1  0.48730348  0.61371188  0.73835406  1
  O  O202  1  0.99380722  0.13940769  0.25086088  1
  O  O203  1  1.00335608  0.14396443  0.73526116  1
  O  O204  1  0.98607891  0.62216530  0.23924993  1
  O  O205  1  0.99399651  0.62361008  0.74319809  1
  O  O206  1  0.38152207  0.25900059  0.01328838  1
  O  O207  1  0.37971720  0.26562919  0.50542185  1
  O  O208  1  0.35874990  0.73905484  -0.00108955  1
  O  O209  1  0.36958484  0.73777884  0.50759101  1
  O  O210  1  0.86798729  0.24398753  0.01386694  1
  O  O211  1  0.86705401  0.25677024  0.50795232  1
  O  O212  1  0.86870553  0.75568193  -0.00016283  1
  O  O213  1  0.87660479  0.76875608  0.49138106  1
  O  O214  1  0.11931369  0.24156444  0.48573547  1
  O  O215  1  0.12187590  0.24343515  0.99523254  1
  O  O216  1  0.13127007  0.73230147  0.49268786  1
  O  O217  1  0.13384284  0.73817742  0.98831985  1
  O  O218  1  0.63755397  0.23673284  0.50644903  1
  O  O219  1  0.62246358  0.25805310  0.98072518  1
  O  O220  1  0.63274805  0.73029488  0.49609698  1
  O  O221  1  0.63385714  0.73821832  1.00542051  1
  O  O222  1  0.48901559  0.25000079  0.13591046  1
  O  O223  1  0.50083815  0.24649165  0.63105911  1
  O  O224  1  0.51241839  0.74247589  0.13123553  1
  O  O225  1  0.50592611  0.73255592  0.62797037  1
  O  O226  1  0.99141622  0.25598992  0.13432587  1
  O  O227  1  0.99282477  0.25052837  0.62814173  1
  O  O228  1  0.98554906  0.73724481  0.11300116  1
  O  O229  1  1.01243620  0.76221195  0.61855078  1
  O  O230  1  0.00401493  0.25775332  0.36954627  1
  O  O231  1  0.00136643  0.26233997  0.86782662  1
  O  O232  1  0.02287961  0.74376724  0.37790576  1
  O  O233  1  0.00714196  0.75987804  0.88146613  1
  O  O234  1  0.49597848  0.25803633  0.35659404  1
  O  O235  1  0.50489012  0.26240397  0.87756918  1
  O  O236  1  0.50492397  0.76467570  0.36919009  1
  O  O237  1  0.50034418  0.75672837  0.86814665  1
  O  O238  1  0.23639459  0.12448688  0.49581418  1
  O  O239  1  0.23485772  0.12543538  0.99569379  1
  O  O240  1  0.24225313  0.61593674  0.49102627  1
  O  O241  1  0.24402556  0.62822451  0.98557265  1
  O  O242  1  0.74438901  0.13352470  0.49580449  1
  O  O243  1  0.71933845  0.12693725  1.03241431  1
  O  O244  1  0.74717477  0.62254176  0.49064123  1
  O  O245  1  0.74289151  0.62825843  0.98918539  1
  O  O246  1  0.26864177  0.37235177  -0.00490848  1
  O  O247  1  0.26328916  0.38326370  0.50536356  1
  O  O248  1  0.24871716  0.85856883  -0.00493334  1
  O  O249  1  0.24699770  0.87948034  0.51210122  1
  O  O250  1  0.74046931  0.37755090  0.01427151  1
  O  O251  1  0.75362349  0.36713807  0.50171501  1
  O  O252  1  0.75665391  0.86387424  -0.01562203  1
  O  O253  1  0.75627890  0.87440020  0.51600978  1
  O  O254  1  0.12288005  0.50640797  0.23582555  1
  O  O255  1  0.13778613  0.50383081  0.74917360  1
  O  O256  1  0.10901168  1.00139416  0.22998811  1
  O  O257  1  0.13423318  1.01116377  0.73934813  1
  O  O258  1  0.62634057  0.49416360  0.24054319  1
  O  O259  1  0.61855063  0.49693603  0.73245750  1
  O  O260  1  0.63654253  0.98603021  0.25426239  1
  O  O261  1  0.64051736  1.01083219  0.74037765  1
  O  O262  1  0.39000685  0.00974496  0.28490131  1
  O  O263  1  0.35565489  0.01072325  0.75170193  1
  O  O264  1  0.39507778  0.52223237  0.25501136  1
  O  O265  1  0.36432897  0.50608955  0.75745093  1
  O  O266  1  0.86083358  0.00218360  0.26713655  1
  O  O267  1  0.86665526  0.00579879  0.76160288  1
  O  O268  1  0.86865905  0.50891469  0.25224043  1
  O  O269  1  0.88122984  0.51241290  0.76536053  1
  O  O270  1  0.11631925  0.36594337  0.38110741  1
  O  O271  1  0.11083909  0.36817005  0.88524484  1
  O  O272  1  0.13531096  0.85893385  0.38142890  1
  O  O273  1  0.11127761  0.86537466  0.88094917  1
  O  O274  1  0.61747630  0.37841776  0.35995957  1
  O  O275  1  0.60539005  0.38544268  0.86976966  1
  O  O276  1  0.61604349  0.87609825  0.38252465  1
  O  O277  1  0.60985790  0.87530797  0.86278812  1
  O  O278  1  0.37775922  0.12456237  0.12011768  1
  O  O279  1  0.37572521  0.12658847  0.63843250  1
  O  O280  1  0.38930361  0.62372054  0.13545631  1
  O  O281  1  0.38652629  0.61601344  0.63030715  1
  O  O282  1  0.87632645  0.13744015  0.13024011  1
  O  O283  1  0.88315739  0.13845152  0.61584847  1
  O  O284  1  0.88075172  0.62613056  0.12601084  1
  O  O285  1  0.87815274  0.61954188  0.63756458  1
  O  O286  1  0.27057579  0.24132594  0.12685624  1
  O  O287  1  0.25115412  0.26433208  0.63008017  1
  O  O288  1  0.24397216  0.74122152  0.10680061  1
  O  O289  1  0.23923908  0.77219410  0.63203113  1
  O  O290  1  0.75618692  0.26219433  0.12664326  1
  O  O291  1  0.75594197  0.25727025  0.61637857  1
  O  O292  1  0.76413726  0.73957889  0.10531024  1
  O  O293  1  0.75132291  0.76383964  0.62544024  1
  O  O294  1  0.23689284  0.23740905  0.37131495  1
  O  O295  1  0.23567804  0.25305691  0.88139280  1
  O  O296  1  0.23798325  0.73213764  0.37643964  1
  O  O297  1  0.24332819  0.74020866  0.87635178  1
  O  O298  1  0.75709570  0.24076335  0.38412293  1
  O  O299  1  0.73960351  0.25164695  0.88109705  1
  O  O300  1  0.75264453  0.73514469  0.37485449  1
  O  O301  1  0.75753371  0.73391597  0.88510410  1
  O  O302  1  0.00497379  0.11648641  -0.00212102  1
  O  O303  1  0.01057096  0.13281307  0.51433527  1
  O  O304  1  0.01013819  0.62731816  0.00405625  1
  O  O305  1  0.00943138  0.61673741  0.50089995  1
  O  O306  1  0.50117875  0.10582611  -0.00146308  1
  O  O307  1  0.51684135  0.13144552  0.49760520  1
  O  O308  1  0.50662530  0.62501299  0.00462750  1
  O  O309  1  0.50880530  0.61572152  0.50325042  1
  O  O310  1  0.49739088  0.37854584  0.48987627  1
  O  O311  1  0.49019250  0.38344814  0.98701248  1
  O  O312  1  0.50842760  0.86538000  0.50366190  1
  O  O313  1  0.49865308  0.87652211  0.97994702  1
  O  O314  1  0.99489976  0.38179527  0.48838856  1
  O  O315  1  0.99058921  0.37024382  0.98908322  1
  O  O316  1  0.98514473  0.88696543  0.50051287  1
  O  O317  1  0.98912361  0.88663569  0.98779841  1
  O  O318  1  0.50515158  0.48875862  0.38350845  1
  O  O319  1  0.48719169  0.50039019  0.87862976  1
  O  O320  1  0.49700093  0.98131204  0.38761932  1
  O  O321  1  0.49585651  0.98684546  0.88336169  1
  O  O322  1  0.99712299  0.49455211  0.38010850  1
  O  O323  1  0.99562480  0.48560648  0.87494824  1
  O  O324  1  0.98268167  1.01013846  0.37354541  1
  O  O325  1  0.98744493  0.99752511  0.87809243  1
  O  O326  1  -0.00217233  0.00372430  0.11011777  1
  O  O327  1  0.00848979  0.01465033  0.63681120  1
  O  O328  1  0.00444727  0.51023150  0.12289253  1
  O  O329  1  0.00215475  0.49127316  0.61001253  1
  O  O330  1  0.49382039  -0.02033769  0.10726656  1
  O  O331  1  0.51749790  0.00183646  0.63357249  1
  O  O332  1  0.51147524  0.51580826  0.11837753  1
  O  O333  1  0.50929863  0.50357902  0.61318284  1
  O  O334  1  0.28500400  0.38009217  0.24751095  1
  O  O335  1  0.25691911  0.38241649  0.73637803  1
  O  O336  1  0.28279020  0.87477233  0.21027694  1
  O  O337  1  0.24654314  0.89048055  0.74210514  1
  O  O338  1  0.73769422  0.38050114  0.24267353  1
  O  O339  1  0.74941381  0.37073442  0.73460393  1
  O  O340  1  0.74264739  0.88455325  0.26001581  1
  O  O341  1  0.76248289  0.88218512  0.73607878  1
  O  O342  1  0.24338741  0.12084029  0.26376619  1
  O  O343  1  0.25493026  0.11465245  0.75285911  1
  O  O344  1  0.26909315  0.62929143  0.25420879  1
  O  O345  1  0.25608603  0.61579580  0.75615465  1
  O  O346  1  0.74273139  0.11506206  0.26089497  1
  O  O347  1  0.75517153  0.11990172  0.74332550  1
  O  O348  1  0.75391025  0.61780991  0.25510890  1
  O  O349  1  0.76260603  0.61812856  0.75908143  1
  O  O350  1  0.35570678  0.13704087  0.37807854  1
  O  O351  1  0.36838211  0.12297946  0.86566944  1
  O  O352  1  0.36876397  0.63333657  0.36370826  1
  O  O353  1  0.36718984  0.61834776  0.86589459  1
  O  O354  1  0.86455417  0.11781964  0.37903779  1
  O  O355  1  0.87383545  0.11368324  0.88185767  1
  O  O356  1  0.87112002  0.62178011  0.36558581  1
  O  O357  1  0.87097113  0.61346363  0.86781535  1
  O  O358  1  0.12556196  0.39492381  0.11611701  1
  O  O359  1  0.14228191  0.37799205  0.61173419  1
  O  O360  1  0.11313289  0.88868008  0.11465872  1
  O  O361  1  0.12803768  0.88758005  0.62243342  1
  O  O362  1  0.62529688  0.38572777  0.13011608  1
  O  O363  1  0.63240123  0.37989956  0.62291859  1
  O  O364  1  0.63463971  0.87008862  0.13403910  1
  O  O365  1  0.64087438  0.89047145  0.63070801  1
  O  O366  1  0.11243493  0.24436170  0.26028764  1
  O  O367  1  0.11774821  0.24898308  0.76322970  1
  O  O368  1  0.12782480  0.74672136  0.25822586  1
  O  O369  1  0.12854439  0.74422131  0.76559565  1
  O  O370  1  0.61187915  0.26120196  0.23521378  1
  O  O371  1  0.62756287  0.25582846  0.76845026  1
  O  O372  1  0.62574348  0.76396728  0.25365865  1
  O  O373  1  0.63198531  0.73193819  0.75736234  1
  O  O374  1  0.38987155  0.23752023  0.23850607  1
  O  O375  1  0.36614387  0.23416947  0.75213683  1
  O  O376  1  0.39484115  0.74419941  0.24855121  1
  O  O377  1  0.36362980  0.73391049  0.73616097  1
  O  O378  1  0.88154826  0.24922205  0.24231663  1
  O  O379  1  0.88152103  0.25596136  0.73637467  1
  O  O380  1  0.85752066  0.73352058  0.23262880  1
  O  O381  1  0.87516741  0.72854664  0.75922679  1
  O  O382  1  0.38954537  0.48670021  0.50384872  1
  O  O383  1  0.37660419  0.49543447  0.98946081  1
  O  O384  1  0.38004704  1.01909627  0.48349174  1
  O  O385  1  0.38526842  0.99788954  0.99274142  1
  O  O386  1  0.88454331  0.49688997  0.49267454  1
  O  O387  1  0.87663053  0.50621079  0.98099060  1
  O  O388  1  0.87087180  0.99762702  0.49223340  1
  O  O389  1  0.87413936  0.99583256  0.98877241  1
  O  O390  1  0.11254835  0.00758302  0.00149210  1
  O  O391  1  0.12407674  0.01142464  0.51267505  1
  O  O392  1  0.13223177  0.51328928  0.00633802  1
  O  O393  1  0.11709757  0.50930183  0.49481901  1
  O  O394  1  0.61017277  -0.01025589  -0.00288320  1
  O  O395  1  0.63563561  0.01305305  0.51863639  1
  O  O396  1  0.61961944  0.51011682  0.00743154  1
  O  O397  1  0.61732780  0.50485825  0.50499643  1
  O  O398  1  0.38688464  0.38513743  0.10705995  1
  O  O399  1  0.36565501  0.37475948  0.61430530  1
  O  O400  1  0.33751154  0.88385385  0.16282597  1
  O  O401  1  0.35699890  0.87908741  0.62839983  1
  O  O402  1  0.86250426  0.36969897  0.13157816  1
  O  O403  1  0.86748029  0.37006651  0.61781736  1
  O  O404  1  0.87925833  0.86608851  0.10428459  1
  O  O405  1  0.86547283  0.88662517  0.61259398  1
  O  O406  1  0.13225409  0.12747654  0.38237537  1
  O  O407  1  0.11874765  0.13755145  0.88348087  1
  O  O408  1  0.13582891  0.62830168  0.38076957  1
  O  O409  1  0.13024299  0.62842477  0.87934674  1
  O  O410  1  0.63427605  0.11349579  0.39332324  1
  O  O411  1  0.62343058  0.13410656  0.87131829  1
  O  O412  1  0.63496932  0.62053000  0.37973245  1
  O  O413  1  0.63483183  0.61115139  0.88527509  1
