# generated using pymatgen
data_V79Zn79O256
_symmetry_space_group_name_H-M   'P 1'
_cell_length_a   16.94750828
_cell_length_b   16.92756472
_cell_length_c   16.90859131
_cell_angle_alpha   90.21291409
_cell_angle_beta   89.98604257
_cell_angle_gamma   90.03620073
_symmetry_Int_Tables_number   1
_chemical_formula_structural   V79Zn79O256
_chemical_formula_sum   'V79 Zn79 O256'
_cell_volume   4850.70280558
_cell_formula_units_Z   1
loop_
 _symmetry_equiv_pos_site_id
 _symmetry_equiv_pos_as_xyz
  1  'x, y, z'
loop_
 _atom_site_type_symbol
 _atom_site_label
 _atom_site_symmetry_multiplicity
 _atom_site_fract_x
 _atom_site_fract_y
 _atom_site_fract_z
 _atom_site_occupancy
  V  V0  1  0.25406210  0.62501419  0.87337468  1
  V  V1  1  0.20473223  0.80606417  0.05870909  1
  V  V2  1  0.49886494  0.86685286  0.86104193  1
  V  V3  1  0.00144117  0.50430079  0.49228516  1
  V  V4  1  0.00296244  0.74322222  0.75094843  1
  V  V5  1  0.37619768  0.88304657  0.49306627  1
  V  V6  1  0.50146678  -0.00406546  -0.00168952  1
  V  V7  1  0.13357550  0.74810276  0.87292746  1
  V  V8  1  0.50294744  0.37306085  0.87502618  1
  V  V9  1  0.37709787  0.12325345  0.24348784  1
  V  V10  1  0.87447670  0.75362620  0.62339806  1
  V  V11  1  0.37492659  0.24728477  0.11932350  1
  V  V12  1  0.87858110  0.38061674  0.49513260  1
  V  V13  1  0.63022018  0.23838880  0.87421777  1
  V  V14  1  0.48761695  0.25008037  0.74376491  1
  V  V15  1  0.62448865  0.62216203  0.00853125  1
  V  V16  1  0.37389375  0.37513300  -0.00731360  1
  V  V17  1  0.75028781  0.62363418  0.37297381  1
  V  V18  1  0.50679156  0.49861015  0.00860679  1
  V  V19  1  0.75447143  0.74802416  0.50346081  1
  V  V20  1  0.74985963  0.75283165  0.00142895  1
  V  V21  1  0.01969767  0.74576450  0.25857156  1
  V  V22  1  0.72577691  0.37637292  0.12971604  1
  V  V23  1  -0.00805910  0.87256893  0.87719475  1
  V  V24  1  0.24456272  0.75193622  0.49912921  1
  V  V25  1  0.38118585  0.87052894  0.00326631  1
  V  V26  1  0.50110371  0.25364234  0.24689315  1
  V  V27  1  0.87365708  0.60988694  0.75232404  1
  V  V28  1  0.72511841  0.49695441  0.24893735  1
  V  V29  1  0.63568781  0.37326127  0.75042901  1
  V  V30  1  0.36195725  0.35818024  0.50755142  1
  V  V31  1  0.39056429  0.74924568  0.63194511  1
  V  V32  1  0.49195740  0.37886006  0.37563711  1
  V  V33  1  0.25308282  0.37740025  0.12013126  1
  V  V34  1  0.12441220  0.62675821  0.48050096  1
  V  V35  1  0.00288817  0.10363481  0.60973425  1
  V  V36  1  0.75615711  0.25854606  0.49974766  1
  V  V37  1  0.12380410  0.61268067  0.00570872  1
  V  V38  1  0.62814747  0.26287934  0.36864234  1
  V  V39  1  0.13390333  0.25352439  0.38172374  1
  V  V40  1  0.00482034  0.88459583  0.37443581  1
  V  V41  1  0.51090657  0.75225559  0.26616120  1
  V  V42  1  0.24231914  0.89420252  0.62029038  1
  V  V43  1  -0.00754078  -0.00317057  0.00181990  1
  V  V44  1  0.87796169  0.25800462  0.12607913  1
  V  V45  1  0.89297413  0.24755471  0.62239431  1
  V  V46  1  -0.00770568  0.38119994  0.88689022  1
  V  V47  1  0.13081988  0.50066864  0.62322439  1
  V  V48  1  0.63357134  0.50095325  0.62975115  1
  V  V49  1  0.24184951  -0.01586661  0.23977449  1
  V  V50  1  0.12719965  0.88966635  0.74512058  1
  V  V51  1  0.39484870  0.51716178  0.85600589  1
  V  V52  1  0.75133652  0.61473505  0.87296862  1
  V  V53  1  0.12476802  0.10179886  0.48778161  1
  V  V54  1  0.74441877  0.87977238  0.14746460  1
  V  V55  1  0.12209535  0.37034168  0.74924081  1
  V  V56  1  0.37989426  -0.00106004  0.37463313  1
  V  V57  1  0.01211331  0.11527414  0.12838391  1
  V  V58  1  0.86883417  0.11374529  0.24874793  1
  V  V59  1  0.37985394  0.75051945  0.13114382  1
  V  V60  1  0.13466628  0.11821109  -0.01157487  1
  V  V61  1  0.62560934  0.11998980  0.00376363  1
  V  V62  1  0.49022492  0.50121048  0.50587331  1
  V  V63  1  0.27204985  0.62596919  0.37286219  1
  V  V64  1  0.00207607  0.37434255  0.36269658  1
  V  V65  1  0.75326912  0.24865716  0.00332329  1
  V  V66  1  0.62167772  -0.00122842  0.14321566  1
  V  V67  1  0.87469110  0.50017037  0.35273881  1
  V  V68  1  0.75527146  0.11994034  0.37342095  1
  V  V69  1  0.86630874  0.74393934  0.14360559  1
  V  V70  1  0.61874687  0.00460663  0.65514995  1
  V  V71  1  0.25495518  0.49729390  0.74545540  1
  V  V72  1  0.26504233  0.50310778  0.25341435  1
  V  V73  1  0.62864804  0.13818246  0.50732292  1
  V  V74  1  0.62010361  0.74813290  0.86194856  1
  V  V75  1  0.49658866  0.62397931  0.13356404  1
  V  V76  1  0.00315949  0.62356205  0.62329501  1
  V  V77  1  0.62445291  0.62374629  0.49999456  1
  V  V78  1  0.48990782  0.13554785  0.61605008  1
  Zn  Zn79  1  0.53525022  -0.01618427  0.48870516  1
  Zn  Zn80  1  0.13306843  0.37229024  0.24564581  1
  Zn  Zn81  1  0.86654512  0.88024461  0.00086275  1
  Zn  Zn82  1  0.13248896  0.25921537  0.88989904  1
  Zn  Zn83  1  0.76220879  0.37769196  0.63531335  1
  Zn  Zn84  1  0.00349402  0.24677087  0.24859610  1
  Zn  Zn85  1  0.25670142  0.12710919  0.37578511  1
  Zn  Zn86  1  0.88857818  0.91018166  0.49638853  1
  Zn  Zn87  1  0.84295197  0.09493988  0.78831544  1
  Zn  Zn88  1  -0.01125364  0.22395064  0.77435152  1
  Zn  Zn89  1  -0.01976106  0.61372844  0.12175938  1
  Zn  Zn90  1  0.12404289  0.49411232  0.12376551  1
  Zn  Zn91  1  0.29521061  0.08078888  0.87665328  1
  Zn  Zn92  1  0.87583286  0.49373667  0.89728885  1
  Zn  Zn93  1  0.56453605  0.89905623  0.34536215  1
  Zn  Zn94  1  0.19301872  0.18987083  0.19250685  1
  Zn  Zn95  1  0.15131917  0.16864789  0.69544261  1
  Zn  Zn96  1  0.19032205  0.68085627  0.19473080  1
  Zn  Zn97  1  0.19772110  0.68908614  0.68564691  1
  Zn  Zn98  1  0.68637402  0.18582156  0.18711587  1
  Zn  Zn99  1  0.69281094  0.16903937  0.69866231  1
  Zn  Zn100  1  0.68409816  0.68750984  0.19280365  1
  Zn  Zn101  1  0.69036060  0.68129355  0.68532790  1
  Zn  Zn102  1  0.31673250  0.31506779  0.31129278  1
  Zn  Zn103  1  0.29889279  0.29858807  0.68189340  1
  Zn  Zn104  1  0.31567926  0.80838280  0.31082967  1
  Zn  Zn105  1  0.32161565  0.91609580  0.80596176  1
  Zn  Zn106  1  0.81566142  0.31253487  0.30423995  1
  Zn  Zn107  1  0.81009874  0.28582277  0.80629224  1
  Zn  Zn108  1  0.81326401  0.81838263  0.32658979  1
  Zn  Zn109  1  0.81162515  0.80250631  0.81275022  1
  Zn  Zn110  1  0.19065405  0.44230097  0.43265263  1
  Zn  Zn111  1  0.19431869  0.44314059  0.92988710  1
  Zn  Zn112  1  0.19193065  0.93005363  0.41538080  1
  Zn  Zn113  1  0.17728266  0.94281482  0.93847941  1
  Zn  Zn114  1  0.68561471  0.44092074  0.43831738  1
  Zn  Zn115  1  0.68987996  0.43168909  0.94217618  1
  Zn  Zn116  1  0.71621858  0.95411540  0.47268856  1
  Zn  Zn117  1  0.67869525  0.93148175  0.93770330  1
  Zn  Zn118  1  0.31431016  0.05649109  0.06350444  1
  Zn  Zn119  1  0.28047973  0.11006146  0.59326629  1
  Zn  Zn120  1  0.31583660  0.56426087  0.05442545  1
  Zn  Zn121  1  0.31382830  0.56906618  0.56556650  1
  Zn  Zn122  1  0.80923011  0.06236515  0.06734077  1
  Zn  Zn123  1  0.81611733  0.02553920  0.62467903  1
  Zn  Zn124  1  0.80192168  0.55943240  0.06778593  1
  Zn  Zn125  1  0.81545452  0.56375970  0.56251637  1
  Zn  Zn126  1  0.43881205  0.43435178  0.18661942  1
  Zn  Zn127  1  0.44092739  0.43101089  0.67988367  1
  Zn  Zn128  1  0.44140958  0.93222268  0.19003265  1
  Zn  Zn129  1  0.44083891  0.93979745  0.66522477  1
  Zn  Zn130  1  0.94773062  0.44345196  0.07308159  1
  Zn  Zn131  1  0.94621019  0.43387720  0.68621891  1
  Zn  Zn132  1  0.93659494  0.92999449  0.19413640  1
  Zn  Zn133  1  0.94120729  0.93174848  0.69435583  1
  Zn  Zn134  1  0.06318128  0.05951002  0.30988394  1
  Zn  Zn135  1  0.03155379  0.06684467  0.81546264  1
  Zn  Zn136  1  0.04154566  0.53839650  0.26857378  1
  Zn  Zn137  1  0.06386790  0.55746448  0.81584622  1
  Zn  Zn138  1  0.56097243  0.07821224  0.31813063  1
  Zn  Zn139  1  0.46632183  0.04971446  0.80270312  1
  Zn  Zn140  1  0.55490143  0.56513860  0.32081490  1
  Zn  Zn141  1  0.56755160  0.56002307  0.81512579  1
  Zn  Zn142  1  0.43606471  0.19027184  0.43305305  1
  Zn  Zn143  1  0.44325319  0.18736192  0.94047082  1
  Zn  Zn144  1  0.43871199  0.69146749  0.45415473  1
  Zn  Zn145  1  0.43806076  0.69092896  0.94122318  1
  Zn  Zn146  1  0.94162426  0.18659959  0.43386446  1
  Zn  Zn147  1  0.94419535  0.19150217  0.94259547  1
  Zn  Zn148  1  0.93466122  0.68633706  0.42996090  1
  Zn  Zn149  1  0.93586273  0.68380393  0.94199865  1
  Zn  Zn150  1  0.06726421  0.30140632  0.06125335  1
  Zn  Zn151  1  0.07003678  0.32001935  0.55383760  1
  Zn  Zn152  1  0.04288750  0.80417878  0.06462905  1
  Zn  Zn153  1  0.06144353  0.81542334  0.55714224  1
  Zn  Zn154  1  0.55876833  0.30621875  0.06084792  1
  Zn  Zn155  1  0.56269857  0.31911329  0.56253611  1
  Zn  Zn156  1  0.56485647  0.81020981  0.06781043  1
  Zn  Zn157  1  0.57620436  0.82518376  0.55122119  1
  O  O158  1  0.11363279  0.12535644  0.12535349  1
  O  O159  1  0.11466663  0.11266849  0.59551742  1
  O  O160  1  0.13722761  0.62343835  0.10908016  1
  O  O161  1  0.12037881  0.61655084  0.61956440  1
  O  O162  1  0.63266264  0.10622783  0.12133988  1
  O  O163  1  0.61168855  0.14344406  0.61968148  1
  O  O164  1  0.61547165  0.62956477  0.11556238  1
  O  O165  1  0.62811700  0.60792435  0.61984906  1
  O  O166  1  0.38546769  0.37075315  0.38759130  1
  O  O167  1  0.39502867  0.38977454  0.87924558  1
  O  O168  1  0.37245912  0.88182190  0.38386322  1
  O  O169  1  0.39259662  0.86291798  0.88838269  1
  O  O170  1  0.88282359  0.38143831  0.37706409  1
  O  O171  1  0.89115045  0.37029787  0.87083790  1
  O  O172  1  0.88890985  0.87133261  0.38509748  1
  O  O173  1  0.88913596  0.85809448  0.87804732  1
  O  O174  1  0.26525956  0.00275380  0.35939846  1
  O  O175  1  0.25070052  -0.01878329  0.86663419  1
  O  O176  1  0.25315881  0.51096272  0.36305439  1
  O  O177  1  0.26719042  0.50691546  0.86324284  1
  O  O178  1  0.74110580  0.02344830  0.37456402  1
  O  O179  1  0.74688770  -0.04294249  0.84140624  1
  O  O180  1  0.75366437  0.49868965  0.36179259  1
  O  O181  1  0.75226523  0.51101014  0.88451958  1
  O  O182  1  0.25564401  0.49354817  0.13097533  1
  O  O183  1  0.23953887  0.50971715  0.63050259  1
  O  O184  1  0.25955166  0.99633882  0.14060596  1
  O  O185  1  0.24930723  0.99306876  0.61591805  1
  O  O186  1  0.74101696  0.48849310  0.13806054  1
  O  O187  1  0.73864272  0.49463682  0.61999010  1
  O  O188  1  0.73962363  0.98652395  0.12799046  1
  O  O189  1  0.71340218  1.04730461  0.67070133  1
  O  O190  1  0.00653263  0.37578487  0.26111172  1
  O  O191  1  0.01439196  0.38467535  0.76305496  1
  O  O192  1  -0.00900384  0.85564339  0.25953484  1
  O  O193  1  0.00816585  0.86144847  0.75621051  1
  O  O194  1  0.49009355  0.36501462  0.26135889  1
  O  O195  1  0.51258556  0.36921401  0.75604078  1
  O  O196  1  0.50425635  0.86134315  0.25947465  1
  O  O197  1  0.49700026  0.87148339  0.76424339  1
  O  O198  1  0.48834212  0.14036681  0.25323703  1
  O  O199  1  0.49424702  0.14342793  0.73045322  1
  O  O200  1  0.50446163  0.62983083  0.24068220  1
  O  O201  1  0.45479446  0.57564664  0.79632758  1
  O  O202  1  0.98919472  0.12220104  0.23980192  1
  O  O203  1  1.03572190  0.13201517  0.71518537  1
  O  O204  1  1.00133564  0.64223975  0.23951676  1
  O  O205  1  0.99471944  0.62860592  0.74792074  1
  O  O206  1  0.38572646  0.26322337  0.00541174  1
  O  O207  1  0.36866607  0.25828974  0.49617498  1
  O  O208  1  0.38240939  0.76002520  0.01417744  1
  O  O209  1  0.36231609  0.76586259  0.49803535  1
  O  O210  1  0.86255223  0.23669298  0.01157745  1
  O  O211  1  0.87494311  0.26259568  0.49933109  1
  O  O212  1  0.86049024  0.74962679  0.00900724  1
  O  O213  1  0.86462528  0.73043149  0.51133653  1
  O  O214  1  0.12687794  0.25082188  0.48417494  1
  O  O215  1  0.13077150  0.22484228  1.00310254  1
  O  O216  1  0.13553236  0.73856884  0.50517815  1
  O  O217  1  0.13531095  0.75058825  0.99563450  1
  O  O218  1  0.63751209  0.25623841  0.49345869  1
  O  O219  1  0.62876595  0.24012964  0.99841349  1
  O  O220  1  0.64125906  0.73263011  0.51429927  1
  O  O221  1  0.63220355  0.73974436  0.99642273  1
  O  O222  1  0.48738727  0.25845265  0.13535468  1
  O  O223  1  0.49979135  0.25222589  0.63506650  1
  O  O224  1  0.49799022  0.74205038  0.13623660  1
  O  O225  1  0.48949866  0.76631184  0.60918514  1
  O  O226  1  0.99342116  0.23281622  0.12367761  1
  O  O227  1  0.99400576  0.25208773  0.60667440  1
  O  O228  1  0.97601219  0.75422338  0.14012076  1
  O  O229  1  0.99671525  0.74127908  0.63327352  1
  O  O230  1  0.00925687  0.26019282  0.37291408  1
  O  O231  1  0.01356731  0.26875274  0.88012020  1
  O  O232  1  -0.00013005  0.74655095  0.36119426  1
  O  O233  1  0.00979128  0.75046178  0.86901328  1
  O  O234  1  0.50830715  0.25927044  0.36792415  1
  O  O235  1  0.51063564  0.25692124  0.86642801  1
  O  O236  1  0.49553829  0.73829968  0.36476840  1
  O  O237  1  0.51255477  0.75051558  0.87705357  1
  O  O238  1  0.22874379  0.11952452  0.48966861  1
  O  O239  1  0.23774728  0.10353936  0.98956870  1
  O  O240  1  0.24485563  0.62860309  0.48684534  1
  O  O241  1  0.23576934  0.61899584  0.98692003  1
  O  O242  1  0.74767299  0.14689098  0.48342783  1
  O  O243  1  0.73889007  0.13541601  1.00832692  1
  O  O244  1  0.74240343  0.62100133  0.49248086  1
  O  O245  1  0.74065484  0.63204152  0.99523064  1
  O  O246  1  0.26602338  0.38581179  0.00288000  1
  O  O247  1  0.26533223  0.38227255  0.49300703  1
  O  O248  1  0.25942824  0.87214822  0.00126679  1
  O  O249  1  0.24849219  0.86858943  0.50039346  1
  O  O250  1  0.74430758  0.36833751  0.02269926  1
  O  O251  1  0.76375715  0.37288097  0.49466295  1
  O  O252  1  0.74727378  0.86375193  0.00387415  1
  O  O253  1  0.75585518  0.84535810  0.49816356  1
  O  O254  1  0.14553326  0.49233858  0.24414820  1
  O  O255  1  0.13299703  0.49596171  0.74247281  1
  O  O256  1  0.14421493  1.00572777  0.25257391  1
  O  O257  1  0.10993559  0.98554316  0.75378047  1
  O  O258  1  0.62742866  0.49309300  0.25763009  1
  O  O259  1  0.61989107  0.49206464  0.73728843  1
  O  O260  1  0.61402854  1.00255486  0.24367565  1
  O  O261  1  0.57868989  1.00995639  0.74552334  1
  O  O262  1  0.37947011  0.00664818  0.25482356  1
  O  O263  1  0.38510256  -0.00985605  0.74731507  1
  O  O264  1  0.36487896  0.50000692  0.24618957  1
  O  O265  1  0.35936633  0.47841022  0.74733561  1
  O  O266  1  0.87171628  0.01515619  0.24444097  1
  O  O267  1  0.86611667  0.00642833  0.72519056  1
  O  O268  1  0.86677020  0.49859007  0.25518793  1
  O  O269  1  0.88057998  0.50909748  0.74895834  1
  O  O270  1  0.12003758  0.36712324  0.37560544  1
  O  O271  1  0.12605929  0.37745261  0.86386642  1
  O  O272  1  0.10618610  0.86833438  0.37507067  1
  O  O273  1  0.11646358  0.86413179  0.86308819  1
  O  O274  1  0.61380225  0.36783078  0.38157672  1
  O  O275  1  0.61851843  0.36935341  0.87141361  1
  O  O276  1  0.61528268  0.89867470  0.44213497  1
  O  O277  1  0.61459009  0.85422754  0.87839271  1
  O  O278  1  0.37164978  0.13677131  0.12845438  1
  O  O279  1  0.39327220  0.12565282  0.60202669  1
  O  O280  1  0.38797722  0.63538661  0.11437757  1
  O  O281  1  0.37692572  0.64805372  0.61217661  1
  O  O282  1  0.87409365  0.13205739  0.13791916  1
  O  O283  1  0.89489067  0.14050532  0.61915477  1
  O  O284  1  0.86293776  0.64179080  0.12510313  1
  O  O285  1  0.88370856  0.62710529  0.63431720  1
  O  O286  1  0.26515340  0.26337159  0.13075592  1
  O  O287  1  0.24914159  0.20171128  0.65360861  1
  O  O288  1  0.26066394  0.74662573  0.12457000  1
  O  O289  1  0.25494749  0.75905677  0.61163024  1
  O  O290  1  0.75348869  0.26194185  0.12541583  1
  O  O291  1  0.77073112  0.25468239  0.60955608  1
  O  O292  1  0.74926687  0.75968459  0.12294360  1
  O  O293  1  0.76186710  0.73736497  0.61645978  1
  O  O294  1  0.23678861  0.24957144  0.36579517  1
  O  O295  1  0.23920324  0.22999482  0.84617261  1
  O  O296  1  0.25681719  0.73417234  0.38090494  1
  O  O297  1  0.23487072  0.73976457  0.86698297  1
  O  O298  1  0.74391949  0.25520700  0.37754669  1
  O  O299  1  0.73939418  0.27045543  0.89934953  1
  O  O300  1  0.75713184  0.73318466  0.38956765  1
  O  O301  1  0.73893574  0.74021653  0.88265628  1
  O  O302  1  0.00408874  0.11621290  0.01532561  1
  O  O303  1  0.00737525  0.12210462  0.50100938  1
  O  O304  1  0.01890464  0.64027412  0.00910406  1
  O  O305  1  0.00776063  0.62222869  0.50121647  1
  O  O306  1  0.51652042  0.11212060  0.00011584  1
  O  O307  1  0.51556309  0.14652481  0.50589462  1
  O  O308  1  0.50808639  0.61751636  0.00714352  1
  O  O309  1  0.50969130  0.60879527  0.49526580  1
  O  O310  1  0.48881577  0.38129549  0.49602535  1
  O  O311  1  0.49703206  0.37980855  0.99580352  1
  O  O312  1  0.47621704  0.88123607  0.50781589  1
  O  O313  1  0.49775900  0.87621889  0.99915944  1
  O  O314  1  0.99517568  0.38502261  0.48584900  1
  O  O315  1  1.00712999  0.37470935  0.99314190  1
  O  O316  1  0.99637559  0.87165388  0.48657330  1
  O  O317  1  0.99421170  0.87868340  0.99506577  1
  O  O318  1  0.50617965  0.48879836  0.39217525  1
  O  O319  1  0.50978217  0.48651170  0.89115999  1
  O  O320  1  0.49355602  1.00386218  0.37860653  1
  O  O321  1  0.51021317  0.97500839  0.88942652  1
  O  O322  1  0.99231357  0.49560333  0.37112483  1
  O  O323  1  0.99854320  0.48724774  0.87850254  1
  O  O324  1  0.99659918  0.98454511  0.36117530  1
  O  O325  1  1.00057472  0.98074566  0.88613170  1
  O  O326  1  -0.00626770  0.00952660  0.12296680  1
  O  O327  1  -0.00799863  0.00586184  0.61499180  1
  O  O328  1  0.01059351  0.50567319  0.14661278  1
  O  O329  1  0.00811589  0.50687874  0.61440174  1
  O  O330  1  0.51811678  -0.01198085  0.11644893  1
  O  O331  1  0.51000016  0.02238930  0.60751849  1
  O  O332  1  0.49456052  0.50677874  0.11627794  1
  O  O333  1  0.51435036  0.49032879  0.61188320  1
  O  O334  1  0.25771179  0.38676943  0.24034800  1
  O  O335  1  0.23159039  0.38265810  0.73923433  1
  O  O336  1  0.25300727  0.88406686  0.25468782  1
  O  O337  1  0.23227155  0.87573080  0.73710059  1
  O  O338  1  0.74926791  0.38415719  0.23950820  1
  O  O339  1  0.73950361  0.36800612  0.75357971  1
  O  O340  1  0.74533217  0.87170507  0.24624146  1
  O  O341  1  0.74484144  0.90163205  0.78636806  1
  O  O342  1  0.26621388  0.11942020  0.25113619  1
  O  O343  1  0.23432247  0.16154315  0.80736005  1
  O  O344  1  0.25551021  0.61690265  0.26228089  1
  O  O345  1  0.24383129  0.61255830  0.76131654  1
  O  O346  1  0.75932230  0.13336686  0.26077268  1
  O  O347  1  0.76982563  0.17785743  0.77784816  1
  O  O348  1  0.73746363  0.60702119  0.25773968  1
  O  O349  1  0.76100790  0.62811796  0.76239384  1
  O  O350  1  0.37660913  0.11783631  0.36576496  1
  O  O351  1  0.39962176  0.11360557  0.87257826  1
  O  O352  1  0.36923248  0.62142279  0.38417317  1
  O  O353  1  0.35911461  0.62295743  0.89525137  1
  O  O354  1  0.86500504  0.13231490  0.36338535  1
  O  O355  1  0.93476588  0.13424648  0.84415772  1
  O  O356  1  0.86021421  0.61023537  0.37934303  1
  O  O357  1  0.86806181  0.62323070  0.86947689  1
  O  O358  1  0.14276491  0.37096610  0.11888280  1
  O  O359  1  0.11426974  0.39128173  0.63285785  1
  O  O360  1  0.13862102  0.85848665  0.11081538  1
  O  O361  1  0.12557241  0.87195469  0.63747596  1
  O  O362  1  0.62765612  0.36954544  0.13105910  1
  O  O363  1  0.63205514  0.38211291  0.63279152  1
  O  O364  1  0.63634316  0.88346507  0.12653005  1
  O  O365  1  0.62332839  0.90742269  0.62334243  1
  O  O366  1  0.12170447  0.25363327  0.25902381  1
  O  O367  1  0.11363392  0.26897944  0.74465632  1
  O  O368  1  0.11837865  0.75128446  0.24666952  1
  O  O369  1  0.11472788  0.74628147  0.75464480  1
  O  O370  1  0.61459018  0.24435048  0.25756035  1
  O  O371  1  0.61884133  0.25765008  0.75920929  1
  O  O372  1  0.61154181  0.74658053  0.25690082  1
  O  O373  1  0.62874978  0.73995416  0.76293508  1
  O  O374  1  0.38125771  0.24348475  0.24240095  1
  O  O375  1  0.39151267  0.26737535  0.75375252  1
  O  O376  1  0.38815259  0.75319241  0.23860476  1
  O  O377  1  0.37657727  0.76320433  0.72753670  1
  O  O378  1  0.88161502  0.24123091  0.24171170  1
  O  O379  1  0.89349953  0.27023043  0.72428733  1
  O  O380  1  0.85686473  0.74719609  0.24276278  1
  O  O381  1  0.88449049  0.73991584  0.74411469  1
  O  O382  1  0.38859597  0.49561439  0.51076879  1
  O  O383  1  0.39074372  0.49546776  0.98714671  1
  O  O384  1  0.36522038  0.98922704  0.48571432  1
  O  O385  1  0.39135737  0.98602226  1.01044920  1
  O  O386  1  0.88146632  0.49334429  0.49224449  1
  O  O387  1  0.88035634  0.50721224  1.00991904  1
  O  O388  1  0.81689299  0.99060031  0.52055473  1
  O  O389  1  0.88473268  0.99965365  1.00526255  1
  O  O390  1  0.10689393  0.00807522  0.00335433  1
  O  O391  1  0.12132042  0.00459170  0.47428810  1
  O  O392  1  0.12392446  0.51001852  -0.00135992  1
  O  O393  1  0.12174907  0.50774874  0.50364492  1
  O  O394  1  0.62304926  0.00433884  0.00513328  1
  O  O395  1  0.63924017  0.03422476  0.51801319  1
  O  O396  1  0.61834698  0.50954273  -0.00181384  1
  O  O397  1  0.61934876  0.50272501  0.51140872  1
  O  O398  1  0.37120727  0.37091360  0.11215159  1
  O  O399  1  0.36934666  0.36652836  0.61424217  1
  O  O400  1  0.38347258  0.86323594  0.11728598  1
  O  O401  1  0.36004049  0.87324486  0.60828870  1
  O  O402  1  0.88166435  0.35855814  0.12448498  1
  O  O403  1  0.88100626  0.37314168  0.60907152  1
  O  O404  1  0.85644793  0.86606863  0.12707628  1
  O  O405  1  0.88479939  0.85483835  0.62267424  1
  O  O406  1  0.11741373  0.13956021  0.37860444  1
  O  O407  1  0.11214501  0.12045858  0.88914666  1
  O  O408  1  0.12971384  0.61899320  0.38247091  1
  O  O409  1  0.12869332  0.62919550  0.88552470  1
  O  O410  1  0.63480443  0.14282714  0.38275532  1
  O  O411  1  0.62766260  0.13768042  0.88577339  1
  O  O412  1  0.63646103  0.61430704  0.38907860  1
  O  O413  1  0.63054028  0.63141293  0.88251890  1
