# generated using pymatgen
data_V79Zn79O256
_symmetry_space_group_name_H-M   'P 1'
_cell_length_a   16.87167491
_cell_length_b   16.85331160
_cell_length_c   16.87751913
_cell_angle_alpha   89.92600350
_cell_angle_beta   90.01374220
_cell_angle_gamma   89.95096648
_symmetry_Int_Tables_number   1
_chemical_formula_structural   V79Zn79O256
_chemical_formula_sum   'V79 Zn79 O256'
_cell_volume   4799.00855757
_cell_formula_units_Z   1
loop_
 _symmetry_equiv_pos_site_id
 _symmetry_equiv_pos_as_xyz
  1  'x, y, z'
loop_
 _atom_site_type_symbol
 _atom_site_label
 _atom_site_symmetry_multiplicity
 _atom_site_fract_x
 _atom_site_fract_y
 _atom_site_fract_z
 _atom_site_occupancy
  V  V0  1  0.12038497  0.62268637  0.00297374  1
  V  V1  1  0.51150909  0.74831363  0.74773797  1
  V  V2  1  0.37509230  0.24801719  0.62651520  1
  V  V3  1  0.11308476  0.37119345  0.24896201  1
  V  V4  1  -0.00553690  -0.01278854  0.49017051  1
  V  V5  1  0.37269832  -0.00571369  0.37834703  1
  V  V6  1  0.11779151  0.50033970  0.62593894  1
  V  V7  1  0.63361800  0.49593857  0.63891744  1
  V  V8  1  0.75062797  0.11808038  0.37725098  1
  V  V9  1  0.00148762  0.10851513  0.11319501  1
  V  V10  1  0.62614429  0.25128124  0.37629100  1
  V  V11  1  0.01172751  0.25852724  0.75261370  1
  V  V12  1  0.50620210  0.62382943  0.13291176  1
  V  V13  1  0.37252782  0.25116620  0.12031665  1
  V  V14  1  0.11954843  0.12463563  0.50230733  1
  V  V15  1  0.23738529  -0.00476884  0.24596813  1
  V  V16  1  0.75218729  0.25401821  0.00295272  1
  V  V17  1  0.37503320  0.63164226  0.74506400  1
  V  V18  1  -0.01220173  0.49702238  -0.00072092  1
  V  V19  1  0.88359342  0.12316433  0.25232898  1
  V  V20  1  0.75131808  0.25456859  0.49884141  1
  V  V21  1  0.63304516  0.61902670  0.49454510  1
  V  V22  1  0.24738002  0.37819508  0.62392106  1
  V  V23  1  0.11410186  0.62640914  0.49170675  1
  V  V24  1  0.88145926  0.25829234  0.12536834  1
  V  V25  1  0.74526080  0.38573403  0.12696521  1
  V  V26  1  0.50130322  0.37999829  0.86955104  1
  V  V27  1  0.74345597  0.75511930  -0.01047884  1
  V  V28  1  0.50639786  0.12019184  0.12508119  1
  V  V29  1  0.00347547  0.86105216  0.35896838  1
  V  V30  1  0.61964797  0.62982670  -0.01386435  1
  V  V31  1  -0.00471621  0.38072361  0.38317648  1
  V  V32  1  0.50363835  -0.00187952  0.49949828  1
  V  V33  1  0.75400361  0.75964428  0.50135040  1
  V  V34  1  0.23710039  0.87670549  0.12692447  1
  V  V35  1  0.87228889  0.76790761  0.63280954  1
  V  V36  1  0.25496807  0.00583424  0.74944291  1
  V  V37  1  0.11956010  0.74989526  0.87265745  1
  V  V38  1  0.25290977  0.49968067  0.74898665  1
  V  V39  1  0.88737571  0.12403478  0.75410912  1
  V  V40  1  0.37454975  0.38035963  -0.00402679  1
  V  V41  1  0.37534371  0.00678668  0.86949069  1
  V  V42  1  0.87978374  0.87843435  0.00627919  1
  V  V43  1  0.25048346  0.75109644  0.00080117  1
  V  V44  1  0.86610242  0.50725607  0.37020986  1
  V  V45  1  0.00011985  0.88300554  0.87701417  1
  V  V46  1  0.14174372  0.12191898  0.00080916  1
  V  V47  1  0.62463841  0.38946860  0.24854307  1
  V  V48  1  0.74339145  -0.00120908  0.23771959  1
  V  V49  1  0.38845926  0.37811256  0.49567500  1
  V  V50  1  -0.01032629  0.62783073  0.64203967  1
  V  V51  1  0.50242245  0.50112748  0.00041006  1
  V  V52  1  0.11929047  0.00336375  0.62522816  1
  V  V53  1  0.25434064  0.86306489  0.62405665  1
  V  V54  1  0.50477774  -0.00110917  0.00151374  1
  V  V55  1  0.50083151  0.25447499  0.25561072  1
  V  V56  1  0.49750895  0.62197121  0.61522020  1
  V  V57  1  0.50171321  0.12440503  0.62061928  1
  V  V58  1  0.37011970  0.62515340  0.25475814  1
  V  V59  1  0.87953995  0.25047237  0.62578355  1
  V  V60  1  0.37283676  0.12428559  0.25254101  1
  V  V61  1  0.11911472  0.24890149  0.37120184  1
  V  V62  1  0.50406448  0.86926741  0.87259201  1
  V  V63  1  0.12113771  0.87146577  0.75063037  1
  V  V64  1  0.24925715  0.37237844  0.12079302  1
  V  V65  1  0.25609985  0.61925623  0.87465636  1
  V  V66  1  0.75117252  0.62972672  0.36013300  1
  V  V67  1  0.74959696  0.11881084  0.87165441  1
  V  V68  1  0.37665411  0.75042383  0.13029078  1
  V  V69  1  0.76496036  0.61439791  0.86447284  1
  V  V70  1  0.39780891  0.49420173  0.37550063  1
  V  V71  1  0.00275613  0.73171927  0.24074460  1
  V  V72  1  0.50174144  0.24744190  0.74854275  1
  V  V73  1  0.24770910  0.49980310  0.26036432  1
  V  V74  1  -0.00325431  0.38062791  0.87867105  1
  V  V75  1  0.24520474  0.74212571  0.48358691  1
  V  V76  1  0.12003811  0.50283344  0.12357199  1
  V  V77  1  0.63352225  0.89116865  0.73594625  1
  V  V78  1  0.62733804  0.25654969  0.86809968  1
  Zn  Zn79  1  0.74226896  0.87252980  0.12646311  1
  Zn  Zn80  1  0.87831859  0.38153348  0.50560020  1
  Zn  Zn81  1  0.26007567  0.14010086  0.87083821  1
  Zn  Zn82  1  0.60763910  0.86460264  0.24099413  1
  Zn  Zn83  1  0.74694124  0.37529409  0.63546286  1
  Zn  Zn84  1  0.49883458  0.85756899  0.36735618  1
  Zn  Zn85  1  0.62995008  0.12121833  0.00510989  1
  Zn  Zn86  1  0.24593548  0.12489227  0.37507280  1
  Zn  Zn87  1  0.87315081  0.73144432  0.12890868  1
  Zn  Zn88  1  0.38055706  0.86016578  0.50396198  1
  Zn  Zn89  1  0.66824756  0.06254588  0.54922114  1
  Zn  Zn90  1  0.13891432  0.25989941  0.88677308  1
  Zn  Zn91  1  0.25069364  0.24909816  0.49761682  1
  Zn  Zn92  1  0.87660270  -0.00076861  0.87459613  1
  Zn  Zn93  1  0.37484984  0.87559494  -0.00160967  1
  Zn  Zn94  1  0.18314935  0.18593094  0.18505867  1
  Zn  Zn95  1  0.18976530  0.18794700  0.68489539  1
  Zn  Zn96  1  0.18636931  0.68836589  0.19253229  1
  Zn  Zn97  1  0.18047637  0.68219575  0.68644981  1
  Zn  Zn98  1  0.68969926  0.18867402  0.19210454  1
  Zn  Zn99  1  0.70498052  0.15936258  0.67560991  1
  Zn  Zn100  1  0.69215302  0.68934925  0.17556590  1
  Zn  Zn101  1  0.69110442  0.68727891  0.68467192  1
  Zn  Zn102  1  0.30719090  0.31516562  0.31291332  1
  Zn  Zn103  1  0.31687643  0.31652821  0.80847594  1
  Zn  Zn104  1  0.31083990  0.81422458  0.31221469  1
  Zn  Zn105  1  0.31525398  0.81352472  0.81069305  1
  Zn  Zn106  1  0.81350221  0.31264153  0.30542418  1
  Zn  Zn107  1  0.82195264  0.31046789  0.82084593  1
  Zn  Zn108  1  0.82710601  0.81464630  0.31608099  1
  Zn  Zn109  1  0.81030615  0.81100842  0.81206814  1
  Zn  Zn110  1  0.18404984  0.43717880  0.44470718  1
  Zn  Zn111  1  0.18437367  0.43487101  0.93438950  1
  Zn  Zn112  1  0.18163158  0.93189150  0.43537792  1
  Zn  Zn113  1  0.18714022  0.94231448  0.93957708  1
  Zn  Zn114  1  0.68362022  0.44007184  0.43306009  1
  Zn  Zn115  1  0.68515688  0.43966263  0.94088734  1
  Zn  Zn116  1  0.68551961  0.92698942  0.41863198  1
  Zn  Zn117  1  0.68394735  0.93603047  0.92891289  1
  Zn  Zn118  1  0.31794663  0.05865552  0.06273314  1
  Zn  Zn119  1  0.30891352  0.06076895  0.56255072  1
  Zn  Zn120  1  0.31163885  0.56069045  0.06593327  1
  Zn  Zn121  1  0.31034342  0.56200572  0.55556534  1
  Zn  Zn122  1  0.81784974  0.06558804  0.06047703  1
  Zn  Zn123  1  0.83151743  0.04820105  0.58140668  1
  Zn  Zn124  1  0.80201982  0.56206354  0.04901946  1
  Zn  Zn125  1  0.81553679  0.55940368  0.55702730  1
  Zn  Zn126  1  0.43974553  0.44004585  0.18743373  1
  Zn  Zn127  1  0.43822075  0.44126731  0.68478592  1
  Zn  Zn128  1  0.43167329  0.93637982  0.18627459  1
  Zn  Zn129  1  0.44020993  0.93601339  0.68566760  1
  Zn  Zn130  1  0.92499084  0.55585770  0.18625174  1
  Zn  Zn131  1  0.93375182  0.43567576  0.69071888  1
  Zn  Zn132  1  0.93280123  0.93513697  0.19372483  1
  Zn  Zn133  1  0.94089042  0.93726280  0.68963865  1
  Zn  Zn134  1  0.05829894  0.06145251  0.31428468  1
  Zn  Zn135  1  0.07198623  0.06537099  0.81972415  1
  Zn  Zn136  1  0.06192884  0.55850831  0.31443966  1
  Zn  Zn137  1  0.06577890  0.55975628  0.81314792  1
  Zn  Zn138  1  0.56321806  0.06064817  0.31573582  1
  Zn  Zn139  1  0.56047566  0.06430139  0.81113771  1
  Zn  Zn140  1  0.56796185  0.69857970  0.31897508  1
  Zn  Zn141  1  0.56173616  0.55955262  0.81000602  1
  Zn  Zn142  1  0.43648480  0.18661185  0.43986873  1
  Zn  Zn143  1  0.43887043  0.18914435  0.93823669  1
  Zn  Zn144  1  0.42569841  0.68051114  0.44391366  1
  Zn  Zn145  1  0.43626242  0.68790290  0.93565594  1
  Zn  Zn146  1  0.93974705  0.18585937  0.43781887  1
  Zn  Zn147  1  0.94057125  0.19346594  0.93907044  1
  Zn  Zn148  1  0.93577196  0.69233282  0.43965020  1
  Zn  Zn149  1  0.93381252  0.68868146  0.93718712  1
  Zn  Zn150  1  0.06375233  0.31017343  0.05996063  1
  Zn  Zn151  1  0.06446832  0.31066963  0.56367559  1
  Zn  Zn152  1  0.05785887  0.81058043  0.06545220  1
  Zn  Zn153  1  0.06084549  0.80766272  0.56422584  1
  Zn  Zn154  1  0.56470372  0.30903880  0.06183444  1
  Zn  Zn155  1  0.56774041  0.31274131  0.56315362  1
  Zn  Zn156  1  0.56348993  0.81473778  0.06688525  1
  Zn  Zn157  1  0.56774960  0.80864286  0.55989750  1
  O  O158  1  0.10926038  0.13058781  0.11676008  1
  O  O159  1  0.12944912  0.11467683  0.61664588  1
  O  O160  1  0.13442598  0.61462248  0.11339514  1
  O  O161  1  0.11003506  0.61934147  0.62155581  1
  O  O162  1  0.60984512  0.13061266  0.12688512  1
  O  O163  1  0.60509456  0.13868584  0.61721001  1
  O  O164  1  0.60846455  0.63093644  0.11320719  1
  O  O165  1  0.62087778  0.61483938  0.61717373  1
  O  O166  1  0.37226589  0.38541104  0.37934143  1
  O  O167  1  0.38736131  0.36928486  0.88784933  1
  O  O168  1  0.37526022  0.88387410  0.38050006  1
  O  O169  1  0.38460669  0.88353439  0.87441017  1
  O  O170  1  0.88675220  0.37319548  0.37295133  1
  O  O171  1  0.89601072  0.36889605  0.88583695  1
  O  O172  1  0.90112624  0.87458957  0.37983315  1
  O  O173  1  0.88541616  0.87526161  0.87788513  1
  O  O174  1  0.25499856  -0.00255862  0.36322085  1
  O  O175  1  0.26010215  -0.00297484  0.86540766  1
  O  O176  1  0.24273248  0.49403313  0.36107219  1
  O  O177  1  0.24266871  0.51027386  0.86491424  1
  O  O178  1  0.75063575  0.01532525  0.37219583  1
  O  O179  1  0.75047307  0.01651157  0.87480318  1
  O  O180  1  0.75678071  0.51208183  0.37260548  1
  O  O181  1  0.74646373  0.51581616  0.88721051  1
  O  O182  1  0.24189288  0.49069431  0.13278661  1
  O  O183  1  0.24443341  0.49703079  0.62971711  1
  O  O184  1  0.25878156  0.99148767  0.13791763  1
  O  O185  1  0.24060312  0.98922514  0.63019777  1
  O  O186  1  0.74832398  0.48413421  0.11657225  1
  O  O187  1  0.73764088  0.49982148  0.61985041  1
  O  O188  1  0.75096514  1.00504367  0.13447519  1
  O  O189  1  0.73748833  1.05084262  0.63465844  1
  O  O190  1  0.01307226  0.37599613  0.26125127  1
  O  O191  1  -0.00125660  0.36839276  0.76302857  1
  O  O192  1  0.00358806  0.86970623  0.25413173  1
  O  O193  1  0.01385083  0.87641156  0.75905987  1
  O  O194  1  0.51085822  0.36401125  0.24045455  1
  O  O195  1  0.49420343  0.36866994  0.76128183  1
  O  O196  1  0.49147583  0.87208496  0.25165429  1
  O  O197  1  0.50500937  0.86618076  0.75145676  1
  O  O198  1  0.49044047  0.12945988  0.24509734  1
  O  O199  1  0.50104348  0.13881223  0.74091217  1
  O  O200  1  0.49099277  0.62626953  0.23592485  1
  O  O201  1  0.49350111  0.63035469  0.74472022  1
  O  O202  1  0.98844394  0.12246125  0.24176404  1
  O  O203  1  0.99313986  0.14044427  0.76597719  1
  O  O204  1  0.99814694  0.62529272  0.24724428  1
  O  O205  1  1.00301029  0.62633657  0.74209805  1
  O  O206  1  0.38369644  0.26165907  0.01341324  1
  O  O207  1  0.37269518  0.25922685  0.50622294  1
  O  O208  1  0.36176947  0.74620993  0.00784796  1
  O  O209  1  0.35133996  0.74592460  0.50255121  1
  O  O210  1  0.86388041  0.24601177  0.01241205  1
  O  O211  1  0.87088987  0.24616391  0.51031692  1
  O  O212  1  0.86486281  0.76280650  -0.00279464  1
  O  O213  1  0.86237230  0.74377151  0.51292288  1
  O  O214  1  0.12560746  0.24110616  0.49398752  1
  O  O215  1  0.11739093  0.23164627  1.00020892  1
  O  O216  1  0.13295563  0.73715692  0.50709515  1
  O  O217  1  0.13306925  0.74188569  0.99558133  1
  O  O218  1  0.63440514  0.25487641  0.48723928  1
  O  O219  1  0.63140422  0.24315557  0.98910300  1
  O  O220  1  0.64153978  0.73417923  0.50839440  1
  O  O221  1  0.63538116  0.74627789  0.99960577  1
  O  O222  1  0.49125788  0.24229912  0.13439006  1
  O  O223  1  0.49389081  0.24797865  0.62917907  1
  O  O224  1  0.48466784  0.73663623  0.11298025  1
  O  O225  1  0.50629132  0.73183807  0.63223776  1
  O  O226  1  0.98379705  0.25047110  0.12104295  1
  O  O227  1  0.99379844  0.26061331  0.64115496  1
  O  O228  1  0.99521625  0.74706013  0.13371405  1
  O  O229  1  0.98447250  0.73882531  0.62265468  1
  O  O230  1  0.01091507  0.25937617  0.37651970  1
  O  O231  1  0.00404651  0.25993559  0.86685007  1
  O  O232  1  -0.00336111  0.75132380  0.36026494  1
  O  O233  1  0.01486950  0.75857504  0.88395488  1
  O  O234  1  0.50891754  0.24105086  0.36468831  1
  O  O235  1  0.50670148  0.25535160  0.86809837  1
  O  O236  1  0.49409010  0.74524499  0.38629734  1
  O  O237  1  0.49150671  0.75916247  0.86394520  1
  O  O238  1  0.23623344  0.12428914  0.49615225  1
  O  O239  1  0.24508254  0.12794816  1.00667592  1
  O  O240  1  0.23733673  0.63655735  0.50623032  1
  O  O241  1  0.24432896  0.62917547  0.99348928  1
  O  O242  1  0.75292600  0.13428304  0.48398867  1
  O  O243  1  0.75132017  0.13300822  0.98769973  1
  O  O244  1  0.74192326  0.62887923  0.49399346  1
  O  O245  1  0.73736169  0.63522329  0.98896593  1
  O  O246  1  0.25929278  0.38424314  0.01138616  1
  O  O247  1  0.25933606  0.37583765  0.51116721  1
  O  O248  1  0.25010051  0.86495533  0.00481534  1
  O  O249  1  0.24162427  0.86162231  0.51250681  1
  O  O250  1  0.73891215  0.36395328  0.01422179  1
  O  O251  1  0.75368386  0.36157826  0.49523129  1
  O  O252  1  0.75447269  0.86514180  -0.01052577  1
  O  O253  1  0.74405285  0.85877685  0.49048598  1
  O  O254  1  0.12884227  0.49368962  0.24097027  1
  O  O255  1  0.14049905  0.50799661  0.73813992  1
  O  O256  1  0.13944185  1.00766044  0.25030127  1
  O  O257  1  0.13209641  0.99215576  0.74526741  1
  O  O258  1  0.62007975  0.48486134  0.24995998  1
  O  O259  1  0.62918910  0.50160130  0.73901452  1
  O  O260  1  0.64191470  1.00464398  0.25303429  1
  O  O261  1  0.61608737  0.99163777  0.74492563  1
  O  O262  1  0.36896729  0.00966328  0.25913275  1
  O  O263  1  0.36707965  -0.00613086  0.75639444  1
  O  O264  1  0.36910163  0.50125278  0.25946591  1
  O  O265  1  0.36390615  0.51520019  0.74340718  1
  O  O266  1  0.86567966  0.01823971  0.24561232  1
  O  O267  1  0.88692414  0.01942307  0.75210020  1
  O  O268  1  0.87861393  0.49447986  0.26985383  1
  O  O269  1  0.83523753  0.46177925  0.75385876  1
  O  O270  1  0.11593413  0.37113433  0.37127050  1
  O  O271  1  0.11026674  0.37195125  0.87874028  1
  O  O272  1  0.10572907  0.87189349  0.38025808  1
  O  O273  1  0.12165287  0.86943913  0.87117596  1
  O  O274  1  0.63307540  0.36468758  0.35916319  1
  O  O275  1  0.61351408  0.36711336  0.88297600  1
  O  O276  1  0.61318952  0.87368745  0.35600723  1
  O  O277  1  0.60825992  0.87968186  0.86226583  1
  O  O278  1  0.38080189  0.13349282  0.13368079  1
  O  O279  1  0.38154300  0.13953016  0.61652722  1
  O  O280  1  0.37954877  0.62985720  0.13318064  1
  O  O281  1  0.39052847  0.61734172  0.62623771  1
  O  O282  1  0.88557851  0.13239036  0.13056951  1
  O  O283  1  0.88080428  0.13849952  0.64526392  1
  O  O284  1  0.87218389  0.61906634  0.11297299  1
  O  O285  1  0.88939856  0.61460954  0.62585332  1
  O  O286  1  0.26060460  0.26093788  0.13322261  1
  O  O287  1  0.25840756  0.26027070  0.62631103  1
  O  O288  1  0.25415123  0.75432265  0.11856194  1
  O  O289  1  0.24473930  0.76185383  0.63021425  1
  O  O290  1  0.75410011  0.24637077  0.11527705  1
  O  O291  1  0.75762028  0.24999717  0.61664463  1
  O  O292  1  0.75650941  0.75141587  0.10393454  1
  O  O293  1  0.76151478  0.74654205  0.61397936  1
  O  O294  1  0.23604729  0.25024209  0.37718818  1
  O  O295  1  0.25095831  0.25241278  0.86802214  1
  O  O296  1  0.24428808  0.75227124  0.38436383  1
  O  O297  1  0.24352903  0.74441232  0.88369239  1
  O  O298  1  0.74583910  0.24418958  0.37801367  1
  O  O299  1  0.74510639  0.25104258  0.88411924  1
  O  O300  1  0.76393354  0.73599788  0.38691175  1
  O  O301  1  0.75321481  0.73832461  0.88590368  1
  O  O302  1  -0.00462959  0.12074716  0.01085745  1
  O  O303  1  0.01329242  0.11328391  0.49308138  1
  O  O304  1  0.01331287  0.61287147  -0.01133895  1
  O  O305  1  0.01055458  0.63039626  0.50945805  1
  O  O306  1  0.50041312  0.11828178  0.00834638  1
  O  O307  1  0.49587554  0.11103037  0.50477458  1
  O  O308  1  0.50038836  0.61973702  0.00371285  1
  O  O309  1  0.51151985  0.62782945  0.51102789  1
  O  O310  1  0.48785781  0.37236015  0.50242778  1
  O  O311  1  0.49528795  0.38238067  0.99743659  1
  O  O312  1  0.49565690  0.88698341  0.50381119  1
  O  O313  1  0.49827639  0.88008983  0.99097452  1
  O  O314  1  1.00002459  0.37075879  0.48714002  1
  O  O315  1  1.00575237  0.38914204  0.99484725  1
  O  O316  1  1.00399450  0.88468824  0.50063348  1
  O  O317  1  0.98646756  0.87076866  0.99464259  1
  O  O318  1  0.49305941  0.49341459  0.37207274  1
  O  O319  1  0.50254263  0.48988216  0.88366274  1
  O  O320  1  0.48712341  1.00564791  0.38609713  1
  O  O321  1  0.49190939  0.99479985  0.87926310  1
  O  O322  1  0.99334237  0.48582211  0.37619298  1
  O  O323  1  1.00485079  0.49194701  0.88469859  1
  O  O324  1  1.00323509  0.99114287  0.38541386  1
  O  O325  1  1.00322488  0.98690535  0.87425083  1
  O  O326  1  -0.00517560  0.01009043  0.12631521  1
  O  O327  1  0.01456023  -0.00646835  0.61762283  1
  O  O328  1  0.01181425  0.50007968  0.11222899  1
  O  O329  1  0.00817142  0.50606449  0.63612639  1
  O  O330  1  0.48641076  0.00976894  0.11355020  1
  O  O331  1  0.49070574  0.00947764  0.61022938  1
  O  O332  1  0.49359365  0.51571668  0.11709484  1
  O  O333  1  0.51358555  0.51352196  0.63065139  1
  O  O334  1  0.24199915  0.38257506  0.23939496  1
  O  O335  1  0.26194891  0.38858049  0.73529219  1
  O  O336  1  0.25158161  0.88713352  0.24312176  1
  O  O337  1  0.24238607  0.88129180  0.74205730  1
  O  O338  1  0.73775744  0.37063350  0.23745332  1
  O  O339  1  0.78159937  0.40111428  0.75369164  1
  O  O340  1  0.76349594  0.89525245  0.25215774  1
  O  O341  1  0.73095405  0.87600694  0.76157439  1
  O  O342  1  0.25814984  0.11476332  0.24586461  1
  O  O343  1  0.24591615  0.10917019  0.74853485  1
  O  O344  1  0.26031818  0.61282122  0.24224352  1
  O  O345  1  0.25584361  0.62230013  0.75475942  1
  O  O346  1  0.75806611  0.11815027  0.25679637  1
  O  O347  1  0.77004222  0.14146299  0.76891141  1
  O  O348  1  0.74833630  0.63134148  0.26167596  1
  O  O349  1  0.74251570  0.62838864  0.76692324  1
  O  O350  1  0.36957701  0.11981870  0.36596470  1
  O  O351  1  0.37597078  0.11291742  0.87781584  1
  O  O352  1  0.37919381  0.60770999  0.36405560  1
  O  O353  1  0.36246348  0.62919668  0.86576309  1
  O  O354  1  0.86595835  0.13653891  0.36001386  1
  O  O355  1  0.86886049  0.12643659  0.87146240  1
  O  O356  1  0.86595605  0.61490780  0.37860924  1
  O  O357  1  0.86568530  0.62347010  0.87511972  1
  O  O358  1  0.13054435  0.38020787  0.12944526  1
  O  O359  1  0.13661021  0.38515306  0.61743790  1
  O  O360  1  0.13783929  0.87323224  0.11811849  1
  O  O361  1  0.13143584  0.87906920  0.63438825  1
  O  O362  1  0.63380832  0.36776459  0.13519340  1
  O  O363  1  0.62759288  0.38949128  0.62257183  1
  O  O364  1  0.62883293  0.87901616  0.13013089  1
  O  O365  1  0.62403469  0.87373079  0.63634941  1
  O  O366  1  0.13058273  0.25909497  0.25823521  1
  O  O367  1  0.11213830  0.24621277  0.74717136  1
  O  O368  1  0.10574253  0.74315222  0.24613208  1
  O  O369  1  0.13374770  0.75938099  0.76229257  1
  O  O370  1  0.61619973  0.25154545  0.25755873  1
  O  O371  1  0.61803025  0.25072526  0.76163731  1
  O  O372  1  0.63024851  0.74989335  0.24440770  1
  O  O373  1  0.61411669  0.75481368  0.74744950  1
  O  O374  1  0.38069864  0.24490480  0.24545792  1
  O  O375  1  0.38753075  0.25720666  0.73580984  1
  O  O376  1  0.36308701  0.73836615  0.24081372  1
  O  O377  1  0.38091750  0.73787984  0.74698066  1
  O  O378  1  0.86529587  0.23571822  0.23351755  1
  O  O379  1  0.88702116  0.24637644  0.74656314  1
  O  O380  1  0.89101631  0.75227719  0.24389368  1
  O  O381  1  0.86668528  0.75121871  0.73223291  1
  O  O382  1  0.37216489  0.49551745  0.48282851  1
  O  O383  1  0.38479202  0.49021192  1.00559477  1
  O  O384  1  0.37784362  0.99751318  0.49056804  1
  O  O385  1  0.38364006  0.99662242  0.98922303  1
  O  O386  1  0.87073378  0.49328751  0.48073291  1
  O  O387  1  0.89023605  0.49947852  1.00047261  1
  O  O388  1  0.89612311  1.00660384  0.50563017  1
  O  O389  1  0.86431369  0.98243603  0.99293582  1
  O  O390  1  0.12759769  0.01937890  -0.00155889  1
  O  O391  1  0.11906118  0.00471223  0.50688027  1
  O  O392  1  0.12472534  0.50689873  0.00748456  1
  O  O393  1  0.13155361  0.51466293  0.51479530  1
  O  O394  1  0.60971080  0.00299278  -0.00895560  1
  O  O395  1  0.60800232  -0.00554782  0.48576671  1
  O  O396  1  0.61016940  0.51158623  0.00119868  1
  O  O397  1  0.62764506  0.51415060  0.50350189  1
  O  O398  1  0.36905597  0.37026902  0.12045560  1
  O  O399  1  0.37059486  0.37157490  0.61544260  1
  O  O400  1  0.36347578  0.86300671  0.12104415  1
  O  O401  1  0.35732196  0.87866759  0.62325803  1
  O  O402  1  0.85540935  0.35926997  0.13071546  1
  O  O403  1  0.87022078  0.36371957  0.62245313  1
  O  O404  1  0.86860127  0.87709771  0.11039383  1
  O  O405  1  0.87724652  0.86833870  0.62615304  1
  O  O406  1  0.12419585  0.13336144  0.37886250  1
  O  O407  1  0.13610400  0.13078554  0.88756729  1
  O  O408  1  0.11956125  0.61719020  0.39253670  1
  O  O409  1  0.13497247  0.63211334  0.88134401  1
  O  O410  1  0.64130683  0.13570451  0.36761010  1
  O  O411  1  0.63934307  0.13402637  0.87086239  1
  O  O412  1  0.63863710  0.62515524  0.38503835  1
  O  O413  1  0.62011211  0.62779010  0.88419073  1
