# generated using pymatgen
data_V79Zn79O256
_symmetry_space_group_name_H-M   'P 1'
_cell_length_a   16.89601148
_cell_length_b   16.91371916
_cell_length_c   16.91702988
_cell_angle_alpha   90.09286985
_cell_angle_beta   90.03265809
_cell_angle_gamma   90.18754917
_symmetry_Int_Tables_number   1
_chemical_formula_structural   V79Zn79O256
_chemical_formula_sum   'V79 Zn79 O256'
_cell_volume   4834.42089823
_cell_formula_units_Z   1
loop_
 _symmetry_equiv_pos_site_id
 _symmetry_equiv_pos_as_xyz
  1  'x, y, z'
loop_
 _atom_site_type_symbol
 _atom_site_label
 _atom_site_symmetry_multiplicity
 _atom_site_fract_x
 _atom_site_fract_y
 _atom_site_fract_z
 _atom_site_occupancy
  V  V0  1  0.63202688  -0.00761733  0.65111170  1
  V  V1  1  0.38208629  -0.00908625  0.38618331  1
  V  V2  1  0.87306602  0.49891383  0.37113498  1
  V  V3  1  0.74992184  0.24800795  0.49952858  1
  V  V4  1  0.49538877  0.25937265  0.25396263  1
  V  V5  1  0.74619369  0.62083691  0.36814305  1
  V  V6  1  0.61507630  0.75636927  0.35154499  1
  V  V7  1  0.87583324  0.12901336  0.24890515  1
  V  V8  1  0.24214553  0.35991291  0.62628050  1
  V  V9  1  0.38648175  0.76221510  0.61485693  1
  V  V10  1  0.00160865  0.50249177  -0.00395943  1
  V  V11  1  0.12480076  -0.00702049  0.63596000  1
  V  V12  1  0.49521342  0.25232744  0.75532158  1
  V  V13  1  0.25088616  0.11631617  0.37534260  1
  V  V14  1  0.87452500  0.62698323  0.24893207  1
  V  V15  1  0.88531546  0.74466501  0.61866035  1
  V  V16  1  0.61887104  0.62248514  0.49941667  1
  V  V17  1  0.36767191  0.62381500  0.25042191  1
  V  V18  1  0.61304957  0.50094072  0.62332379  1
  V  V19  1  0.74582215  0.50181478  0.75049592  1
  V  V20  1  0.23599065  0.37396978  0.13908248  1
  V  V21  1  0.25623012  0.63854755  0.86765801  1
  V  V22  1  0.50056496  0.11974751  0.61876821  1
  V  V23  1  0.61991527  0.25393373  0.37654812  1
  V  V24  1  0.74273457  -0.01094767  0.24008341  1
  V  V25  1  0.00898481  0.25474259  0.25266288  1
  V  V26  1  0.74331822  0.75798406  0.49859108  1
  V  V27  1  0.13083069  0.13133310  -0.00439037  1
  V  V28  1  0.49637627  0.49116960  0.49163630  1
  V  V29  1  0.25058426  0.87412910  0.12514358  1
  V  V30  1  0.13385071  0.50709473  0.63365509  1
  V  V31  1  0.25476905  0.12512738  0.87010571  1
  V  V32  1  0.51328104  0.86172211  0.88027745  1
  V  V33  1  0.13746611  0.63766754  -0.00468053  1
  V  V34  1  0.63853632  0.49527801  0.12082395  1
  V  V35  1  0.88297619  0.62349811  0.73918518  1
  V  V36  1  0.13658950  0.00274099  0.13007648  1
  V  V37  1  0.87585108  0.76084327  0.12493563  1
  V  V38  1  0.12928069  0.12607368  0.50305086  1
  V  V39  1  0.87516324  0.87730697  0.49310202  1
  V  V40  1  0.37633094  0.25750783  0.12176971  1
  V  V41  1  0.38589728  0.61875041  0.74145926  1
  V  V42  1  0.36798029  0.49188353  0.36812865  1
  V  V43  1  0.37435664  0.86731435  -0.00062321  1
  V  V44  1  0.87652700  0.49946375  0.87225277  1
  V  V45  1  0.25295372  0.25819514  -0.00470489  1
  V  V46  1  0.36836549  0.48458551  0.87457315  1
  V  V47  1  0.36794207  0.35966526  0.50087867  1
  V  V48  1  -0.00654978  0.12888957  0.63568522  1
  V  V49  1  0.86892649  0.02065935  0.85949214  1
  V  V50  1  0.86957155  0.88039502  0.00069945  1
  V  V51  1  0.23953782  0.63035299  0.37961411  1
  V  V52  1  0.64144243  0.37874045  0.25163636  1
  V  V53  1  0.37527579  0.12060318  0.74480758  1
  V  V54  1  0.12226110  0.87406047  0.25850883  1
  V  V55  1  0.87252112  0.24902851  0.64541508  1
  V  V56  1  -0.00516979  0.00182073  0.49320243  1
  V  V57  1  0.49869225  0.01167620  0.00273884  1
  V  V58  1  0.00429695  0.63167011  0.12570261  1
  V  V59  1  0.37431908  -0.00252193  0.86875650  1
  V  V60  1  0.37411581  0.11914873  0.24398539  1
  V  V61  1  0.75140799  0.12265376  0.36963239  1
  V  V62  1  0.00928717  0.51028153  0.50530595  1
  V  V63  1  0.61846520  0.00604349  0.11993573  1
  V  V64  1  0.49188569  0.48375512  -0.00366902  1
  V  V65  1  0.00852768  0.37539089  0.37318409  1
  V  V66  1  0.00042462  0.00333707  -0.00150120  1
  V  V67  1  0.13252809  0.24898049  0.38131948  1
  V  V68  1  0.87492073  0.37295431  0.50001704  1
  V  V69  1  0.75189461  0.87392733  0.64104483  1
  V  V70  1  0.00543938  0.12959862  0.12738854  1
  V  V71  1  0.61397372  0.37501415  0.75845847  1
  V  V72  1  0.62409693  0.10326964  0.49188091  1
  V  V73  1  0.49357947  0.61938418  0.12780984  1
  V  V74  1  0.12589707  0.49708440  0.13253900  1
  V  V75  1  0.74921240  0.64062416  0.88420145  1
  V  V76  1  0.74734777  0.37449330  0.62592080  1
  V  V77  1  0.36937719  0.74633357  0.12551206  1
  V  V78  1  0.01727050  0.37628307  0.86174297  1
  Zn  Zn79  1  0.01117936  0.87122053  0.87313964  1
  Zn  Zn80  1  0.16084148  -0.15796227  0.78265049  1
  Zn  Zn81  1  0.24904094  0.86990081  0.62790707  1
  Zn  Zn82  1  0.85911640  0.36964449  0.00229593  1
  Zn  Zn83  1  0.86594588  0.26588779  0.12313019  1
  Zn  Zn84  1  0.87613964  -0.00938285  0.36627173  1
  Zn  Zn85  1  0.68184961  0.81333569  0.81294329  1
  Zn  Zn86  1  0.70168285  0.82652760  0.06774140  1
  Zn  Zn87  1  0.69318623  0.24214610  -0.03592995  1
  Zn  Zn88  1  0.01499253  0.74950175  0.74935608  1
  Zn  Zn89  1  0.51376928  0.74403574  0.74521038  1
  Zn  Zn90  1  0.25814210  0.74886817  0.49653158  1
  Zn  Zn91  1  0.03930897  0.26252923  0.74684187  1
  Zn  Zn92  1  0.00421702  0.75852423  0.27300233  1
  Zn  Zn93  1  0.60757120  0.66725710  -0.00948409  1
  Zn  Zn94  1  0.19183800  0.18856436  0.19119209  1
  Zn  Zn95  1  0.18973120  0.18320206  0.68512113  1
  Zn  Zn96  1  0.18838587  0.69014757  0.19287208  1
  Zn  Zn97  1  0.19709599  0.68271783  0.68086059  1
  Zn  Zn98  1  0.68030680  0.18649642  0.18227284  1
  Zn  Zn99  1  0.66520537  0.19846348  0.67107913  1
  Zn  Zn100  1  0.68642334  0.68062644  0.16904247  1
  Zn  Zn101  1  0.69195529  0.68345174  0.68257390  1
  Zn  Zn102  1  0.30747980  0.30979523  0.31373977  1
  Zn  Zn103  1  0.30394353  0.30319076  0.80120032  1
  Zn  Zn104  1  0.31104370  0.81157153  0.30640252  1
  Zn  Zn105  1  0.32715117  0.81006565  0.80211288  1
  Zn  Zn106  1  0.81714145  0.30903885  0.31246032  1
  Zn  Zn107  1  0.79873761  0.32025877  0.83061508  1
  Zn  Zn108  1  0.80603124  0.80720199  0.31024374  1
  Zn  Zn109  1  0.87207407  0.81811602  0.80866094  1
  Zn  Zn110  1  0.19146364  0.43886262  0.44090420  1
  Zn  Zn111  1  0.18897156  0.44544569  0.94159044  1
  Zn  Zn112  1  0.19049201  0.93419531  0.44834213  1
  Zn  Zn113  1  0.19089651  0.94010177  0.94220917  1
  Zn  Zn114  1  0.68843062  0.43564238  0.43676345  1
  Zn  Zn115  1  0.68738996  0.43379496  0.93851146  1
  Zn  Zn116  1  0.55065610  0.92272191  0.42045993  1
  Zn  Zn117  1  0.68886326  0.95931630  0.93425410  1
  Zn  Zn118  1  0.31675316  0.06478476  0.05856081  1
  Zn  Zn119  1  0.31060793  0.05668792  0.56253179  1
  Zn  Zn120  1  0.30946180  0.55408552  0.05950261  1
  Zn  Zn121  1  0.30776647  0.55742430  0.55770556  1
  Zn  Zn122  1  0.81325382  0.07166151  0.06455905  1
  Zn  Zn123  1  0.81011386  0.06207144  0.56553138  1
  Zn  Zn124  1  0.81959919  0.56517135  0.06029023  1
  Zn  Zn125  1  0.80855042  0.56042894  0.55709722  1
  Zn  Zn126  1  0.43510003  0.43416552  0.18765335  1
  Zn  Zn127  1  0.42532214  0.43487822  0.68462280  1
  Zn  Zn128  1  0.43887910  0.93447637  0.19127180  1
  Zn  Zn129  1  0.44780579  0.93176185  0.68913863  1
  Zn  Zn130  1  0.93539405  0.43781496  0.18343344  1
  Zn  Zn131  1  0.93957948  0.43856841  0.68416328  1
  Zn  Zn132  1  0.94237294  0.94316438  0.18736630  1
  Zn  Zn133  1  0.94098506  0.93849330  0.68293817  1
  Zn  Zn134  1  0.06533426  0.06022163  0.31292439  1
  Zn  Zn135  1  0.06213927  0.06503316  0.81574489  1
  Zn  Zn136  1  0.05883574  0.56283034  0.31293124  1
  Zn  Zn137  1  0.06969320  0.56818501  0.80978850  1
  Zn  Zn138  1  0.55881010  0.06765293  0.30161448  1
  Zn  Zn139  1  0.55680388  0.06357332  0.81563506  1
  Zn  Zn140  1  0.55746149  0.55782683  0.30940545  1
  Zn  Zn141  1  0.56478555  0.56373533  0.82245651  1
  Zn  Zn142  1  0.44021648  0.17775362  0.43551603  1
  Zn  Zn143  1  0.48367957  0.21976286  0.96268121  1
  Zn  Zn144  1  0.43857302  0.68294952  0.43370912  1
  Zn  Zn145  1  0.43474290  0.68043879  0.94290206  1
  Zn  Zn146  1  0.93888929  0.18710060  0.44123538  1
  Zn  Zn147  1  0.93788873  0.19814186  0.93552956  1
  Zn  Zn148  1  0.93233625  0.68447416  0.44340485  1
  Zn  Zn149  1  0.93625391  0.68882375  0.93868908  1
  Zn  Zn150  1  0.04398480  0.30598474  0.04726673  1
  Zn  Zn151  1  0.05977760  0.31439309  0.56292345  1
  Zn  Zn152  1  0.06271135  0.81773796  0.06128372  1
  Zn  Zn153  1  0.07557597  0.81975275  0.54354524  1
  Zn  Zn154  1  0.56427669  0.31960958  0.07303472  1
  Zn  Zn155  1  0.55642543  0.31097613  0.56256973  1
  Zn  Zn156  1  0.56386156  0.80812034  0.16495519  1
  Zn  Zn157  1  0.56416675  0.81296739  0.56494787  1
  O  O158  1  0.12643661  0.12035676  0.12051931  1
  O  O159  1  0.11637839  0.11880926  0.61664763  1
  O  O160  1  0.12170756  0.62188092  0.11723465  1
  O  O161  1  0.13820119  0.60666350  0.61657738  1
  O  O162  1  0.61433270  0.10702458  0.13535518  1
  O  O163  1  0.62709286  0.10597677  0.61394350  1
  O  O164  1  0.60914359  0.59736894  0.13887138  1
  O  O165  1  0.63550578  0.60978576  0.60963824  1
  O  O166  1  0.36492107  0.38555072  0.38201308  1
  O  O167  1  0.36428855  0.38622826  0.86587013  1
  O  O168  1  0.36400862  0.89399802  0.36502275  1
  O  O169  1  0.38083385  0.87960166  0.88269440  1
  O  O170  1  0.88221321  0.38190756  0.37780445  1
  O  O171  1  0.88920555  0.39306708  0.86992419  1
  O  O172  1  0.86448999  0.87348701  0.38828967  1
  O  O173  1  0.87984841  0.89927077  0.89483974  1
  O  O174  1  0.25863208  0.01063528  0.38262512  1
  O  O175  1  0.26668363  0.01170767  0.88584053  1
  O  O176  1  0.26274002  0.51035117  0.38093880  1
  O  O177  1  0.26580572  0.51043221  0.88464683  1
  O  O178  1  0.75313163  0.01749958  0.35371158  1
  O  O179  1  0.76929296  0.01128876  0.87888758  1
  O  O180  1  0.76181498  0.50791069  0.37977145  1
  O  O181  1  0.75664787  0.50556515  0.86692700  1
  O  O182  1  0.24231901  0.48112590  0.11906707  1
  O  O183  1  0.23743981  0.48580726  0.61287508  1
  O  O184  1  0.24406388  0.99396655  0.11829030  1
  O  O185  1  0.22846312  0.99222636  0.61222384  1
  O  O186  1  0.73705920  0.50709786  0.11648993  1
  O  O187  1  0.74180583  0.49358986  0.63218204  1
  O  O188  1  0.74044613  1.01030097  0.13347382  1
  O  O189  1  0.73996354  0.99003103  0.62405226  1
  O  O190  1  -0.00376536  0.36686613  0.26159726  1
  O  O191  1  0.00324540  0.37942918  0.75743808  1
  O  O192  1  0.01472657  0.87761817  0.24762332  1
  O  O193  1  -0.02536641  0.86258587  0.75635831  1
  O  O194  1  0.50502981  0.36391045  0.25073660  1
  O  O195  1  0.49910298  0.35901962  0.73380183  1
  O  O196  1  0.50193324  0.86236830  0.24174666  1
  O  O197  1  0.49708611  0.86772838  0.77601348  1
  O  O198  1  0.48269666  0.14143029  0.25202682  1
  O  O199  1  0.49732967  0.13245999  0.74274569  1
  O  O200  1  0.48196256  0.60921231  0.23831118  1
  O  O201  1  0.48946932  0.62461086  0.76093613  1
  O  O202  1  0.99539742  0.13156380  0.24772031  1
  O  O203  1  1.00583461  0.13242285  0.73715425  1
  O  O204  1  0.99378870  0.63222826  0.24273012  1
  O  O205  1  0.98523869  0.62440253  0.75024471  1
  O  O206  1  0.37241272  0.24611471  0.01733502  1
  O  O207  1  0.38215437  0.26170858  0.48898280  1
  O  O208  1  0.37818135  0.75826160  0.01009880  1
  O  O209  1  0.38076887  0.74175404  0.51158888  1
  O  O210  1  0.92389666  0.27066038  0.01909374  1
  O  O211  1  0.86751817  0.25597519  0.50385009  1
  O  O212  1  0.88103892  0.77238761  0.00768796  1
  O  O213  1  0.86232006  0.75464472  0.50134747  1
  O  O214  1  0.11250749  0.23663232  0.49026167  1
  O  O215  1  0.13412789  0.23826657  1.00262865  1
  O  O216  1  0.07940471  0.75720137  0.44051161  1
  O  O217  1  0.12055533  0.73577629  1.00292930  1
  O  O218  1  0.63095697  0.24742447  0.49168748  1
  O  O219  1  0.58900620  0.24198193  1.00079435  1
  O  O220  1  0.63127747  0.73758249  0.49973645  1
  O  O221  1  0.63076478  0.73903448  1.07247916  1
  O  O222  1  0.48017344  0.25862102  0.13514024  1
  O  O223  1  0.51223926  0.22732295  0.63019630  1
  O  O224  1  0.48191143  0.72781006  0.12558998  1
  O  O225  1  0.49072623  0.74684041  0.62728128  1
  O  O226  1  1.01969349  0.23915189  0.14151349  1
  O  O227  1  0.98987556  0.24874805  0.63203753  1
  O  O228  1  0.99433221  0.74057899  0.12189376  1
  O  O229  1  0.98542445  0.75383988  0.61073997  1
  O  O230  1  0.00623931  0.25649772  0.37030775  1
  O  O231  1  0.00333310  0.27378676  0.87070186  1
  O  O232  1  0.01054713  0.75654398  0.39613379  1
  O  O233  1  -0.02764306  0.75922475  0.86244054  1
  O  O234  1  0.51324990  0.24464723  0.36945171  1
  O  O235  1  0.49236646  0.24985684  0.85389457  1
  O  O236  1  0.51875750  0.73430175  0.37154548  1
  O  O237  1  0.50537745  0.75970099  0.89031929  1
  O  O238  1  0.23714994  0.12157168  0.49440626  1
  O  O239  1  0.24823594  0.13460133  0.99411966  1
  O  O240  1  0.25226599  0.62767586  0.48453186  1
  O  O241  1  0.24193016  0.62674420  0.99605212  1
  O  O242  1  0.74249805  0.12722859  0.48912568  1
  O  O243  1  0.75958191  0.17052912  1.03371589  1
  O  O244  1  0.74214122  0.63033862  0.48663936  1
  O  O245  1  0.76334507  0.63191331  0.98464580  1
  O  O246  1  0.24400613  0.36080473  0.00256038  1
  O  O247  1  0.26254210  0.37115936  0.50017413  1
  O  O248  1  0.26310443  0.87999601  0.01071835  1
  O  O249  1  0.19988536  0.84507383  0.51996243  1
  O  O250  1  0.75773770  0.34283748  -0.05461626  1
  O  O251  1  0.75453404  0.36941153  0.50559499  1
  O  O252  1  0.76520264  0.88941960  -0.00010291  1
  O  O253  1  0.75365190  0.86222862  0.50911083  1
  O  O254  1  0.11525900  0.50363547  0.23158915  1
  O  O255  1  0.12405577  0.50378935  0.73371040  1
  O  O256  1  0.12191591  0.99435974  0.23670801  1
  O  O257  1  0.12155860  1.01054622  0.73453488  1
  O  O258  1  0.62354491  0.48410059  0.24541301  1
  O  O259  1  0.62665096  0.49853779  0.74169572  1
  O  O260  1  0.63664407  1.00246315  0.24386441  1
  O  O261  1  0.63487996  1.00298198  0.74925943  1
  O  O262  1  0.37786877  0.01734595  0.24586626  1
  O  O263  1  0.38968556  0.00542896  0.76096722  1
  O  O264  1  0.37343640  0.49960882  0.26311897  1
  O  O265  1  0.38430578  0.50763003  0.76585044  1
  O  O266  1  0.86672113  0.01266647  0.24640277  1
  O  O267  1  0.88106360  0.00654202  0.76087992  1
  O  O268  1  0.88629670  0.51288674  0.26196935  1
  O  O269  1  0.86538554  0.50453670  0.75017222  1
  O  O270  1  0.11660587  0.36559518  0.38361506  1
  O  O271  1  0.11591337  0.39222864  0.87129430  1
  O  O272  1  0.13607015  0.88978931  0.35521127  1
  O  O273  1  0.12080999  0.89403986  0.87086007  1
  O  O274  1  0.63069363  0.36606996  0.36374593  1
  O  O275  1  0.61452846  0.38861629  0.85698750  1
  O  O276  1  0.62645047  0.85447266  0.36968045  1
  O  O277  1  0.61954250  0.87751850  0.88627415  1
  O  O278  1  0.36118463  0.14060758  0.13838519  1
  O  O279  1  0.38879316  0.10516034  0.63236990  1
  O  O280  1  0.37180087  0.62467685  0.12930298  1
  O  O281  1  0.37483994  0.60885091  0.64107923  1
  O  O282  1  0.89286972  0.12917604  0.13476327  1
  O  O283  1  0.88078217  0.13758437  0.62083548  1
  O  O284  1  0.88482874  0.63247667  0.13117302  1
  O  O285  1  0.86639574  0.62974697  0.62748794  1
  O  O286  1  0.25240149  0.25924055  0.11830686  1
  O  O287  1  0.24129172  0.25933375  0.61442291  1
  O  O288  1  0.25883904  0.75763368  0.12554810  1
  O  O289  1  0.27650200  0.74198362  0.62165050  1
  O  O290  1  0.75536976  0.22670331  0.10264159  1
  O  O291  1  0.75314518  0.25320839  0.62022822  1
  O  O292  1  0.77394806  0.75259837  0.13410288  1
  O  O293  1  0.75571557  0.75541822  0.61410203  1
  O  O294  1  0.23916655  0.23902374  0.37595411  1
  O  O295  1  0.26670471  0.23513000  0.88542935  1
  O  O296  1  0.25799743  0.73544068  0.37531098  1
  O  O297  1  0.26116628  0.73768820  0.87492329  1
  O  O298  1  0.74224392  0.24205278  0.37787058  1
  O  O299  1  0.74178707  0.21161461  0.85968864  1
  O  O300  1  0.73688146  0.73933065  0.37841179  1
  O  O301  1  0.75975201  0.74046119  0.86784370  1
  O  O302  1  0.01279926  0.12305870  0.00997277  1
  O  O303  1  0.00501916  0.12061353  0.50963085  1
  O  O304  1  0.00697352  0.62053343  0.00504360  1
  O  O305  1  -0.00528520  0.60848069  0.49882977  1
  O  O306  1  0.48403151  0.10879273  -0.00409836  1
  O  O307  1  0.51256014  0.12476414  0.50714819  1
  O  O308  1  0.50349727  0.61317262  0.01062539  1
  O  O309  1  0.51305172  0.61001660  0.49406552  1
  O  O310  1  0.48683395  0.38228309  0.50314562  1
  O  O311  1  0.49241862  0.38495133  1.00425026  1
  O  O312  1  0.49868911  0.87845946  0.50621725  1
  O  O313  1  0.48735487  0.88613116  0.98885867  1
  O  O314  1  0.99288279  0.38025637  0.48876433  1
  O  O315  1  1.01023435  0.39784139  0.98438072  1
  O  O316  1  0.98567179  0.89088596  0.50512444  1
  O  O317  1  0.99596959  0.89130071  1.00147728  1
  O  O318  1  0.48512836  0.49996509  0.38196742  1
  O  O319  1  0.49095259  0.50141815  0.89026391  1
  O  O320  1  0.48775625  1.00248099  0.36555498  1
  O  O321  1  0.49561439  0.99313756  0.88589419  1
  O  O322  1  0.99371474  0.49333557  0.38263776  1
  O  O323  1  0.99493906  0.50389031  0.87718800  1
  O  O324  1  0.99274116  1.01116105  0.38735356  1
  O  O325  1  0.99144167  1.00885774  0.88992952  1
  O  O326  1  0.01196654  0.01433647  0.12003269  1
  O  O327  1  0.00135059  0.01303010  0.61595938  1
  O  O328  1  0.00409220  0.51248033  0.11594115  1
  O  O329  1  0.01200474  0.49153093  0.61066694  1
  O  O330  1  0.50461366  -0.00436432  0.11117356  1
  O  O331  1  0.52265071  0.00547412  0.63596327  1
  O  O332  1  0.49236509  0.50142844  0.11246152  1
  O  O333  1  0.50890386  0.49421855  0.61565616  1
  O  O334  1  0.23737592  0.36566492  0.23808531  1
  O  O335  1  0.26008875  0.37261568  0.72521870  1
  O  O336  1  0.23960902  0.87379314  0.23303588  1
  O  O337  1  0.25940205  0.87523252  0.74149841  1
  O  O338  1  0.74069761  0.36840724  0.24953060  1
  O  O339  1  0.73699266  0.38539723  0.74808013  1
  O  O340  1  0.75832948  0.89141789  0.24768800  1
  O  O341  1  0.76470144  0.86443710  0.74216157  1
  O  O342  1  0.26208680  0.13022374  0.26261716  1
  O  O343  1  0.26596725  0.12419188  0.75541332  1
  O  O344  1  0.25924130  0.62292570  0.25844521  1
  O  O345  1  0.26550846  0.62398743  0.76343831  1
  O  O346  1  0.76070911  0.13165101  0.25278276  1
  O  O347  1  0.70034046  0.15063126  0.82186410  1
  O  O348  1  0.76351035  0.63014210  0.25589199  1
  O  O349  1  0.75476400  0.61262754  0.75664591  1
  O  O350  1  0.36908448  0.11645350  0.36653950  1
  O  O351  1  0.37189758  0.11355105  0.86245830  1
  O  O352  1  0.36964692  0.61393044  0.36649231  1
  O  O353  1  0.36746786  0.61943131  0.87099914  1
  O  O354  1  0.86805717  0.13079296  0.36440364  1
  O  O355  1  0.88412555  0.12033930  0.87825748  1
  O  O356  1  0.86771393  0.62029962  0.36851129  1
  O  O357  1  0.86589117  0.61595613  0.86318369  1
  O  O358  1  0.13040060  0.38004233  0.11671354  1
  O  O359  1  0.13536600  0.38172718  0.61493384  1
  O  O360  1  0.13297402  0.88468204  0.12558045  1
  O  O361  1  0.10207251  0.89328372  0.63315303  1
  O  O362  1  0.62622436  0.38474533  0.13988619  1
  O  O363  1  0.62842088  0.38298286  0.63040993  1
  O  O364  1  0.63062061  0.89780807  0.12496319  1
  O  O365  1  0.63516313  0.88603206  0.63166887  1
  O  O366  1  0.11723683  0.24046875  0.26686372  1
  O  O367  1  0.14531651  0.24091033  0.76754350  1
  O  O368  1  0.12162283  0.76704214  0.24735899  1
  O  O369  1  0.12604097  0.74393312  0.74076770  1
  O  O370  1  0.61801959  0.25946468  0.25361717  1
  O  O371  1  0.61030192  0.26061293  0.74618656  1
  O  O372  1  0.62859112  0.74378302  0.24966422  1
  O  O373  1  0.62543525  0.74277132  0.74773575  1
  O  O374  1  0.37746729  0.24643597  0.24629623  1
  O  O375  1  0.38589692  0.23507007  0.74219366  1
  O  O376  1  0.37073296  0.73620216  0.23854145  1
  O  O377  1  0.38563561  0.73324592  0.73731555  1
  O  O378  1  0.88864867  0.24477038  0.24536462  1
  O  O379  1  0.86151459  0.26050087  0.74340688  1
  O  O380  1  0.88586808  0.74490328  0.24866760  1
  O  O381  1  0.86709044  0.73327020  0.72995877  1
  O  O382  1  0.38178919  0.49371084  0.48923068  1
  O  O383  1  0.38323613  0.49921487  0.98932312  1
  O  O384  1  0.37695196  1.00097733  0.48583922  1
  O  O385  1  0.38347546  0.99178328  0.99498529  1
  O  O386  1  0.88236949  0.49357806  0.49099737  1
  O  O387  1  0.88474897  0.50205446  0.98819687  1
  O  O388  1  0.87675976  0.99442655  0.49758276  1
  O  O389  1  0.88613547  0.99809862  1.01135782  1
  O  O390  1  0.12004756  0.01125353  0.01101995  1
  O  O391  1  0.11187705  0.00893569  0.50516447  1
  O  O392  1  0.11954831  0.51584218  0.00937319  1
  O  O393  1  0.11099727  0.49932649  0.49627412  1
  O  O394  1  0.61234886  0.00704725  0.00754135  1
  O  O395  1  0.62451091  0.00547461  0.48163733  1
  O  O396  1  0.61480288  0.48797607  0.01411643  1
  O  O397  1  0.61779714  0.50037882  0.50276969  1
  O  O398  1  0.35648806  0.36339923  0.13294248  1
  O  O399  1  0.36294742  0.37709155  0.60714292  1
  O  O400  1  0.36909522  0.86671713  0.11997984  1
  O  O401  1  0.37863659  0.86467459  0.62476361  1
  O  O402  1  0.86504877  0.38194913  0.11860341  1
  O  O403  1  0.86779473  0.36756474  0.62061310  1
  O  O404  1  0.88528051  0.87291808  0.11505272  1
  O  O405  1  0.86623649  0.86714272  0.61278407  1
  O  O406  1  0.13175430  0.12762582  0.38258427  1
  O  O407  1  0.14079423  0.11345970  0.88736472  1
  O  O408  1  0.14078364  0.62023142  0.36553040  1
  O  O409  1  0.14158383  0.62067748  0.88579620  1
  O  O410  1  0.63144483  0.13375009  0.37539539  1
  O  O411  1  0.64173015  0.12455700  0.87276060  1
  O  O412  1  0.63267689  0.62238921  0.37668896  1
  O  O413  1  0.64139963  0.62501877  0.88695832  1
