# generated using pymatgen
data_V79Zn79O256
_symmetry_space_group_name_H-M   'P 1'
_cell_length_a   16.91656589
_cell_length_b   16.96741112
_cell_length_c   16.93842960
_cell_angle_alpha   90.01344610
_cell_angle_beta   89.84777934
_cell_angle_gamma   90.21340407
_symmetry_Int_Tables_number   1
_chemical_formula_structural   V79Zn79O256
_chemical_formula_sum   'V79 Zn79 O256'
_cell_volume   4861.79200188
_cell_formula_units_Z   1
loop_
 _symmetry_equiv_pos_site_id
 _symmetry_equiv_pos_as_xyz
  1  'x, y, z'
loop_
 _atom_site_type_symbol
 _atom_site_label
 _atom_site_symmetry_multiplicity
 _atom_site_fract_x
 _atom_site_fract_y
 _atom_site_fract_z
 _atom_site_occupancy
  V  V0  1  0.87174869  0.25155547  0.11986487  1
  V  V1  1  0.38252869  0.00111024  0.38187690  1
  V  V2  1  -0.00442657  0.37995951  0.38375078  1
  V  V3  1  0.24716174  0.50159001  0.24753651  1
  V  V4  1  0.23678447  0.62965362  0.37461823  1
  V  V5  1  0.36204289  0.00609443  0.86805160  1
  V  V6  1  0.74305606  0.49628207  0.25185032  1
  V  V7  1  0.37450962  0.11816616  0.25134650  1
  V  V8  1  0.24532942  0.88605178  0.62449011  1
  V  V9  1  0.74464127  0.75238829  -0.00186518  1
  V  V10  1  0.75270747  -0.00206138  0.24297256  1
  V  V11  1  0.73825513  0.24700134  0.00148416  1
  V  V12  1  0.87192695  0.12673117  0.25059752  1
  V  V13  1  0.12644677  0.87910922  0.25212934  1
  V  V14  1  0.24877661  0.24079033  -0.00775569  1
  V  V15  1  0.00191244  0.62072804  0.12079341  1
  V  V16  1  0.50340662  0.13581189  0.62694044  1
  V  V17  1  0.25135257  0.37703875  0.12543430  1
  V  V18  1  0.50701669  0.00397682  -0.00422876  1
  V  V19  1  -0.01013547  0.10425345  0.62227322  1
  V  V20  1  -0.00203413  0.24716789  0.24469307  1
  V  V21  1  0.87247207  0.87870627  0.50514578  1
  V  V22  1  0.50127976  0.50062947  0.49960102  1
  V  V23  1  0.37283682  0.73529284  0.62469487  1
  V  V24  1  0.50545280  0.37274249  0.86127421  1
  V  V25  1  0.87386169  0.75586219  0.12169327  1
  V  V26  1  0.64639300  0.49823456  0.63501513  1
  V  V27  1  0.74851105  -0.00391434  0.74534082  1
  V  V28  1  0.51224291  0.37167805  0.37072453  1
  V  V29  1  0.51258090  0.25464333  0.25214135  1
  V  V30  1  0.25191108  0.12025567  0.37315965  1
  V  V31  1  0.00387080  0.74637616  0.25499822  1
  V  V32  1  0.87445844  0.49897817  0.38691109  1
  V  V33  1  0.87337196  0.61194529  0.76026122  1
  V  V34  1  0.62219730  0.51570390  0.12395420  1
  V  V35  1  0.88080655  0.74937420  0.63623177  1
  V  V36  1  0.76100772  0.25417892  0.47418082  1
  V  V37  1  0.63146607  0.87704900  0.24023305  1
  V  V38  1  0.51034833  0.12359914  0.12292386  1
  V  V39  1  0.24975784  0.88509516  0.13020287  1
  V  V40  1  0.24286423  0.51465640  0.74752818  1
  V  V41  1  0.37943658  0.37574540  -0.00142523  1
  V  V42  1  0.50099282  0.75111390  0.24748808  1
  V  V43  1  0.74712891  0.75603453  0.51034743  1
  V  V44  1  0.37407247  0.37436231  0.49899837  1
  V  V45  1  0.61965102  -0.00595750  0.61741155  1
  V  V46  1  0.62038913  0.24621554  0.86137219  1
  V  V47  1  0.74413745  0.61399791  0.87888708  1
  V  V48  1  0.12580271  0.62146182  -0.01157270  1
  V  V49  1  0.37879087  0.24931249  0.12693127  1
  V  V50  1  0.38651073  0.87840149  0.49966415  1
  V  V51  1  0.24540954  0.74660335  -0.00622041  1
  V  V52  1  0.87730303  0.87924328  0.00202497  1
  V  V53  1  0.25086222  0.24983363  0.49875793  1
  V  V54  1  0.87340304  0.00282231  0.37645550  1
  V  V55  1  0.75233017  0.62653606  0.37459974  1
  V  V56  1  0.74338389  0.12066820  0.87794466  1
  V  V57  1  0.62363725  0.62869393  0.49915614  1
  V  V58  1  0.00230779  0.87898240  0.37868118  1
  V  V59  1  0.37219416  0.50757436  0.86430694  1
  V  V60  1  0.63002257  0.13117362  0.48305100  1
  V  V61  1  0.11634480  0.87803672  0.75072490  1
  V  V62  1  0.00207572  0.84817997  0.87785968  1
  V  V63  1  -0.00360653  0.25141147  0.73066925  1
  V  V64  1  0.11987280  0.11076457  0.50129831  1
  V  V65  1  0.10866346  0.00831956  0.12193661  1
  V  V66  1  0.49367622  0.62546060  0.63212104  1
  V  V67  1  0.23398798  0.37839003  0.63053517  1
  V  V68  1  0.12325768  0.37495145  0.24815337  1
  V  V69  1  0.62520859  0.75427955  0.37503542  1
  V  V70  1  0.23566004  0.74837187  0.49429171  1
  V  V71  1  0.00698435  0.36998392  0.88889855  1
  V  V72  1  0.37899325  0.62705558  0.24655511  1
  V  V73  1  0.37507180  0.75000730  0.12675515  1
  V  V74  1  0.88864253  0.00939924  0.87274982  1
  V  V75  1  0.37510217  0.87744124  -0.00501945  1
  V  V76  1  0.74020804  0.37696663  0.12717935  1
  V  V77  1  0.37471480  0.50262028  0.37595463  1
  V  V78  1  0.50269639  0.51287327  0.00483990  1
  Zn  Zn79  1  0.38987968  0.25779283  0.63616619  1
  Zn  Zn80  1  0.04855882  0.45444824  0.56677169  1
  Zn  Zn81  1  0.61900372  0.74790671  0.86935235  1
  Zn  Zn82  1  0.63955716  0.00032648  0.11361967  1
  Zn  Zn83  1  0.50667221  0.88290844  0.37819002  1
  Zn  Zn84  1  0.12252554  0.24636836  0.37050458  1
  Zn  Zn85  1  0.36407468  0.13578373  0.75860138  1
  Zn  Zn86  1  0.50097503  0.87328935  0.86567266  1
  Zn  Zn87  1  0.86546006  0.39175706  -0.01413603  1
  Zn  Zn88  1  0.87593709  0.62383830  0.24818168  1
  Zn  Zn89  1  0.13375554  0.24469989  0.85566623  1
  Zn  Zn90  1  0.49482009  0.75138860  0.75039978  1
  Zn  Zn91  1  0.00985070  0.62050021  0.62027588  1
  Zn  Zn92  1  0.11372971  0.49663238  0.11514341  1
  Zn  Zn93  1  0.08976037  0.09940545  -0.02697493  1
  Zn  Zn94  1  0.18994251  0.18784904  0.18565999  1
  Zn  Zn95  1  0.18494300  0.18076992  0.68876546  1
  Zn  Zn96  1  0.18595270  0.68865372  0.18468957  1
  Zn  Zn97  1  0.17896873  0.69968838  0.69513815  1
  Zn  Zn98  1  0.69222174  0.18506078  0.19414972  1
  Zn  Zn99  1  0.68853586  0.17467805  0.69135643  1
  Zn  Zn100  1  0.69053400  0.68994815  0.18618366  1
  Zn  Zn101  1  0.68781569  0.68282456  0.69153516  1
  Zn  Zn102  1  0.31790411  0.30923438  0.31280991  1
  Zn  Zn103  1  0.31524013  0.31547652  0.80919659  1
  Zn  Zn104  1  0.31046891  0.81557248  0.31498545  1
  Zn  Zn105  1  0.28563262  0.79929150  0.79532042  1
  Zn  Zn106  1  0.81252566  0.31729358  0.30927066  1
  Zn  Zn107  1  0.82771070  0.29666799  0.81418312  1
  Zn  Zn108  1  0.81477501  0.81624499  0.31159740  1
  Zn  Zn109  1  0.80993631  0.81798265  0.81925735  1
  Zn  Zn110  1  0.18879690  0.43541640  0.43260877  1
  Zn  Zn111  1  0.18671721  0.43542280  0.93169704  1
  Zn  Zn112  1  0.19446087  0.93561672  0.43493094  1
  Zn  Zn113  1  0.18238076  0.93441122  0.93919462  1
  Zn  Zn114  1  0.69178696  0.43700431  0.44589265  1
  Zn  Zn115  1  0.68223481  0.43385115  0.94074529  1
  Zn  Zn116  1  0.69150416  0.94187528  0.43554368  1
  Zn  Zn117  1  0.68752305  0.92950840  0.93073088  1
  Zn  Zn118  1  0.31691036  0.06215669  0.06080270  1
  Zn  Zn119  1  0.30077328  0.07945882  0.58995395  1
  Zn  Zn120  1  0.31468112  0.56371383  0.05823475  1
  Zn  Zn121  1  0.19455862  0.56978625  0.56869231  1
  Zn  Zn122  1  0.82175224  0.06740571  0.05803161  1
  Zn  Zn123  1  0.80663221  0.06787949  0.55619395  1
  Zn  Zn124  1  0.81140782  0.56795433  0.06271431  1
  Zn  Zn125  1  0.85748085  0.52544537  0.60022755  1
  Zn  Zn126  1  0.44009759  0.43913906  0.18836158  1
  Zn  Zn127  1  0.43492327  0.43969204  0.68185761  1
  Zn  Zn128  1  0.44188990  0.93698348  0.18642907  1
  Zn  Zn129  1  0.43955372  0.93755623  0.68327955  1
  Zn  Zn130  1  0.92964890  0.43740481  0.18987534  1
  Zn  Zn131  1  0.95829022  0.45812130  0.73936187  1
  Zn  Zn132  1  0.93974092  0.93751413  0.18903530  1
  Zn  Zn133  1  0.93605014  0.93716314  0.69108402  1
  Zn  Zn134  1  0.06272179  0.06060136  0.31001657  1
  Zn  Zn135  1  0.08121899  0.06843316  0.79572768  1
  Zn  Zn136  1  0.05869120  0.57035795  0.43122704  1
  Zn  Zn137  1  0.06653204  0.57076564  0.80458939  1
  Zn  Zn138  1  0.56314122  0.06301174  0.30659765  1
  Zn  Zn139  1  0.55855563  0.06314832  0.80595449  1
  Zn  Zn140  1  0.56300427  0.56397906  0.31061852  1
  Zn  Zn141  1  0.56686954  0.56122721  0.81338723  1
  Zn  Zn142  1  0.44474520  0.18596571  0.44421386  1
  Zn  Zn143  1  0.43793974  0.18568163  0.93541580  1
  Zn  Zn144  1  0.43425537  0.69105005  0.43868411  1
  Zn  Zn145  1  0.43230476  0.69003088  0.93402769  1
  Zn  Zn146  1  0.93803333  0.18819164  0.43661338  1
  Zn  Zn147  1  0.93498787  0.19251932  0.92371406  1
  Zn  Zn148  1  0.93316521  0.69286016  0.44257604  1
  Zn  Zn149  1  0.94182805  0.55357115  0.93286405  1
  Zn  Zn150  1  0.04166465  0.26379836  0.03908647  1
  Zn  Zn151  1  0.06486130  0.28974461  0.56069052  1
  Zn  Zn152  1  0.06275161  0.81298161  0.06319484  1
  Zn  Zn153  1  0.05820195  0.81458237  0.56498368  1
  Zn  Zn154  1  0.56277681  0.31801472  0.06128954  1
  Zn  Zn155  1  0.60491011  0.29928965  0.58171879  1
  Zn  Zn156  1  0.55969315  0.81467812  0.06136475  1
  Zn  Zn157  1  0.62327678  0.86602467  0.74211505  1
  O  O158  1  0.13261094  0.10679192  0.13308252  1
  O  O159  1  0.12242972  0.12189314  0.60311926  1
  O  O160  1  0.11689547  0.62381713  0.11847429  1
  O  O161  1  0.12277966  0.62727221  0.63519025  1
  O  O162  1  0.61354960  0.12112273  0.13170357  1
  O  O163  1  0.61822138  0.11985373  0.61903572  1
  O  O164  1  0.62758244  0.61535015  0.12465778  1
  O  O165  1  0.61625069  0.61703604  0.61347552  1
  O  O166  1  0.37602845  0.38684892  0.37914634  1
  O  O167  1  0.38811593  0.38106357  0.88213374  1
  O  O168  1  0.37410232  0.88310924  0.38243126  1
  O  O169  1  0.37726944  0.88393740  0.88910319  1
  O  O170  1  0.88949062  0.38340537  0.36787044  1
  O  O171  1  0.89332520  0.36699560  0.87466877  1
  O  O172  1  0.88267907  0.88134004  0.38144298  1
  O  O173  1  0.89043707  0.88367014  0.87944465  1
  O  O174  1  0.26369919  0.01364775  0.37602249  1
  O  O175  1  0.26366769  -0.00774819  0.88246018  1
  O  O176  1  0.25836884  0.50794463  0.36645451  1
  O  O177  1  0.26513980  0.48861661  0.86192768  1
  O  O178  1  0.76469955  -0.00590253  0.35889068  1
  O  O179  1  0.74958748  0.00749680  0.86950758  1
  O  O180  1  0.75091281  0.50756230  0.36981539  1
  O  O181  1  0.74319867  0.51447157  0.88639129  1
  O  O182  1  0.26255776  0.48972285  0.13363319  1
  O  O183  1  0.25086818  0.48775402  0.63514860  1
  O  O184  1  0.25300755  0.98694572  0.12264759  1
  O  O185  1  0.24433286  0.98043281  0.59687513  1
  O  O186  1  0.74199210  0.49753508  0.13184193  1
  O  O187  1  0.74391466  0.50848015  0.61440474  1
  O  O188  1  0.75478004  1.00705389  0.13635342  1
  O  O189  1  0.74741885  1.01180251  0.64233058  1
  O  O190  1  0.00864943  0.37195451  0.25537969  1
  O  O191  1  -0.00392177  0.35395783  0.73425022  1
  O  O192  1  0.00613836  0.86735612  0.25614959  1
  O  O193  1  0.00971700  0.87160510  0.75863575  1
  O  O194  1  0.49388675  0.37045024  0.26249100  1
  O  O195  1  0.49735045  0.38200958  0.76334301  1
  O  O196  1  0.50862381  0.86639029  0.25430149  1
  O  O197  1  0.50277236  0.87079220  0.74763257  1
  O  O198  1  0.49315005  0.13462531  0.24315578  1
  O  O199  1  0.49186921  0.11955058  0.73022355  1
  O  O200  1  0.48950381  0.63661400  0.25536316  1
  O  O201  1  0.50054854  0.62029796  0.73391614  1
  O  O202  1  0.99299297  0.13978215  0.25364565  1
  O  O203  1  1.00954937  0.12224322  0.72493045  1
  O  O204  1  0.99858248  0.64383725  0.24338947  1
  O  O205  1  0.97941164  0.62075868  0.74939350  1
  O  O206  1  0.37250986  0.25779165  0.00780026  1
  O  O207  1  0.36893422  0.26233840  0.49534335  1
  O  O208  1  0.36978633  0.75625828  0.01110019  1
  O  O209  1  0.36858179  0.76000691  0.50465044  1
  O  O210  1  0.85815873  0.25303292  0.00933070  1
  O  O211  1  0.86069424  0.24457732  0.49424150  1
  O  O212  1  0.86607811  0.76321642  0.01026972  1
  O  O213  1  0.86397769  0.75888189  0.50873925  1
  O  O214  1  0.13703529  0.23857574  0.48880552  1
  O  O215  1  0.15113945  0.25591881  1.01204154  1
  O  O216  1  0.13735289  0.75766697  0.50014838  1
  O  O217  1  0.13901831  0.74270809  1.00531862  1
  O  O218  1  0.63646398  0.23846858  0.49113750  1
  O  O219  1  0.63376233  0.25436953  0.99522511  1
  O  O220  1  0.63035372  0.74249518  0.48756922  1
  O  O221  1  0.64227217  0.75873881  1.00663296  1
  O  O222  1  0.49480255  0.24625134  0.12851094  1
  O  O223  1  0.51348738  0.24106229  0.62348010  1
  O  O224  1  0.48832222  0.75653279  0.13586010  1
  O  O225  1  0.48224911  0.73713195  0.62140289  1
  O  O226  1  0.98416642  0.26715028  0.13867473  1
  O  O227  1  0.99493665  0.23407484  0.62578851  1
  O  O228  1  0.99351308  0.74470709  0.13051818  1
  O  O229  1  0.98300982  0.74746046  0.62286537  1
  O  O230  1  -0.00118002  0.26385341  0.36264339  1
  O  O231  1  0.00788201  0.26261565  0.86364089  1
  O  O232  1  -0.00877318  0.75899360  0.36001539  1
  O  O233  1  -0.00130487  0.75391098  0.87144435  1
  O  O234  1  0.49406076  0.26529701  0.36807970  1
  O  O235  1  0.50955699  0.26100179  0.88073563  1
  O  O236  1  0.51016445  0.75107242  0.36587993  1
  O  O237  1  0.49828270  0.75170401  0.87034121  1
  O  O238  1  0.24449125  0.13239168  0.49249272  1
  O  O239  1  0.26025267  0.14196733  1.00430435  1
  O  O240  1  0.24872940  0.63942778  0.49022952  1
  O  O241  1  0.24371140  0.63920475  1.00877235  1
  O  O242  1  0.73968504  0.14031686  0.50276990  1
  O  O243  1  0.74965701  0.13365503  0.99060465  1
  O  O244  1  0.73808853  0.63678525  0.48638323  1
  O  O245  1  0.75749902  0.64079176  0.98847729  1
  O  O246  1  0.26453762  0.37388293  0.00850120  1
  O  O247  1  0.25727573  0.37131061  0.50142097  1
  O  O248  1  0.25576846  0.86431807  0.01039479  1
  O  O249  1  0.25570088  0.86149685  0.49925483  1
  O  O250  1  0.74925510  0.36733068  0.00863391  1
  O  O251  1  0.74609898  0.35488470  0.49381361  1
  O  O252  1  0.76395442  0.86513730  -0.00759093  1
  O  O253  1  0.75954354  0.86442013  0.49090781  1
  O  O254  1  0.14292794  0.49133907  0.24498137  1
  O  O255  1  0.14401081  0.50036263  0.75844365  1
  O  O256  1  0.11960480  0.98767810  0.23748428  1
  O  O257  1  0.13569304  0.97606589  0.75531939  1
  O  O258  1  0.63391954  0.50617112  0.24198182  1
  O  O259  1  0.63147303  0.50943664  0.73388570  1
  O  O260  1  0.63525729  0.99256025  0.24880047  1
  O  O261  1  0.63464307  1.00359762  0.73925524  1
  O  O262  1  0.38086017  0.01333199  0.25505705  1
  O  O263  1  0.38127074  -0.00391295  0.76849722  1
  O  O264  1  0.37044817  0.50781812  0.25608835  1
  O  O265  1  0.37053778  0.49549173  0.75991830  1
  O  O266  1  0.87156615  0.00701652  0.25224697  1
  O  O267  1  0.86274262  -0.00660712  0.76582353  1
  O  O268  1  0.86005148  0.50421089  0.25969503  1
  O  O269  1  0.85668707  0.51416170  0.74224210  1
  O  O270  1  0.11707468  0.37514814  0.36171794  1
  O  O271  1  0.11394192  0.36785997  0.87737619  1
  O  O272  1  0.11602378  0.88349816  0.36424504  1
  O  O273  1  0.10661665  0.87834394  0.87250159  1
  O  O274  1  0.60936152  0.38396366  0.37637908  1
  O  O275  1  0.61249601  0.36604324  0.87662751  1
  O  O276  1  0.62658265  0.86721144  0.36694790  1
  O  O277  1  0.61879368  0.86735140  0.86774353  1
  O  O278  1  0.38372688  0.13313929  0.13244390  1
  O  O279  1  0.40137461  0.13574993  0.59844055  1
  O  O280  1  0.36842598  0.63636290  0.13652441  1
  O  O281  1  0.37786719  0.63382268  0.61608865  1
  O  O282  1  0.87066099  0.14086705  0.13494313  1
  O  O283  1  0.89072624  0.11534482  0.61506626  1
  O  O284  1  0.88504078  0.63766729  0.12678369  1
  O  O285  1  0.86708787  0.64211798  0.64217514  1
  O  O286  1  0.26363146  0.25940535  0.12199236  1
  O  O287  1  0.24915501  0.26569467  0.60843394  1
  O  O288  1  0.25996423  0.75973064  0.12138521  1
  O  O289  1  0.25857324  0.75618543  0.60911235  1
  O  O290  1  0.74972061  0.25727089  0.12161128  1
  O  O291  1  0.73096660  0.26005214  0.62176977  1
  O  O292  1  0.76222570  0.74367494  0.11424424  1
  O  O293  1  0.75357444  0.74606254  0.61338148  1
  O  O294  1  0.25272612  0.24141250  0.38231767  1
  O  O295  1  0.25171120  0.26154989  0.88997653  1
  O  O296  1  0.25500846  0.74283319  0.38524539  1
  O  O297  1  0.26486808  0.75329669  0.89679923  1
  O  O298  1  0.75417865  0.24664686  0.37334372  1
  O  O299  1  0.73818500  0.24473259  0.88053326  1
  O  O300  1  0.74268210  0.74445523  0.37596995  1
  O  O301  1  0.75077450  0.74724773  0.88942827  1
  O  O302  1  0.00368357  0.16056539  0.00667052  1
  O  O303  1  0.01344572  0.12798315  0.50151634  1
  O  O304  1  0.01708511  0.62060579  0.00654135  1
  O  O305  1  -0.00621240  0.62437404  0.50360502  1
  O  O306  1  0.49468839  0.11320312  0.00920555  1
  O  O307  1  0.52253192  0.12840532  0.50531032  1
  O  O308  1  0.49165958  0.61046242  -0.00168315  1
  O  O309  1  0.50588823  0.61923916  0.50038524  1
  O  O310  1  0.49075276  0.38538200  0.48407187  1
  O  O311  1  0.49027394  0.38254700  0.99539164  1
  O  O312  1  0.48495011  0.87097679  0.49586625  1
  O  O313  1  0.48890297  0.88816769  1.00578854  1
  O  O314  1  1.01121601  0.36838504  0.48440988  1
  O  O315  1  1.00096634  0.36612724  0.99060618  1
  O  O316  1  0.98940850  0.86670618  0.48708874  1
  O  O317  1  0.99217680  0.86604802  0.98717165  1
  O  O318  1  0.49321001  0.49497584  0.37681555  1
  O  O319  1  0.49569735  0.49066649  0.88336648  1
  O  O320  1  0.48780739  0.99988530  0.36964376  1
  O  O321  1  0.49473321  1.00173988  0.88876452  1
  O  O322  1  0.99181281  0.48746129  0.37558408  1
  O  O323  1  1.00024229  0.48114554  0.85633996  1
  O  O324  1  0.98791276  0.98796218  0.36516884  1
  O  O325  1  0.98727251  1.01332704  0.86740882  1
  O  O326  1  0.00862777  0.00324124  0.12417549  1
  O  O327  1  0.00043598  0.00319789  0.62252105  1
  O  O328  1  -0.00082318  0.51644820  0.13969782  1
  O  O329  1  -0.03033851  0.50093747  0.62921967  1
  O  O330  1  0.49877307  0.00904448  0.11469817  1
  O  O331  1  0.51482272  0.00897667  0.62180338  1
  O  O332  1  0.50441111  0.49747463  0.11354099  1
  O  O333  1  0.49543191  0.50911156  0.60989865  1
  O  O334  1  0.24824393  0.37946446  0.24519807  1
  O  O335  1  0.24840729  0.37387961  0.73127862  1
  O  O336  1  0.23817578  0.86609943  0.24220919  1
  O  O337  1  0.26398495  0.88904046  0.72350739  1
  O  O338  1  0.74968178  0.38714426  0.24224537  1
  O  O339  1  0.76367306  0.34529442  0.72336695  1
  O  O340  1  0.74238672  0.88242508  0.25010515  1
  O  O341  1  0.74467475  0.89310325  0.75699704  1
  O  O342  1  0.26515583  0.13757405  0.26068560  1
  O  O343  1  0.27166906  0.11424503  0.69647854  1
  O  O344  1  0.25893799  0.62101484  0.25372435  1
  O  O345  1  0.25229124  0.61268640  0.74377160  1
  O  O346  1  0.76318499  0.11671595  0.25175110  1
  O  O347  1  0.74805969  0.11477000  0.76811824  1
  O  O348  1  0.74941742  0.62038473  0.26150670  1
  O  O349  1  0.76236324  0.63904721  0.76985007  1
  O  O350  1  0.37364433  0.12086671  0.37142710  1
  O  O351  1  0.37678902  0.11163055  0.87464613  1
  O  O352  1  0.36924950  0.61900221  0.36604367  1
  O  O353  1  0.37668285  0.60555255  0.87720265  1
  O  O354  1  0.88524544  0.11267546  0.36336774  1
  O  O355  1  0.86284798  0.11227339  0.88146307  1
  O  O356  1  0.86450774  0.62026115  0.37323723  1
  O  O357  1  0.86822151  0.61858451  0.86655123  1
  O  O358  1  0.14046705  0.37994550  0.13425398  1
  O  O359  1  0.13255105  0.37568696  0.61213532  1
  O  O360  1  0.13028807  0.88520230  0.12986316  1
  O  O361  1  0.13372896  0.86484863  0.63827590  1
  O  O362  1  0.63484504  0.38757186  0.12140760  1
  O  O363  1  0.61886931  0.40318512  0.61451255  1
  O  O364  1  0.62003756  0.88002918  0.13728835  1
  O  O365  1  0.62957535  0.89665842  0.62177959  1
  O  O366  1  0.11825016  0.25931299  0.24648865  1
  O  O367  1  0.11011364  0.24243840  0.74200499  1
  O  O368  1  0.11073641  0.76177697  0.24086258  1
  O  O369  1  0.16639495  0.78235215  0.76917238  1
  O  O370  1  0.61171271  0.24878359  0.24555086  1
  O  O371  1  0.62624541  0.24997862  0.76347173  1
  O  O372  1  0.62069304  0.75616452  0.25420924  1
  O  O373  1  0.61719042  0.74930843  0.74744427  1
  O  O374  1  0.38581616  0.24425431  0.24129781  1
  O  O375  1  0.37753512  0.24836720  0.74753415  1
  O  O376  1  0.38111775  0.74654888  0.24683940  1
  O  O377  1  0.36731014  0.75271652  0.72693661  1
  O  O378  1  0.87842345  0.24439953  0.24363072  1
  O  O379  1  0.89993880  0.22759365  0.76000430  1
  O  O380  1  0.88473654  0.75598089  0.23907619  1
  O  O381  1  0.86796757  0.76380073  0.73569964  1
  O  O382  1  0.38418735  0.49426044  0.48615571  1
  O  O383  1  0.38297803  0.49357905  0.99202392  1
  O  O384  1  0.37189790  0.98585072  0.49110794  1
  O  O385  1  0.38324365  0.99398353  0.99383117  1
  O  O386  1  0.86305980  0.49936104  0.48505344  1
  O  O387  1  0.88240770  0.49967511  1.01090311  1
  O  O388  1  0.86247380  0.98984450  0.48788157  1
  O  O389  1  0.87017485  0.99090674  0.98484709  1
  O  O390  1  0.12746926  -0.00009684  0.01593520  1
  O  O391  1  0.12688330  0.01276260  0.48629713  1
  O  O392  1  0.14370505  0.51662159  0.00306080  1
  O  O393  1  0.12740784  0.50378152  0.49879722  1
  O  O394  1  0.61080988  -0.00780408  -0.00034377  1
  O  O395  1  0.64368527  0.01389350  0.51158743  1
  O  O396  1  0.60831980  0.49857514  0.00583906  1
  O  O397  1  0.61649133  0.51332375  0.49670382  1
  O  O398  1  0.37299326  0.36776614  0.12052713  1
  O  O399  1  0.36893061  0.37546554  0.61054025  1
  O  O400  1  0.36916132  0.86913535  0.12084637  1
  O  O401  1  0.36729762  0.87308260  0.60900950  1
  O  O402  1  0.85824810  0.36599624  0.12835902  1
  O  O403  1  0.78445725  0.31825194  0.65318849  1
  O  O404  1  0.88529178  0.86955109  0.11387040  1
  O  O405  1  0.87991027  0.86788606  0.61309387  1
  O  O406  1  0.13532580  0.12540133  0.37576641  1
  O  O407  1  0.13032118  0.13011659  0.87392598  1
  O  O408  1  0.13831114  0.62204504  0.36433431  1
  O  O409  1  0.12352562  0.62528561  0.88941312  1
  O  O410  1  0.62655376  0.11602876  0.38423747  1
  O  O411  1  0.62475566  0.13880615  0.87387091  1
  O  O412  1  0.62955917  0.63413835  0.37855935  1
  O  O413  1  0.63933762  0.62981806  0.87279639  1
