# generated using pymatgen
data_V79Zn79O256
_symmetry_space_group_name_H-M   'P 1'
_cell_length_a   16.90988221
_cell_length_b   16.90404533
_cell_length_c   16.90253680
_cell_angle_alpha   90.11545661
_cell_angle_beta   89.93608170
_cell_angle_gamma   90.14207734
_symmetry_Int_Tables_number   1
_chemical_formula_structural   V79Zn79O256
_chemical_formula_sum   'V79 Zn79 O256'
_cell_volume   4831.48501199
_cell_formula_units_Z   1
loop_
 _symmetry_equiv_pos_site_id
 _symmetry_equiv_pos_as_xyz
  1  'x, y, z'
loop_
 _atom_site_type_symbol
 _atom_site_label
 _atom_site_symmetry_multiplicity
 _atom_site_fract_x
 _atom_site_fract_y
 _atom_site_fract_z
 _atom_site_occupancy
  V  V0  1  0.51209517  0.12176089  0.12251860  1
  V  V1  1  0.87443883  0.49877453  0.37409068  1
  V  V2  1  0.87645652  -0.00611684  0.38148048  1
  V  V3  1  0.87264872  -0.00294697  0.86806057  1
  V  V4  1  0.37055962  0.00833153  0.37419647  1
  V  V5  1  0.50102367  0.49907477  0.50055512  1
  V  V6  1  0.25647682  0.37284418  0.62141401  1
  V  V7  1  -0.00506406  0.24819786  0.74361036  1
  V  V8  1  0.48627399  0.14056759  0.62985654  1
  V  V9  1  0.12614156  -0.00175569  0.64043566  1
  V  V10  1  0.61983755  0.87742487  0.24714103  1
  V  V11  1  0.50510761  0.50580557  0.01258417  1
  V  V12  1  0.36771727  0.89073476  0.00389701  1
  V  V13  1  0.25017861  0.62796116  0.37422771  1
  V  V14  1  0.13326350  0.23789729  0.87673933  1
  V  V15  1  0.25543337  0.75301217  0.49821127  1
  V  V16  1  0.63073618  0.24739890  0.37855209  1
  V  V17  1  0.75352650  0.48775463  0.74340428  1
  V  V18  1  0.74863915  0.12858844  0.88262963  1
  V  V19  1  0.75689173  0.76196006  0.49772665  1
  V  V20  1  0.25174474  0.00168047  0.23514454  1
  V  V21  1  0.49181755  0.24313825  0.25302182  1
  V  V22  1  0.12926684  0.37386608  0.24921139  1
  V  V23  1  0.11185510  0.50549707  0.62170257  1
  V  V24  1  0.00388062  0.38028605  0.38507045  1
  V  V25  1  0.00465074  0.86956852  0.37508573  1
  V  V26  1  0.88134773  0.12282415  0.24132402  1
  V  V27  1  0.88304657  0.62323642  0.73728571  1
  V  V28  1  0.63627114  0.48609159  0.62417579  1
  V  V29  1  0.13245980  0.12502463  0.01364590  1
  V  V30  1  0.75133922  0.12442199  0.37473448  1
  V  V31  1  0.13131822  0.49660627  0.12395644  1
  V  V32  1  0.87705755  0.75822182  0.61872923  1
  V  V33  1  0.00082171  0.50521303  0.00682606  1
  V  V34  1  0.00716032  0.74187293  0.24415986  1
  V  V35  1  0.36602625  0.24913114  0.11848324  1
  V  V36  1  0.74818522  -0.00279597  0.24390119  1
  V  V37  1  0.37934069  0.50367017  0.37319227  1
  V  V38  1  0.01211231  0.00197718  0.49212851  1
  V  V39  1  0.00264849  0.37486389  0.87300019  1
  V  V40  1  -0.00169955  0.00966411  0.01251914  1
  V  V41  1  0.75316378  0.62171711  0.36626249  1
  V  V42  1  0.87472252  0.37138739  0.00362915  1
  V  V43  1  0.24770077  0.63197200  0.87402182  1
  V  V44  1  0.25105080  0.24018928  0.49848696  1
  V  V45  1  0.42278346  0.79910493  0.68240995  1
  V  V46  1  0.49583507  0.87315192  0.37281634  1
  V  V47  1  0.12782805  0.88117618  0.23265280  1
  V  V48  1  0.87763032  0.50282592  0.87321402  1
  V  V49  1  0.73186818  0.62271051  0.87328456  1
  V  V50  1  0.85747436  0.36183970  0.50607600  1
  V  V51  1  0.61602519  -0.00560837  0.64967206  1
  V  V52  1  0.74177788  0.87334876  0.12143698  1
  V  V53  1  0.25606041  0.50149367  0.24977342  1
  V  V54  1  -0.00014556  0.24909809  0.24162105  1
  V  V55  1  0.36112041  0.13706423  0.75604029  1
  V  V56  1  0.11537765  0.62658683  0.50153678  1
  V  V57  1  0.38007668  0.62200651  0.74657581  1
  V  V58  1  0.63277030  0.37472693  0.24739429  1
  V  V59  1  0.38251219  0.74759688  0.12766542  1
  V  V60  1  0.63752124  0.13259040  0.52040953  1
  V  V61  1  0.74184495  0.74227088  -0.00479003  1
  V  V62  1  0.50130127  0.62497698  0.62905736  1
  V  V63  1  0.12435173  0.37507269  0.74884245  1
  V  V64  1  0.87133998  0.12166334  0.74711491  1
  V  V65  1  0.87841726  0.73924103  0.12304651  1
  V  V66  1  0.37626466  0.49369367  0.88347672  1
  V  V67  1  0.23885157  0.87155950  0.64101885  1
  V  V68  1  0.00007871  0.12560212  0.61625794  1
  V  V69  1  0.35920427  0.00302329  0.87165089  1
  V  V70  1  0.12293136  0.75830353  0.86982538  1
  V  V71  1  0.12021224  0.62754781  0.00503930  1
  V  V72  1  0.00314050  0.75496138  0.74356812  1
  V  V73  1  0.63198399  0.62917125  0.50027005  1
  V  V74  1  0.24832869  0.75793855  0.00796547  1
  V  V75  1  0.51946423  0.00303786  -0.00068391  1
  V  V76  1  0.87726547  0.87159274  -0.00333925  1
  V  V77  1  0.62746378  0.51269758  0.13236505  1
  V  V78  1  0.24762299  0.50166579  0.74782964  1
  Zn  Zn79  1  0.62577029  0.75199113  0.37204846  1
  Zn  Zn80  1  0.00511482  0.88019895  0.86817852  1
  Zn  Zn81  1  0.38027970  0.37071194  0.50510225  1
  Zn  Zn82  1  0.74554978  0.88909610  0.62672393  1
  Zn  Zn83  1  0.23811656  0.12061611  0.37519221  1
  Zn  Zn84  1  0.37671221  0.87407351  0.50259951  1
  Zn  Zn85  1  0.87386623  0.24043183  0.11785230  1
  Zn  Zn86  1  0.35364136  0.37361773  0.01234975  1
  Zn  Zn87  1  0.75492320  0.37423433  0.13088514  1
  Zn  Zn88  1  0.50122384  0.00525367  0.49757755  1
  Zn  Zn89  1  0.49710084  0.72972798  0.24561006  1
  Zn  Zn90  1  0.87619596  0.61470048  0.24221506  1
  Zn  Zn91  1  0.11737587  0.23607081  0.38237086  1
  Zn  Zn92  1  0.50130089  0.37265497  0.37633051  1
  Zn  Zn93  1  0.72661294  0.24619794  0.00136988  1
  Zn  Zn94  1  0.18512632  0.18392228  0.19322017  1
  Zn  Zn95  1  0.18419055  0.18724305  0.68197731  1
  Zn  Zn96  1  0.18922229  0.68651153  0.18841284  1
  Zn  Zn97  1  0.18756146  0.68857429  0.68420281  1
  Zn  Zn98  1  0.69196191  0.19200753  0.18670518  1
  Zn  Zn99  1  0.67110822  0.18800563  0.69937814  1
  Zn  Zn100  1  0.68715764  0.69670171  0.18779759  1
  Zn  Zn101  1  0.69816838  0.68250701  0.68492701  1
  Zn  Zn102  1  0.31233138  0.31524185  0.32011867  1
  Zn  Zn103  1  0.30994433  0.31294683  0.81362869  1
  Zn  Zn104  1  0.31033958  0.81611201  0.31037412  1
  Zn  Zn105  1  0.50491465  0.85922217  0.86169024  1
  Zn  Zn106  1  0.81779218  0.30952321  0.31610199  1
  Zn  Zn107  1  0.81082482  0.30709357  0.81593369  1
  Zn  Zn108  1  0.81656885  0.80931901  0.30978047  1
  Zn  Zn109  1  0.81313432  0.80445627  0.81240801  1
  Zn  Zn110  1  0.18833725  0.44020599  0.43971156  1
  Zn  Zn111  1  0.19015082  0.43422080  0.93722359  1
  Zn  Zn112  1  0.18549091  0.93184166  0.43035994  1
  Zn  Zn113  1  0.18291206  0.94281381  0.94164999  1
  Zn  Zn114  1  0.69024305  0.43770727  0.43356973  1
  Zn  Zn115  1  0.68757436  0.44100933  0.94174966  1
  Zn  Zn116  1  0.68293283  0.94607692  0.43804028  1
  Zn  Zn117  1  0.68683385  0.93280265  0.92692212  1
  Zn  Zn118  1  0.31824793  0.07903229  0.06951763  1
  Zn  Zn119  1  0.31007297  0.05711110  0.56390058  1
  Zn  Zn120  1  0.30797362  0.57066141  0.06591424  1
  Zn  Zn121  1  0.31117196  0.56331188  0.56017868  1
  Zn  Zn122  1  0.80945132  0.05816007  0.05874927  1
  Zn  Zn123  1  0.79031942  0.08875519  0.58628981  1
  Zn  Zn124  1  0.80474058  0.55863754  0.06025086  1
  Zn  Zn125  1  0.82059269  0.55942541  0.55342733  1
  Zn  Zn126  1  0.44118248  0.43333302  0.19112177  1
  Zn  Zn127  1  0.44059035  0.41724939  0.69794219  1
  Zn  Zn128  1  0.43430630  0.93840592  0.18370625  1
  Zn  Zn129  1  0.43641053  0.96262687  0.69212457  1
  Zn  Zn130  1  0.94397459  0.43792429  0.19051618  1
  Zn  Zn131  1  0.93379650  0.43111164  0.68200226  1
  Zn  Zn132  1  0.93294813  0.93024631  0.18903575  1
  Zn  Zn133  1  0.93810419  0.93665701  0.68113855  1
  Zn  Zn134  1  0.06544540  0.06130972  0.30478285  1
  Zn  Zn135  1  0.05645123  0.06197302  0.81503681  1
  Zn  Zn136  1  0.06632356  0.56027753  0.31709382  1
  Zn  Zn137  1  0.06198962  0.56671053  0.81209127  1
  Zn  Zn138  1  0.56324335  0.06246153  0.31398479  1
  Zn  Zn139  1  0.54736862  0.09094315  0.82509790  1
  Zn  Zn140  1  0.56514775  0.56501199  0.31154845  1
  Zn  Zn141  1  0.55061866  0.52374878  0.80096039  1
  Zn  Zn142  1  0.43820145  0.18825668  0.44375147  1
  Zn  Zn143  1  0.44042806  0.18910138  0.93655870  1
  Zn  Zn144  1  0.43804751  0.68809267  0.43598085  1
  Zn  Zn145  1  0.43290539  0.68190598  0.93964024  1
  Zn  Zn146  1  0.93662651  0.18732275  0.43148079  1
  Zn  Zn147  1  0.94125566  0.18631526  0.93106420  1
  Zn  Zn148  1  0.93586218  0.68922348  0.43316014  1
  Zn  Zn149  1  0.93695413  0.68760523  0.93114232  1
  Zn  Zn150  1  0.06875233  0.31362788  0.06014201  1
  Zn  Zn151  1  0.06970023  0.31316367  0.56330631  1
  Zn  Zn152  1  0.05946695  0.81374030  0.06024065  1
  Zn  Zn153  1  0.06544897  0.80937330  0.55787393  1
  Zn  Zn154  1  0.53871422  0.32949674  0.06840497  1
  Zn  Zn155  1  0.56370593  0.31044731  0.56610380  1
  Zn  Zn156  1  0.53841793  0.79126524  0.02188205  1
  Zn  Zn157  1  0.56753994  0.81750429  0.55722516  1
  O  O158  1  0.11852536  0.13406033  0.11208874  1
  O  O159  1  0.11426155  0.10813488  0.62782256  1
  O  O160  1  0.12939061  0.61654802  0.11188683  1
  O  O161  1  0.12964735  0.61876641  0.61241290  1
  O  O162  1  0.61240503  0.13413689  0.12600456  1
  O  O163  1  0.59682111  0.11122023  0.63384795  1
  O  O164  1  0.63214713  0.61141151  0.13499687  1
  O  O165  1  0.61906767  0.62738022  0.61653713  1
  O  O166  1  0.38026035  0.39139220  0.38011960  1
  O  O167  1  0.36400585  0.39284187  0.87474833  1
  O  O168  1  0.38357975  0.88180597  0.37482281  1
  O  O169  1  0.38772008  0.89571962  0.89245744  1
  O  O170  1  0.88624477  0.37895945  0.37906224  1
  O  O171  1  0.88241659  0.38569706  0.88150258  1
  O  O172  1  0.89058565  0.88395989  0.35975522  1
  O  O173  1  0.87174272  0.87791765  0.88109611  1
  O  O174  1  0.26092027  -0.00217957  0.37219357  1
  O  O175  1  0.26020232  -0.00087929  0.88054849  1
  O  O176  1  0.25948111  0.50710184  0.37037773  1
  O  O177  1  0.24832073  0.51217972  0.86467690  1
  O  O178  1  0.75844609  0.00035918  0.36198734  1
  O  O179  1  0.76828863  0.00639652  0.88250261  1
  O  O180  1  0.75756167  0.51186608  0.37578638  1
  O  O181  1  0.75672875  0.50562872  0.86805809  1
  O  O182  1  0.24149023  0.50663978  0.13659609  1
  O  O183  1  0.24489330  0.49749675  0.63580292  1
  O  O184  1  0.26103878  1.00061264  0.13683941  1
  O  O185  1  0.23425581  0.98682256  0.61997700  1
  O  O186  1  0.73153583  0.48931714  0.11502444  1
  O  O187  1  0.74347876  0.50578540  0.62625345  1
  O  O188  1  0.75973876  0.98594568  0.13409225  1
  O  O189  1  0.72482444  1.00647001  0.63582297  1
  O  O190  1  0.01000388  0.36956924  0.25834990  1
  O  O191  1  0.00392428  0.36686830  0.75122290  1
  O  O192  1  0.01042991  0.86871647  0.25151732  1
  O  O193  1  -0.00559525  0.86033616  0.75084047  1
  O  O194  1  0.51242373  0.36098620  0.25429070  1
  O  O195  1  0.51990071  0.41793720  0.76781377  1
  O  O196  1  0.50927786  0.88241840  0.25464945  1
  O  O197  1  0.47547022  0.85977448  0.74416450  1
  O  O198  1  0.50660727  0.13680514  0.24380088  1
  O  O199  1  0.47841992  0.11705345  0.73466426  1
  O  O200  1  0.49258375  0.61971504  0.25261842  1
  O  O201  1  0.49282687  0.61498600  0.74074678  1
  O  O202  1  0.99104261  0.13472934  0.25348744  1
  O  O203  1  0.99339430  0.13071974  0.74123485  1
  O  O204  1  1.00428922  0.63943436  0.25688546  1
  O  O205  1  0.99022999  0.63490927  0.75284505  1
  O  O206  1  0.38148852  0.25082648  0.01295485  1
  O  O207  1  0.35998901  0.25593770  0.49488294  1
  O  O208  1  0.36376507  0.76237187  0.00685259  1
  O  O209  1  0.36091226  0.74970410  0.50218951  1
  O  O210  1  0.88974813  0.26757336  -0.00157966  1
  O  O211  1  0.87567466  0.26271936  0.49038447  1
  O  O212  1  0.87055674  0.75343305  0.00253402  1
  O  O213  1  0.86992886  0.74821084  0.50672712  1
  O  O214  1  0.14386724  0.25986733  0.49554348  1
  O  O215  1  0.11237876  0.23645134  0.98663647  1
  O  O216  1  0.13748500  0.73576489  0.50201586  1
  O  O217  1  0.12631789  0.74479225  0.99294155  1
  O  O218  1  0.61609596  0.24379392  0.48562506  1
  O  O219  1  0.61820205  0.29744572  0.98164175  1
  O  O220  1  0.63461020  0.74212749  0.49696033  1
  O  O221  1  0.64491367  0.75011875  1.01016723  1
  O  O222  1  0.49698260  0.24381395  0.13811347  1
  O  O223  1  0.49650355  0.24102083  0.62725925  1
  O  O224  1  0.48583425  0.75410432  0.11899930  1
  O  O225  1  0.49292280  0.74567487  0.62390209  1
  O  O226  1  0.99599791  0.26135492  0.13799599  1
  O  O227  1  1.01343669  0.23836715  0.63302750  1
  O  O228  1  0.99204339  0.75161280  0.13389620  1
  O  O229  1  0.99010714  0.75644709  0.62896251  1
  O  O230  1  0.00020174  0.26339317  0.36316072  1
  O  O231  1  0.00811029  0.25516749  0.86267331  1
  O  O232  1  -0.00794421  0.76272969  0.35878872  1
  O  O233  1  0.00689604  0.75221610  0.86535541  1
  O  O234  1  0.50831799  0.24654479  0.36561772  1
  O  O235  1  0.52637316  0.19841468  0.86569590  1
  O  O236  1  0.49973458  0.76090117  0.36954504  1
  O  O237  1  0.50681760  0.75928923  0.91554674  1
  O  O238  1  0.25222559  0.13788941  0.50403605  1
  O  O239  1  0.23128991  0.11797903  1.00468864  1
  O  O240  1  0.24716514  0.63572359  0.49545526  1
  O  O241  1  0.23922838  0.63498966  0.99202464  1
  O  O242  1  0.75302581  0.10813985  0.47604138  1
  O  O243  1  0.75473798  0.12753226  0.98921167  1
  O  O244  1  0.74553060  0.63270754  0.49161188  1
  O  O245  1  0.75140319  0.62500055  0.98150639  1
  O  O246  1  0.24202163  0.37310020  0.01020676  1
  O  O247  1  0.25501309  0.37654807  0.50974593  1
  O  O248  1  0.25920169  0.87039642  -0.00689155  1
  O  O249  1  0.24808883  0.86053566  0.49838655  1
  O  O250  1  0.77062715  0.37510691  -0.00691641  1
  O  O251  1  0.75745930  0.36888943  0.49325910  1
  O  O252  1  0.75959076  0.86679718  0.00229333  1
  O  O253  1  0.74189941  0.86483760  0.49927166  1
  O  O254  1  0.13101863  0.49487604  0.24243248  1
  O  O255  1  0.13157786  0.49890437  0.74469765  1
  O  O256  1  0.13395910  0.98882932  0.24447525  1
  O  O257  1  0.11612805  0.99617316  0.73934181  1
  O  O258  1  0.62251003  0.48530805  0.24308165  1
  O  O259  1  0.64185853  0.50887674  0.72952415  1
  O  O260  1  0.63860595  0.99181295  0.25427591  1
  O  O261  1  0.59932807  1.00158956  0.74662644  1
  O  O262  1  0.36078298  -0.01078403  0.26149160  1
  O  O263  1  0.36885413  0.00580738  0.76762487  1
  O  O264  1  0.36508754  0.49318743  0.25779347  1
  O  O265  1  0.36422481  0.50748853  0.76247361  1
  O  O266  1  0.86889774  0.00442092  0.25481446  1
  O  O267  1  0.88381920  0.00743464  0.75701426  1
  O  O268  1  0.88105138  0.49975327  0.26326257  1
  O  O269  1  0.87379142  0.50446372  0.75353164  1
  O  O270  1  0.11422128  0.38133874  0.36776738  1
  O  O271  1  0.11945595  0.36775574  0.86785715  1
  O  O272  1  0.10932309  0.87743572  0.35955010  1
  O  O273  1  0.12469222  0.86188402  0.88129661  1
  O  O274  1  0.62455495  0.36713661  0.36646112  1
  O  O275  1  0.61821565  0.34747737  0.91798490  1
  O  O276  1  0.61509506  0.87795146  0.36607362  1
  O  O277  1  0.61462175  0.88311086  0.86206945  1
  O  O278  1  0.39310473  0.14082932  0.12942933  1
  O  O279  1  0.37973071  0.11771763  0.63302459  1
  O  O280  1  0.36414309  0.64849085  0.12400112  1
  O  O281  1  0.38832911  0.61398125  0.63319400  1
  O  O282  1  0.86900470  0.12182747  0.13732570  1
  O  O283  1  0.88959306  0.11606718  0.63391895  1
  O  O284  1  0.86727020  0.63360153  0.12310002  1
  O  O285  1  0.87120393  0.63153710  0.63188351  1
  O  O286  1  0.26793640  0.23774744  0.13573146  1
  O  O287  1  0.24277778  0.26303908  0.61418762  1
  O  O288  1  0.24839370  0.75181707  0.11182047  1
  O  O289  1  0.24381792  0.76252040  0.61403815  1
  O  O290  1  0.75515928  0.25640096  0.11408296  1
  O  O291  1  0.70976333  0.17949868  0.59017233  1
  O  O292  1  0.76026072  0.75480314  0.11669785  1
  O  O293  1  0.76122797  0.74592135  0.60973541  1
  O  O294  1  0.24766252  0.24565229  0.38528220  1
  O  O295  1  0.23141751  0.25176770  0.87223582  1
  O  O296  1  0.25511662  0.74119899  0.38461243  1
  O  O297  1  0.23969440  0.73921267  0.88345127  1
  O  O298  1  0.74157401  0.23639078  0.36574771  1
  O  O299  1  0.75610477  0.23558215  0.88349894  1
  O  O300  1  0.75313332  0.74337611  0.38283835  1
  O  O301  1  0.75351167  0.72964318  0.87969163  1
  O  O302  1  -0.00411406  0.11294579  0.00149202  1
  O  O303  1  -0.00564691  0.11678892  0.50676324  1
  O  O304  1  0.00832521  0.61649119  -0.00840868  1
  O  O305  1  0.01657754  0.63186420  0.49110338  1
  O  O306  1  0.49958782  0.11617218  0.01441114  1
  O  O307  1  0.50746635  0.12808596  0.51519866  1
  O  O308  1  0.47857256  0.60335627  0.01286402  1
  O  O309  1  0.51026438  0.62088498  0.50709676  1
  O  O310  1  0.50197189  0.38720950  0.50122976  1
  O  O311  1  0.47126807  0.40207957  1.01017336  1
  O  O312  1  0.49875370  0.87756137  0.48548284  1
  O  O313  1  0.48754471  0.89937423  1.01103346  1
  O  O314  1  1.00132940  0.36980813  0.48604566  1
  O  O315  1  0.99645314  0.38767308  0.99397097  1
  O  O316  1  1.00586196  0.87879528  0.48083014  1
  O  O317  1  0.98858424  0.88085727  0.99607448  1
  O  O318  1  0.49782535  0.50130695  0.38688568  1
  O  O319  1  0.48054301  0.50907273  0.89393456  1
  O  O320  1  0.48744844  0.99466053  0.37274802  1
  O  O321  1  0.49087186  1.01264541  0.89734482  1
  O  O322  1  0.99477725  0.48660285  0.37244390  1
  O  O323  1  0.99509581  0.49599274  0.88079698  1
  O  O324  1  0.99547298  0.99082066  0.37428310  1
  O  O325  1  0.98889913  0.99675147  0.88443604  1
  O  O326  1  -0.00904753  -0.00586488  0.11074870  1
  O  O327  1  0.00998526  0.00129043  0.61374045  1
  O  O328  1  0.01162099  0.50002077  0.11434230  1
  O  O329  1  0.01290017  0.49796265  0.63038982  1
  O  O330  1  0.49767668  0.01520543  0.12191108  1
  O  O331  1  0.50523181  0.00031478  0.61490157  1
  O  O332  1  0.51498866  0.49613089  0.12440481  1
  O  O333  1  0.51827902  0.50880239  0.61597907  1
  O  O334  1  0.23784659  0.38721116  0.26198256  1
  O  O335  1  0.24433286  0.38380709  0.74354729  1
  O  O336  1  0.23342905  0.88169217  0.25378984  1
  O  O337  1  0.24379471  0.86888401  0.73591315  1
  O  O338  1  0.73709390  0.36730834  0.25212260  1
  O  O339  1  0.76021658  0.38836304  0.75433170  1
  O  O340  1  0.74480020  0.87779546  0.24251438  1
  O  O341  1  0.72355794  0.83632864  0.74219198  1
  O  O342  1  0.24316796  0.10446214  0.25376406  1
  O  O343  1  0.26190902  0.12642140  0.73850995  1
  O  O344  1  0.24080324  0.61448542  0.26194044  1
  O  O345  1  0.25616847  0.62020341  0.75331000  1
  O  O346  1  0.75566732  0.11506176  0.25466545  1
  O  O347  1  0.76805695  0.13649271  0.75583931  1
  O  O348  1  0.75350237  0.63649104  0.26319030  1
  O  O349  1  0.76268947  0.61594039  0.75951649  1
  O  O350  1  0.37540474  0.10989836  0.37745355  1
  O  O351  1  0.37205378  0.11634576  0.86702883  1
  O  O352  1  0.36538325  0.61360288  0.38161333  1
  O  O353  1  0.36408448  0.62040681  0.86641174  1
  O  O354  1  0.86988244  0.11548301  0.36215579  1
  O  O355  1  0.87294920  0.11622917  0.86629972  1
  O  O356  1  0.86955017  0.61608450  0.37409667  1
  O  O357  1  0.87408461  0.61146682  0.86538446  1
  O  O358  1  0.12161177  0.38607935  0.13573908  1
  O  O359  1  0.13451055  0.38647594  0.63024951  1
  O  O360  1  0.12291760  0.87571801  0.13274748  1
  O  O361  1  0.12952016  0.88444049  0.62195187  1
  O  O362  1  0.62408142  0.37385551  0.14037994  1
  O  O363  1  0.63119290  0.38764248  0.61864101  1
  O  O364  1  0.63898909  0.87043323  0.13203903  1
  O  O365  1  0.62206871  0.89086184  0.62361086  1
  O  O366  1  0.11909827  0.26021705  0.25167922  1
  O  O367  1  0.11721807  0.25260388  0.75808989  1
  O  O368  1  0.11326908  0.75923139  0.24120061  1
  O  O369  1  0.11517411  0.73985889  0.75804261  1
  O  O370  1  0.61883798  0.25674354  0.25920285  1
  O  O371  1  0.61200305  0.25204906  0.76721593  1
  O  O372  1  0.61910136  0.76424701  0.25178486  1
  O  O373  1  0.66438636  0.78080546  0.74426597  1
  O  O374  1  0.38992252  0.25332961  0.25465725  1
  O  O375  1  0.37413773  0.23716984  0.76060403  1
  O  O376  1  0.37632383  0.76756648  0.23071901  1
  O  O377  1  0.37188668  0.73503462  0.74256308  1
  O  O378  1  0.88203041  0.24085488  0.24716620  1
  O  O379  1  0.88893067  0.24301264  0.75393191  1
  O  O380  1  0.88745117  0.74745811  0.23852406  1
  O  O381  1  0.88191356  0.74069772  0.74041152  1
  O  O382  1  0.38794034  0.50220634  0.49492460  1
  O  O383  1  0.35592121  0.50463251  0.98561691  1
  O  O384  1  0.37347312  0.99383190  0.48679762  1
  O  O385  1  0.36643074  0.99736337  0.99933139  1
  O  O386  1  0.87327631  0.48481992  0.48377714  1
  O  O387  1  0.88288630  0.49517725  0.99224482  1
  O  O388  1  0.88833192  0.99877886  0.48302149  1
  O  O389  1  0.88266951  0.99042708  0.99286937  1
  O  O390  1  0.10830267  0.01249581  -0.00484325  1
  O  O391  1  0.11435029  -0.00397689  0.49978452  1
  O  O392  1  0.11939484  0.50778705  0.00426175  1
  O  O393  1  0.13229809  0.51383158  0.50980996  1
  O  O394  1  0.61793583  -0.00352382  0.00020397  1
  O  O395  1  0.62452620  0.02205107  0.50462212  1
  O  O396  1  0.61222294  0.49865725  0.01200634  1
  O  O397  1  0.62442093  0.50925503  0.50742252  1
  O  O398  1  0.37926169  0.35415065  0.13388734  1
  O  O399  1  0.36298089  0.38403716  0.62780232  1
  O  O400  1  0.37301845  0.87166654  0.10897191  1
  O  O401  1  0.36308019  0.87144260  0.62753099  1
  O  O402  1  0.87743451  0.38255952  0.11034670  1
  O  O403  1  0.87499032  0.37590710  0.60549755  1
  O  O404  1  0.86716997  0.86237452  0.11477673  1
  O  O405  1  0.86174609  0.86387422  0.63355417  1
  O  O406  1  0.12379488  0.12310438  0.37610920  1
  O  O407  1  0.12052890  0.13468254  0.87795096  1
  O  O408  1  0.13930893  0.61415315  0.39020873  1
  O  O409  1  0.13023626  0.63190371  0.88333002  1
  O  O410  1  0.63341279  0.13070627  0.38009583  1
  O  O411  1  0.65487401  0.10740242  0.86399039  1
  O  O412  1  0.63487268  0.62524391  0.38549423  1
  O  O413  1  0.63553130  0.60826571  0.86216683  1
