# generated using pymatgen
data_V79Zn79O256
_symmetry_space_group_name_H-M   'P 1'
_cell_length_a   16.88123711
_cell_length_b   16.87832947
_cell_length_c   16.85800966
_cell_angle_alpha   89.96510528
_cell_angle_beta   90.11333553
_cell_angle_gamma   89.94207392
_symmetry_Int_Tables_number   1
_chemical_formula_structural   V79Zn79O256
_chemical_formula_sum   'V79 Zn79 O256'
_cell_volume   4803.29074880
_cell_formula_units_Z   1
loop_
 _symmetry_equiv_pos_site_id
 _symmetry_equiv_pos_as_xyz
  1  'x, y, z'
loop_
 _atom_site_type_symbol
 _atom_site_label
 _atom_site_symmetry_multiplicity
 _atom_site_fract_x
 _atom_site_fract_y
 _atom_site_fract_z
 _atom_site_occupancy
  V  V0  1  0.36741233  0.74549478  0.13037744  1
  V  V1  1  0.00154260  0.12951369  0.64205024  1
  V  V2  1  0.51190633  0.12029698  0.62748353  1
  V  V3  1  0.75851726  0.37971542  0.12441046  1
  V  V4  1  0.50197972  0.87615381  0.37538905  1
  V  V5  1  0.37748586  0.25142155  0.62653120  1
  V  V6  1  0.62809549  0.38014020  0.24743359  1
  V  V7  1  0.63694701  0.11834213  0.00230182  1
  V  V8  1  0.36473427  0.12572651  0.25424299  1
  V  V9  1  0.23733260  0.50778049  0.75674765  1
  V  V10  1  0.38475863  -0.00207020  0.87807699  1
  V  V11  1  -0.01686063  0.88286728  0.37253230  1
  V  V12  1  0.00687194  0.37640788  0.86131332  1
  V  V13  1  0.74899112  -0.00204694  0.73368390  1
  V  V14  1  0.00015303  0.73774439  0.24432591  1
  V  V15  1  0.61831740  0.24488973  0.36319348  1
  V  V16  1  0.25074772  0.12811437  0.88140664  1
  V  V17  1  0.74919719  0.76099848  0.49977883  1
  V  V18  1  0.12251944  0.74595334  0.38116822  1
  V  V19  1  0.49896337  0.38249030  0.88431509  1
  V  V20  1  0.88347519  0.37282349  0.00218664  1
  V  V21  1  0.87681750  0.73365106  0.12850136  1
  V  V22  1  0.50245729  0.24768218  0.75567632  1
  V  V23  1  0.00208422  0.25107306  0.25491585  1
  V  V24  1  0.24509941  -0.00115115  0.74707336  1
  V  V25  1  0.74922071  0.37089749  0.61981546  1
  V  V26  1  0.88791249  0.37942373  0.49200378  1
  V  V27  1  0.88036015  0.50077158  0.88069081  1
  V  V28  1  0.61820330  0.62474103  0.48917287  1
  V  V29  1  0.87690540  0.11764344  0.25127855  1
  V  V30  1  0.37213205  0.62389496  0.25341391  1
  V  V31  1  0.01652492  0.12235340  0.11873332  1
  V  V32  1  0.75841730  0.62284228  0.36725689  1
  V  V33  1  0.37746865  0.38207447  0.00838637  1
  V  V34  1  0.62210981  0.77027167  0.87490563  1
  V  V35  1  0.62755843  0.12182833  0.50148506  1
  V  V36  1  0.12040567  0.49369921  0.60192221  1
  V  V37  1  0.87247192  0.24783132  0.11837371  1
  V  V38  1  0.36364466  -0.00049431  0.37240804  1
  V  V39  1  0.38220256  0.38553668  0.49754581  1
  V  V40  1  0.24384009  0.89077443  0.12743613  1
  V  V41  1  0.49161800  0.61886921  0.62805092  1
  V  V42  1  0.49894573  -0.00237742  0.50077034  1
  V  V43  1  0.37172908  0.75792134  0.62983144  1
  V  V44  1  0.11073162  0.49850078  0.12086164  1
  V  V45  1  0.12611907  0.25390286  0.85800533  1
  V  V46  1  0.24349866  0.25771230  0.00944177  1
  V  V47  1  0.50244716  0.74586590  0.25493304  1
  V  V48  1  0.87632414  0.87776311  0.01001204  1
  V  V49  1  0.00158775  0.87573867  0.87638968  1
  V  V50  1  0.12761153  0.74188580  0.87512779  1
  V  V51  1  0.13016279  0.24095303  0.37643084  1
  V  V52  1  0.12687005  0.37327207  0.25109347  1
  V  V53  1  0.62031493  0.50559212  0.11759322  1
  V  V54  1  0.62301031  0.88232214  0.23457109  1
  V  V55  1  0.50390103  0.11751992  0.12851865  1
  V  V56  1  0.74812837  0.50133698  0.74534420  1
  V  V57  1  0.12646291  0.88761755  0.24740104  1
  V  V58  1  -0.00266895  0.75063183  0.74740153  1
  V  V59  1  0.62185479  0.87536817  0.72923060  1
  V  V60  1  0.74528725  0.62625861  0.87688458  1
  V  V61  1  -0.00741596  0.00915335  0.49818630  1
  V  V62  1  0.87467104  0.62815682  0.74294856  1
  V  V63  1  0.37848150  0.87613865  0.00002804  1
  V  V64  1  0.62541269  0.37615211  0.75220241  1
  V  V65  1  0.86378325  0.01314759  0.87639155  1
  V  V66  1  0.24555989  0.61114346  0.38034593  1
  V  V67  1  0.25579749  0.75467542  0.49657326  1
  V  V68  1  0.25418403  0.49356423  0.23648469  1
  V  V69  1  0.75293815  0.75346700  0.00175195  1
  V  V70  1  0.63679774  0.24935579  0.88889955  1
  V  V71  1  0.37377544  0.51496751  0.87179231  1
  V  V72  1  0.38301722  0.25701777  0.12961546  1
  V  V73  1  0.01624277  0.00271870  0.00134357  1
  V  V74  1  0.00370677  0.62220911  0.60750467  1
  V  V75  1  0.75428038  0.11738598  0.36952207  1
  V  V76  1  0.10735995  0.62181336  0.00606194  1
  V  V77  1  0.25270569  0.24287542  0.49668871  1
  V  V78  1  0.24600087  0.74011520  0.00073023  1
  Zn  Zn79  1  0.87350626  0.49898499  0.36720321  1
  Zn  Zn80  1  0.61125148  0.49643990  0.61328411  1
  Zn  Zn81  1  0.60250981  0.61547175  -0.00445657  1
  Zn  Zn82  1  0.37954010  0.12247979  0.75376827  1
  Zn  Zn83  1  0.75469511  -0.01005630  0.23856957  1
  Zn  Zn84  1  0.48675578  0.75438612  0.75955407  1
  Zn  Zn85  1  0.13438553  0.10830451  0.50525513  1
  Zn  Zn86  1  0.85249667  0.78974144  0.62462474  1
  Zn  Zn87  1  0.12393224  0.87719849  0.74224176  1
  Zn  Zn88  1  0.23721160  0.36881123  0.63291110  1
  Zn  Zn89  1  0.88393915  0.24971112  0.63437171  1
  Zn  Zn90  1  0.50862979  -0.00764553  -0.00043983  1
  Zn  Zn91  1  0.75233214  0.24846227  0.49760194  1
  Zn  Zn92  1  0.50069439  0.38313260  0.38122188  1
  Zn  Zn93  1  0.23907016  0.89233946  0.60856031  1
  Zn  Zn94  1  0.19249906  0.18770866  0.18797133  1
  Zn  Zn95  1  0.18817084  0.17904365  0.68391986  1
  Zn  Zn96  1  0.18355686  0.68435857  0.18863364  1
  Zn  Zn97  1  0.18277701  0.68321004  0.68220810  1
  Zn  Zn98  1  0.69314379  0.18541560  0.18167708  1
  Zn  Zn99  1  0.73754103  0.19665926  0.71837530  1
  Zn  Zn100  1  0.68781312  0.69067071  0.18585082  1
  Zn  Zn101  1  0.68005195  0.68887857  0.68096393  1
  Zn  Zn102  1  0.31486031  0.31200557  0.31450612  1
  Zn  Zn103  1  0.31155623  0.32267991  0.81369973  1
  Zn  Zn104  1  0.30946808  0.81574772  0.31602084  1
  Zn  Zn105  1  0.31020814  0.81321762  0.81498127  1
  Zn  Zn106  1  0.81002080  0.30586096  0.31043749  1
  Zn  Zn107  1  0.82119335  0.31376663  0.81426789  1
  Zn  Zn108  1  0.80292783  0.80248774  0.31113788  1
  Zn  Zn109  1  0.80977986  0.82141336  0.81461086  1
  Zn  Zn110  1  0.19407115  0.42348628  0.43705493  1
  Zn  Zn111  1  0.19006760  0.43945716  0.93910251  1
  Zn  Zn112  1  0.17823206  0.93472865  0.43243665  1
  Zn  Zn113  1  0.19416240  0.93232333  0.93318846  1
  Zn  Zn114  1  0.68714965  0.44233753  0.43462986  1
  Zn  Zn115  1  0.69439841  0.43517807  0.94206660  1
  Zn  Zn116  1  0.68265079  0.93795765  0.42815275  1
  Zn  Zn117  1  0.68656289  0.93333236  1.06164082  1
  Zn  Zn118  1  0.31496854  0.06864825  0.06210377  1
  Zn  Zn119  1  0.32288798  0.06558515  0.56346468  1
  Zn  Zn120  1  0.31278945  0.56139215  0.06253167  1
  Zn  Zn121  1  0.30590348  0.56473620  0.56976736  1
  Zn  Zn122  1  0.82049478  0.06192293  0.06391161  1
  Zn  Zn123  1  0.82144459  0.06179970  0.55676867  1
  Zn  Zn124  1  0.81138423  0.56042743  0.06487266  1
  Zn  Zn125  1  0.81041919  0.56333179  0.55234164  1
  Zn  Zn126  1  0.45632080  0.44610935  0.21228750  1
  Zn  Zn127  1  0.42903160  0.43630817  0.69469922  1
  Zn  Zn128  1  0.43406501  0.93764713  0.18853312  1
  Zn  Zn129  1  0.43420659  0.93434232  0.68850083  1
  Zn  Zn130  1  0.94704982  0.45148194  0.21668844  1
  Zn  Zn131  1  0.93605052  0.43989955  0.68186503  1
  Zn  Zn132  1  0.94325657  0.93792570  0.18600394  1
  Zn  Zn133  1  0.93505165  0.95494894  0.68694507  1
  Zn  Zn134  1  0.06237699  0.06520109  0.31470923  1
  Zn  Zn135  1  0.06516229  0.06531807  0.82121640  1
  Zn  Zn136  1  0.06287073  0.55797012  0.31878387  1
  Zn  Zn137  1  0.06162985  0.56520148  0.81465387  1
  Zn  Zn138  1  0.55831614  0.05966517  0.30907533  1
  Zn  Zn139  1  0.57804886  0.05975764  0.81474976  1
  Zn  Zn140  1  0.56554250  0.55802576  0.31269120  1
  Zn  Zn141  1  0.55724577  0.56750108  0.80799680  1
  Zn  Zn142  1  0.43937554  0.18877219  0.43676137  1
  Zn  Zn143  1  0.43962969  0.18850106  0.94480012  1
  Zn  Zn144  1  0.43397996  0.68367967  0.43640332  1
  Zn  Zn145  1  0.44190274  0.69017517  0.94641102  1
  Zn  Zn146  1  0.93332709  0.19509775  0.44120986  1
  Zn  Zn147  1  0.94437117  0.18978653  0.93424593  1
  Zn  Zn148  1  0.92827876  0.70010737  0.43496442  1
  Zn  Zn149  1  0.93474315  0.68781585  0.93536345  1
  Zn  Zn150  1  0.05963370  0.31832556  0.06563254  1
  Zn  Zn151  1  0.06215994  0.30668958  0.56349257  1
  Zn  Zn152  1  0.06206492  0.81235424  0.06411913  1
  Zn  Zn153  1  0.03645115  0.83750351  0.57856173  1
  Zn  Zn154  1  0.56170133  0.31335394  0.06991902  1
  Zn  Zn155  1  0.56491337  0.30887227  0.56063160  1
  Zn  Zn156  1  0.55155014  0.78418628  0.06046874  1
  Zn  Zn157  1  0.56007257  0.80607243  0.55557229  1
  O  O158  1  0.11523752  0.12723157  0.12845855  1
  O  O159  1  0.11015721  0.12849402  0.61915372  1
  O  O160  1  0.12526679  0.61021764  0.12061535  1
  O  O161  1  0.11136035  0.61169870  0.62123146  1
  O  O162  1  0.61287472  0.13429012  0.11511117  1
  O  O163  1  0.61624337  0.12835784  0.61405772  1
  O  O164  1  0.63925494  0.60740306  0.12456710  1
  O  O165  1  0.60964628  0.62179955  0.61625148  1
  O  O166  1  0.37627362  0.36837514  0.39325368  1
  O  O167  1  0.38393296  0.38325806  0.88575164  1
  O  O168  1  0.38376635  0.89182892  0.36319648  1
  O  O169  1  0.36705836  0.88336264  0.88875895  1
  O  O170  1  0.86312541  0.36811243  0.39072844  1
  O  O171  1  0.88600400  0.38003203  0.88063530  1
  O  O172  1  0.88503718  0.87159866  0.35831946  1
  O  O173  1  0.88706948  0.87699370  0.88708318  1
  O  O174  1  0.26491526  -0.00437430  0.38153805  1
  O  O175  1  0.25839292  0.01023550  0.87168580  1
  O  O176  1  0.24234902  0.50808155  0.36595801  1
  O  O177  1  0.26117796  0.49906095  0.86786971  1
  O  O178  1  0.74011019  0.01323530  0.36046526  1
  O  O179  1  0.76743589  0.00024459  0.88597820  1
  O  O180  1  0.74821050  0.51799821  0.37665952  1
  O  O181  1  0.75767302  0.50592037  0.86620756  1
  O  O182  1  0.24108097  0.50104661  0.13426829  1
  O  O183  1  0.22928134  0.50195196  0.63065070  1
  O  O184  1  0.24997404  0.98947584  0.11998653  1
  O  O185  1  0.26020771  1.00553478  0.64149158  1
  O  O186  1  0.74680201  0.48603754  0.12243138  1
  O  O187  1  0.74875087  0.49589517  0.63674099  1
  O  O188  1  0.75823762  0.99199777  0.12529635  1
  O  O189  1  0.76285507  0.99856634  0.63480066  1
  O  O190  1  0.01352899  0.35610669  0.23646075  1
  O  O191  1  -0.00723224  0.37369094  0.76238900  1
  O  O192  1  0.01161985  0.87039921  0.25357604  1
  O  O193  1  0.00250287  0.86740648  0.76396133  1
  O  O194  1  0.53063119  0.35579007  0.23000956  1
  O  O195  1  0.50809008  0.36894760  0.75970223  1
  O  O196  1  0.50417457  0.86916652  0.25414151  1
  O  O197  1  0.51407667  0.86947245  0.74322008  1
  O  O198  1  0.49503368  0.12410584  0.23459050  1
  O  O199  1  0.50726060  0.13267848  0.74657781  1
  O  O200  1  0.48861135  0.63985240  0.25932159  1
  O  O201  1  0.50631955  0.63912159  0.73236753  1
  O  O202  1  0.99710303  0.13038882  0.23932368  1
  O  O203  1  1.00063781  0.11472943  0.74149188  1
  O  O204  1  1.00267808  0.64049706  0.25299684  1
  O  O205  1  0.98859793  0.63338138  0.75450331  1
  O  O206  1  0.36891010  0.26130028  0.00843877  1
  O  O207  1  0.37192991  0.25154525  0.50901132  1
  O  O208  1  0.36280162  0.75728309  0.00903228  1
  O  O209  1  0.36063766  0.74885708  0.50147697  1
  O  O210  1  0.88570414  0.25684253  0.00893022  1
  O  O211  1  0.86859429  0.26267136  0.50932434  1
  O  O212  1  0.87454322  0.75590775  0.00933698  1
  O  O213  1  0.85610548  0.75268543  0.50563130  1
  O  O214  1  0.13597149  0.25385856  0.49010399  1
  O  O215  1  0.14140198  0.26036604  1.00140233  1
  O  O216  1  0.13288685  0.74800086  0.48347355  1
  O  O217  1  0.12700060  0.74172853  0.99781288  1
  O  O218  1  0.62712540  0.23780373  0.48867418  1
  O  O219  1  0.62164333  0.24640488  0.99274595  1
  O  O220  1  0.63280029  0.73498291  0.50309655  1
  O  O221  1  0.64192347  0.75535888  0.98744129  1
  O  O222  1  0.48797157  0.23739424  0.11857411  1
  O  O223  1  0.49964506  0.24257872  0.63649075  1
  O  O224  1  0.47510122  0.76360102  0.14986333  1
  O  O225  1  0.47968430  0.74780186  0.61978513  1
  O  O226  1  0.99746592  0.23772784  0.12938386  1
  O  O227  1  1.00175036  0.23705427  0.62942013  1
  O  O228  1  0.99212977  0.75114732  0.13469226  1
  O  O229  1  1.00781877  0.72859925  0.63840110  1
  O  O230  1  0.01005289  0.24376988  0.36176254  1
  O  O231  1  0.01694535  0.26021563  0.87639242  1
  O  O232  1  0.00218798  0.75901952  0.36231661  1
  O  O233  1  0.00489647  0.75573652  0.86895036  1
  O  O234  1  0.51548307  0.25484841  0.37669325  1
  O  O235  1  0.50451198  0.25972414  0.87043507  1
  O  O236  1  0.48372289  0.76228093  0.36250547  1
  O  O237  1  0.51920662  0.74340010  0.87262872  1
  O  O238  1  0.25064472  0.13758405  0.50800507  1
  O  O239  1  0.25745768  0.14310834  0.99113824  1
  O  O240  1  0.25227033  0.62879204  0.48363831  1
  O  O241  1  0.24104388  0.63693954  1.00636528  1
  O  O242  1  0.74269251  0.11991558  0.48977158  1
  O  O243  1  0.73541531  0.12664123  1.01134160  1
  O  O244  1  0.73674468  0.63108070  0.49299397  1
  O  O245  1  0.75726090  0.63546339  0.98793929  1
  O  O246  1  0.26224276  0.36477079  -0.00373255  1
  O  O247  1  0.26276192  0.36139247  0.50964427  1
  O  O248  1  0.25122559  0.86638597  0.01396580  1
  O  O249  1  0.24564144  0.85828536  0.49364291  1
  O  O250  1  0.76996178  0.37550100  0.00786805  1
  O  O251  1  0.74505767  0.37708873  0.51194296  1
  O  O252  1  0.76296900  0.86283691  -0.00086404  1
  O  O253  1  0.73458817  0.86070506  0.49162427  1
  O  O254  1  0.13448401  0.49413037  0.24037039  1
  O  O255  1  0.13524465  0.49878484  0.75887636  1
  O  O256  1  0.12405482  0.98635061  0.25376604  1
  O  O257  1  0.14184733  1.00176825  0.75974591  1
  O  O258  1  0.63297894  0.48448419  0.23848206  1
  O  O259  1  0.63194080  0.49063654  0.75410029  1
  O  O260  1  0.61905864  0.98506027  0.24075960  1
  O  O261  1  0.63063868  0.98205099  0.74870330  1
  O  O262  1  0.37851285  0.01315764  0.26004329  1
  O  O263  1  0.36763311  -0.00008867  0.76168277  1
  O  O264  1  0.35952771  0.50861879  0.23665219  1
  O  O265  1  0.37231756  0.50566187  0.76723766  1
  O  O266  1  0.87933990  0.01413588  0.24505641  1
  O  O267  1  0.85989219  -0.00822479  0.76498907  1
  O  O268  1  0.84922057  0.48263246  0.25353870  1
  O  O269  1  0.86683494  0.50679536  0.75839723  1
  O  O270  1  0.12975259  0.36465642  0.35887066  1
  O  O271  1  0.11568523  0.36921989  0.87818065  1
  O  O272  1  0.12240456  0.86337057  0.35758241  1
  O  O273  1  0.11571554  0.86247959  0.87662340  1
  O  O274  1  0.63100377  0.36429714  0.36161531  1
  O  O275  1  0.61920505  0.36923108  0.87435512  1
  O  O276  1  0.60731530  0.87832267  0.35815409  1
  O  O277  1  0.62129613  0.86735734  0.87447235  1
  O  O278  1  0.38255044  0.13234172  0.13410940  1
  O  O279  1  0.39034448  0.13709673  0.63052989  1
  O  O280  1  0.36515447  0.63558040  0.13706486  1
  O  O281  1  0.38545385  0.63477859  0.61627578  1
  O  O282  1  0.88486005  0.13358456  0.13131814  1
  O  O283  1  0.89497050  0.12754299  0.61602883  1
  O  O284  1  0.87960474  0.63461456  0.12104698  1
  O  O285  1  0.88680224  0.61424144  0.63569663  1
  O  O286  1  0.26144518  0.24751077  0.11422361  1
  O  O287  1  0.26218608  0.24931189  0.62275994  1
  O  O288  1  0.25203532  0.75577972  0.12052166  1
  O  O289  1  0.25761785  0.73662087  0.60767396  1
  O  O290  1  0.76643998  0.25589080  0.12402924  1
  O  O291  1  0.73751165  0.26522609  0.62272547  1
  O  O292  1  0.76564198  0.74472624  0.11616143  1
  O  O293  1  0.74961659  0.74642747  0.61239749  1
  O  O294  1  0.24440885  0.25316643  0.38525174  1
  O  O295  1  0.24288577  0.25047129  0.88185554  1
  O  O296  1  0.24387077  0.74160069  0.38058677  1
  O  O297  1  0.23754058  0.75805972  0.88764091  1
  O  O298  1  0.73791060  0.23593919  0.37631297  1
  O  O299  1  0.73482030  0.25897302  0.87763401  1
  O  O300  1  0.75016983  0.73736797  0.38974232  1
  O  O301  1  0.74489942  0.74450168  0.87948251  1
  O  O302  1  0.00228599  0.12004040  0.01174011  1
  O  O303  1  0.00356666  0.11425942  0.48717606  1
  O  O304  1  0.00743378  0.62619201  0.00002397  1
  O  O305  1  -0.00804371  0.63196179  0.50983886  1
  O  O306  1  0.50530925  0.12116111  0.01191258  1
  O  O307  1  0.50750675  0.11992346  0.50688051  1
  O  O308  1  0.51471775  0.67461401  0.02884927  1
  O  O309  1  0.50881032  0.63236178  0.50751467  1
  O  O310  1  0.48997066  0.37472500  0.50091455  1
  O  O311  1  0.49283736  0.37176738  0.99285338  1
  O  O312  1  0.50658797  0.88603346  0.49018393  1
  O  O313  1  0.48145533  0.87274906  1.01293219  1
  O  O314  1  0.98712449  0.37013040  0.49987990  1
  O  O315  1  0.99048245  0.37545596  0.99056286  1
  O  O316  1  1.00254588  0.87879195  0.47508485  1
  O  O317  1  0.99727775  0.88162596  0.99551930  1
  O  O318  1  0.48935897  0.47863873  0.32397665  1
  O  O319  1  0.49036312  0.49280129  0.87070575  1
  O  O320  1  0.49257664  0.99483009  0.38121275  1
  O  O321  1  0.48815217  1.00756294  0.87725047  1
  O  O322  1  0.98127770  0.48590198  0.32898332  1
  O  O323  1  0.99224697  0.48844373  0.86989948  1
  O  O324  1  0.99832018  0.98841162  0.37257112  1
  O  O325  1  0.99656176  0.99174122  0.88132976  1
  O  O326  1  0.00006240  0.01388048  0.11707758  1
  O  O327  1  0.00061699  0.01471661  0.60856854  1
  O  O328  1  0.01195272  0.49616150  0.13060419  1
  O  O329  1  0.01008166  0.51014562  0.62750434  1
  O  O330  1  0.49200690  0.01293835  0.12063136  1
  O  O331  1  0.48832919  0.00989823  0.61493035  1
  O  O332  1  0.52068059  0.49725718  0.12825597  1
  O  O333  1  0.49221164  0.51451232  0.63357511  1
  O  O334  1  0.24767698  0.38845233  0.25305077  1
  O  O335  1  0.26419540  0.39699014  0.74155890  1
  O  O336  1  0.23818379  0.87117341  0.23868597  1
  O  O337  1  0.24852276  0.89212255  0.75532770  1
  O  O338  1  0.73916583  0.35989086  0.23516279  1
  O  O339  1  0.74257358  0.38370455  0.74499633  1
  O  O340  1  0.72566175  0.86748483  0.25376966  1
  O  O341  1  0.73759951  0.88482883  0.75240396  1
  O  O342  1  0.26520110  0.12210809  0.24656453  1
  O  O343  1  0.25494743  0.11735758  0.76166745  1
  O  O344  1  0.25267184  0.61393628  0.25726777  1
  O  O345  1  0.24971952  0.60811387  0.74187597  1
  O  O346  1  0.76156923  0.12452834  0.25193736  1
  O  O347  1  0.72538529  0.09463884  0.75887249  1
  O  O348  1  0.74435164  0.63995216  0.26879018  1
  O  O349  1  0.75503935  0.62044688  0.75486828  1
  O  O350  1  0.38252859  0.11953767  0.36123538  1
  O  O351  1  0.36814749  0.11998885  0.87664885  1
  O  O352  1  0.35876405  0.62637488  0.36401244  1
  O  O353  1  0.38238509  0.61372324  0.88685895  1
  O  O354  1  0.86520414  0.13529452  0.36322916  1
  O  O355  1  0.88091315  0.11261416  0.88065890  1
  O  O356  1  0.86306249  0.62329663  0.37953970  1
  O  O357  1  0.86708300  0.62001029  0.86567721  1
  O  O358  1  0.12725838  0.38691277  0.13401127  1
  O  O359  1  0.11855474  0.39000876  0.62260509  1
  O  O360  1  0.13308424  0.87301410  0.13475472  1
  O  O361  1  0.13326353  0.85846127  0.63094758  1
  O  O362  1  0.63945341  0.37980617  0.12498712  1
  O  O363  1  0.62706417  0.37962491  0.63615872  1
  O  O364  1  0.61594472  0.86488645  0.12887324  1
  O  O365  1  0.62535252  0.86804412  0.63049963  1
  O  O366  1  0.12490610  0.25390378  0.25464542  1
  O  O367  1  0.13586005  0.25646597  0.75985244  1
  O  O368  1  0.11300463  0.75432365  0.25293071  1
  O  O369  1  0.11611752  0.74353380  0.76082961  1
  O  O370  1  0.63061278  0.24646004  0.26078293  1
  O  O371  1  0.62033999  0.26010608  0.76508024  1
  O  O372  1  0.60477694  0.75388361  0.24313058  1
  O  O373  1  0.63402921  0.76328698  0.76135192  1
  O  O374  1  0.37045688  0.24042029  0.24180384  1
  O  O375  1  0.38815825  0.25235451  0.74707230  1
  O  O376  1  0.36896222  0.74153480  0.24760444  1
  O  O377  1  0.36751839  0.75116437  0.73604851  1
  O  O378  1  0.88589652  0.24306307  0.24073419  1
  O  O379  1  0.84316398  0.23585521  0.74082051  1
  O  O380  1  0.88416005  0.75398105  0.23578718  1
  O  O381  1  0.88057503  0.74412961  0.75023127  1
  O  O382  1  0.36515140  0.48315066  0.51015530  1
  O  O383  1  0.36671813  0.49093297  0.99073709  1
  O  O384  1  0.38681010  1.01108701  0.48367333  1
  O  O385  1  0.37176710  0.99194968  0.99396064  1
  O  O386  1  0.87194816  0.48518308  0.49391380  1
  O  O387  1  0.87209972  0.49548896  0.98594779  1
  O  O388  1  0.89181011  0.99768774  0.49146258  1
  O  O389  1  0.88889520  0.99405592  0.99241262  1
  O  O390  1  0.11566131  -0.00442417  -0.00810960  1
  O  O391  1  0.10765295  -0.00284599  0.49035436  1
  O  O392  1  0.12916664  0.50535290  0.01267760  1
  O  O393  1  0.12684792  0.49479010  0.50242100  1
  O  O394  1  0.62484230  0.01354482  -0.00059299  1
  O  O395  1  0.61270824  0.01254723  0.48971388  1
  O  O396  1  0.62881553  0.50111456  0.00936959  1
  O  O397  1  0.62343920  0.51565472  0.49921508  1
  O  O398  1  0.38847498  0.36851178  0.11977188  1
  O  O399  1  0.38368813  0.36107444  0.61758733  1
  O  O400  1  0.35754349  0.87009810  0.12422840  1
  O  O401  1  0.36216856  0.86191927  0.62360713  1
  O  O402  1  0.87569189  0.36642377  0.11922295  1
  O  O403  1  0.86430631  0.37652941  0.61572641  1
  O  O404  1  0.88522272  0.86791492  0.11354836  1
  O  O405  1  0.93076218  0.86445342  0.62300422  1
  O  O406  1  0.12892332  0.13734962  0.37449197  1
  O  O407  1  0.13473461  0.14432082  0.87430509  1
  O  O408  1  0.13738983  0.63113603  0.36557020  1
  O  O409  1  0.12011367  0.63497957  0.88765966  1
  O  O410  1  0.62722257  0.13180051  0.37653420  1
  O  O411  1  0.62043689  0.13909946  0.89025931  1
  O  O412  1  0.62463769  0.62467417  0.38381076  1
  O  O413  1  0.63639176  0.62514206  0.87610396  1
