# generated using pymatgen
data_V79Zn79O256
_symmetry_space_group_name_H-M   'P 1'
_cell_length_a   16.94010077
_cell_length_b   16.93103663
_cell_length_c   16.91838163
_cell_angle_alpha   89.96109082
_cell_angle_beta   90.05036771
_cell_angle_gamma   90.12481030
_symmetry_Int_Tables_number   1
_chemical_formula_structural   V79Zn79O256
_chemical_formula_sum   'V79 Zn79 O256'
_cell_volume   4852.40518586
_cell_formula_units_Z   1
loop_
 _symmetry_equiv_pos_site_id
 _symmetry_equiv_pos_as_xyz
  1  'x, y, z'
loop_
 _atom_site_type_symbol
 _atom_site_label
 _atom_site_symmetry_multiplicity
 _atom_site_fract_x
 _atom_site_fract_y
 _atom_site_fract_z
 _atom_site_occupancy
  V  V0  1  0.87625807  0.37801115  0.48735000  1
  V  V1  1  -0.01606045  0.75212799  0.24010563  1
  V  V2  1  0.63446454  0.74571950  0.38316891  1
  V  V3  1  0.63290129  0.00671603  0.12307029  1
  V  V4  1  0.50390758  0.62282311  0.12321893  1
  V  V5  1  -0.00153401  0.38168733  0.87355873  1
  V  V6  1  0.36103857  0.11491685  0.76115971  1
  V  V7  1  0.37738289  0.50531523  0.87155010  1
  V  V8  1  0.62302474  0.38299924  0.24554693  1
  V  V9  1  0.37357137  0.88297237  0.00543376  1
  V  V10  1  0.87580253  0.12245434  0.74791343  1
  V  V11  1  0.50802007  0.52210696  0.50273679  1
  V  V12  1  0.00189349  0.24754160  0.75124091  1
  V  V13  1  0.87414008  0.62377922  0.75632696  1
  V  V14  1  0.13963134  0.24867850  0.87491849  1
  V  V15  1  0.63747996  0.62741827  -0.00059414  1
  V  V16  1  0.74976321  0.11328934  0.36823365  1
  V  V17  1  0.37465757  0.88093115  0.50581765  1
  V  V18  1  -0.01396548  0.62088710  0.12487952  1
  V  V19  1  0.62492207  0.24738215  0.37186275  1
  V  V20  1  0.00279389  0.62597824  0.62635481  1
  V  V21  1  0.49594888  0.11910218  0.61725153  1
  V  V22  1  0.50073776  0.37460338  0.87176219  1
  V  V23  1  0.88387914  -0.00150198  0.37461717  1
  V  V24  1  0.48407125  0.12706171  0.12781176  1
  V  V25  1  0.87300066  -0.00120318  0.87607291  1
  V  V26  1  0.12884206  0.86221242  0.23746394  1
  V  V27  1  0.87556950  0.24833413  0.62237596  1
  V  V28  1  0.25345835  0.25142315  0.01993349  1
  V  V29  1  0.24932644  0.74972025  0.50428647  1
  V  V30  1  0.24087289  0.00500812  0.23836273  1
  V  V31  1  0.37880530  0.49665147  0.38056137  1
  V  V32  1  0.75325700  0.24795596  0.00281929  1
  V  V33  1  0.12318315  0.62788587  0.49389476  1
  V  V34  1  0.49482571  0.25074618  0.75114420  1
  V  V35  1  0.12579010  0.49969076  0.62428797  1
  V  V36  1  0.23237214  0.12473910  0.38913037  1
  V  V37  1  0.36898923  0.25735132  0.61209227  1
  V  V38  1  0.74591959  0.37437895  0.12490103  1
  V  V39  1  0.37740971  0.00428349  0.36492894  1
  V  V40  1  0.01240241  0.11286745  0.61271321  1
  V  V41  1  0.48798436  0.24811499  0.24586768  1
  V  V42  1  0.49938742  0.37336913  0.38514732  1
  V  V43  1  -0.00341885  0.49640201  0.48980994  1
  V  V44  1  0.75228687  0.50205955  0.75375985  1
  V  V45  1  0.00381784  0.00028264  0.00860555  1
  V  V46  1  0.00615413  0.86952394  0.37931874  1
  V  V47  1  0.62867974  0.51918286  0.62007038  1
  V  V48  1  0.87640040  0.12685916  0.24055379  1
  V  V49  1  0.25145725  0.75468783  0.01279607  1
  V  V50  1  0.12717935  0.37490377  0.75258654  1
  V  V51  1  0.25070749  0.62717000  0.37425266  1
  V  V52  1  0.75157665  0.86129659  0.11864695  1
  V  V53  1  0.76596852  0.50142096  0.25502839  1
  V  V54  1  0.74878993  0.24495095  0.49682027  1
  V  V55  1  0.74473602  0.12524378  0.87368692  1
  V  V56  1  0.50431426  0.49998246  0.00451566  1
  V  V57  1  0.25506593  0.37424722  0.60629249  1
  V  V58  1  0.37333237  0.62017121  0.25134825  1
  V  V59  1  0.63971097  0.75007354  0.87838685  1
  V  V60  1  0.25395841  0.62696120  0.87078580  1
  V  V61  1  0.74653917  0.37450348  0.62399821  1
  V  V62  1  0.37834622  0.73653402  0.63163766  1
  V  V63  1  0.74739042  0.87311416  0.61793383  1
  V  V64  1  0.25517660  0.50040880  0.75270688  1
  V  V65  1  0.49280106  0.87623072  0.87067327  1
  V  V66  1  0.63026343  0.87851367  0.24636677  1
  V  V67  1  0.00553591  0.87552535  0.87511985  1
  V  V68  1  0.12824884  0.12355349  0.00275217  1
  V  V69  1  0.88078865  0.37636773  0.00508805  1
  V  V70  1  0.37295472  0.37202149  0.01073077  1
  V  V71  1  0.87168336  0.86211770  0.00168250  1
  V  V72  1  0.12470382  0.61572614  0.01097949  1
  V  V73  1  0.50233102  0.75042157  0.24731591  1
  V  V74  1  0.87511410  0.75244459  0.61927144  1
  V  V75  1  0.12809644  0.75481640  0.87256317  1
  V  V76  1  0.00937352  0.26126251  0.25515495  1
  V  V77  1  0.00548466  0.75417486  0.75056697  1
  V  V78  1  0.50019063  0.87728043  0.37706961  1
  Zn  Zn79  1  -0.00199593  0.12965968  0.12273146  1
  Zn  Zn80  1  0.61223357  0.11116149  0.49177952  1
  Zn  Zn81  1  0.50154438  0.73544312  0.75167473  1
  Zn  Zn82  1  0.75057959  0.61808125  0.37856191  1
  Zn  Zn83  1  0.62254624  0.37705267  0.74783041  1
  Zn  Zn84  1  0.37150965  0.75410530  0.13042962  1
  Zn  Zn85  1  0.49438080  0.00660491  -0.00670891  1
  Zn  Zn86  1  0.87891594  0.88123532  0.50236932  1
  Zn  Zn87  1  0.87393445  0.50333322  0.87968603  1
  Zn  Zn88  1  0.14882380  0.37366088  0.21639391  1
  Zn  Zn89  1  0.61844835  -0.00604556  0.61810389  1
  Zn  Zn90  1  0.62522358  0.87377451  0.75053452  1
  Zn  Zn91  1  0.61990911  0.12682335  -0.00277620  1
  Zn  Zn92  1  0.74116951  -0.00131355  0.74657477  1
  Zn  Zn93  1  0.62442280  0.25157820  0.87264034  1
  Zn  Zn94  1  0.18185092  0.18467127  0.19245246  1
  Zn  Zn95  1  0.18825132  0.18596197  0.68317673  1
  Zn  Zn96  1  0.18912607  0.55365483  0.19367492  1
  Zn  Zn97  1  0.18996678  0.68947627  0.68519306  1
  Zn  Zn98  1  0.68891498  0.19096583  0.18847488  1
  Zn  Zn99  1  0.68196004  0.18643543  0.68721801  1
  Zn  Zn100  1  0.68870823  0.68341643  0.18918431  1
  Zn  Zn101  1  0.69189785  0.69286701  0.69308946  1
  Zn  Zn102  1  0.30819350  0.30611057  0.31768655  1
  Zn  Zn103  1  0.31858828  0.31652649  0.81025049  1
  Zn  Zn104  1  0.31317641  0.81025469  0.31175023  1
  Zn  Zn105  1  0.30882742  0.82222573  0.81377290  1
  Zn  Zn106  1  0.81462047  0.30824956  0.30630669  1
  Zn  Zn107  1  0.81412292  0.31236190  0.81289143  1
  Zn  Zn108  1  0.81121115  0.81831413  0.30951868  1
  Zn  Zn109  1  0.81547228  0.81558073  0.80610970  1
  Zn  Zn110  1  0.18704690  0.44315817  0.35853999  1
  Zn  Zn111  1  0.18823704  0.43843458  1.05091473  1
  Zn  Zn112  1  0.20561414  0.91774642  0.40723940  1
  Zn  Zn113  1  0.18533725  0.93901006  1.05863545  1
  Zn  Zn114  1  0.68584913  0.43614513  0.43682252  1
  Zn  Zn115  1  0.68661700  0.43727523  0.93955407  1
  Zn  Zn116  1  0.68633130  0.93559798  0.44178408  1
  Zn  Zn117  1  0.68314099  0.93688623  0.93982497  1
  Zn  Zn118  1  0.31010309  0.06791185  0.05762965  1
  Zn  Zn119  1  0.31075417  0.06160513  0.56541092  1
  Zn  Zn120  1  0.32010291  0.56785054  0.05827150  1
  Zn  Zn121  1  0.31127897  0.55652101  0.55461490  1
  Zn  Zn122  1  0.81041109  0.05613296  0.05857151  1
  Zn  Zn123  1  0.81479285  0.05883480  0.55918479  1
  Zn  Zn124  1  0.81223013  0.55419920  0.06893455  1
  Zn  Zn125  1  0.81497551  0.56553034  0.56123901  1
  Zn  Zn126  1  0.43671162  0.43638439  0.19269583  1
  Zn  Zn127  1  0.44262612  0.55980201  0.68783325  1
  Zn  Zn128  1  0.43897671  0.94226706  0.18615967  1
  Zn  Zn129  1  0.43135693  0.93765862  0.69236325  1
  Zn  Zn130  1  0.94471527  0.43445464  0.18459691  1
  Zn  Zn131  1  0.93579866  0.43696870  0.68232081  1
  Zn  Zn132  1  0.93083570  0.93870780  0.19157061  1
  Zn  Zn133  1  0.93962434  0.93762994  0.68719170  1
  Zn  Zn134  1  0.06234139  0.05999734  0.30851089  1
  Zn  Zn135  1  0.06741900  0.06275786  0.81875162  1
  Zn  Zn136  1  0.05149560  0.56780670  0.30821607  1
  Zn  Zn137  1  0.06792278  0.56490175  0.81487629  1
  Zn  Zn138  1  0.56138722  0.06249527  0.30584060  1
  Zn  Zn139  1  0.55673669  0.05817402  0.80163826  1
  Zn  Zn140  1  0.56495655  0.56368931  0.31424136  1
  Zn  Zn141  1  0.57291134  0.56299266  0.81519998  1
  Zn  Zn142  1  0.43000840  0.19006037  0.43326216  1
  Zn  Zn143  1  0.43232890  0.18658717  0.93838956  1
  Zn  Zn144  1  0.43690927  0.69445889  0.43733934  1
  Zn  Zn145  1  0.44075432  0.69222815  0.93558137  1
  Zn  Zn146  1  0.93888190  0.18696315  0.43330829  1
  Zn  Zn147  1  0.93703543  0.18803808  0.93788818  1
  Zn  Zn148  1  0.93336106  0.68901889  0.43461546  1
  Zn  Zn149  1  0.94099489  0.68325036  0.93939058  1
  Zn  Zn150  1  0.05665239  0.30296116  0.06877315  1
  Zn  Zn151  1  0.06144922  0.31514735  0.56438736  1
  Zn  Zn152  1  0.05936561  0.80588092  0.06013540  1
  Zn  Zn153  1  0.06760439  0.81675155  0.56252367  1
  Zn  Zn154  1  0.56370212  0.30850164  0.06037544  1
  Zn  Zn155  1  0.56181913  0.30828689  0.56489588  1
  Zn  Zn156  1  0.56204473  0.81232178  0.05838020  1
  Zn  Zn157  1  0.55846645  0.80599460  0.56313273  1
  O  O158  1  0.12188812  0.12867130  0.10736344  1
  O  O159  1  0.11157824  0.12761295  0.62577202  1
  O  O160  1  0.12600193  0.62183746  0.11324100  1
  O  O161  1  0.12249401  0.62003429  0.61683535  1
  O  O162  1  0.62716903  0.11299815  0.12600605  1
  O  O163  1  0.60435044  0.13024014  0.62221823  1
  O  O164  1  0.61295767  0.63315992  0.11172144  1
  O  O165  1  0.63738137  0.61788565  0.62361398  1
  O  O166  1  0.38834978  0.38754024  0.36955462  1
  O  O167  1  0.38320450  0.38492772  0.88391310  1
  O  O168  1  0.38324637  0.87981481  0.37859682  1
  O  O169  1  0.38575588  0.87092660  0.88570932  1
  O  O170  1  0.86779738  0.36987470  0.38858001  1
  O  O171  1  0.88203263  0.37669018  0.88061252  1
  O  O172  1  0.88213220  0.88570886  0.37217801  1
  O  O173  1  0.88162958  0.88178428  0.88136425  1
  O  O174  1  0.25913582  0.00762670  0.36366449  1
  O  O175  1  0.20511877  -0.03880679  0.80102926  1
  O  O176  1  0.26889669  0.51687899  0.39312683  1
  O  O177  1  0.26119781  0.51063756  0.86817190  1
  O  O178  1  0.75646993  0.00764265  0.37673334  1
  O  O179  1  0.75824961  0.00639376  0.87593338  1
  O  O180  1  0.74285479  0.49459072  0.35788008  1
  O  O181  1  0.74987942  0.49138969  0.85725175  1
  O  O182  1  0.25485371  0.50219502  0.11889880  1
  O  O183  1  0.24916313  0.49064219  0.63083039  1
  O  O184  1  0.25390010  0.99839477  0.13382368  1
  O  O185  1  0.23368604  0.98554863  0.62201125  1
  O  O186  1  0.75149785  0.48231626  0.13704397  1
  O  O187  1  0.74606060  0.49168271  0.62833056  1
  O  O188  1  0.73502653  0.99220611  0.12118227  1
  O  O189  1  0.75438216  0.98493066  0.62537794  1
  O  O190  1  -0.00610206  0.36153264  0.25350941  1
  O  O191  1  0.00347593  0.36556227  0.75152117  1
  O  O192  1  0.00676311  0.86882262  0.25005513  1
  O  O193  1  -0.00701872  0.86476164  0.76238423  1
  O  O194  1  0.50744002  0.36723525  0.25635390  1
  O  O195  1  0.49755859  0.36600341  0.76323570  1
  O  O196  1  0.50629543  0.86743971  0.25365040  1
  O  O197  1  0.49699664  0.87030153  0.76243957  1
  O  O198  1  0.50287422  0.13278686  0.23658456  1
  O  O199  1  0.48880722  0.13410264  0.73993060  1
  O  O200  1  0.49759221  0.63196022  0.24334645  1
  O  O201  1  0.49648306  0.62304634  0.76134936  1
  O  O202  1  0.98709974  0.12100062  0.24475742  1
  O  O203  1  0.99337437  0.13030312  0.74687262  1
  O  O204  1  1.00059284  0.64322435  0.23963007  1
  O  O205  1  0.99721949  0.63403132  0.74623566  1
  O  O206  1  0.36022253  0.25620803  -0.00405159  1
  O  O207  1  0.37431710  0.25058964  0.51317638  1
  O  O208  1  0.36204955  0.75648054  -0.00072452  1
  O  O209  1  0.37050337  0.75581427  0.51139198  1
  O  O210  1  0.86173487  0.26055074  -0.00886418  1
  O  O211  1  0.86624566  0.25627950  0.50215228  1
  O  O212  1  0.87937104  0.76349344  -0.00666039  1
  O  O213  1  0.88907082  0.75702398  0.51744591  1
  O  O214  1  0.12912852  0.29948988  0.45971514  1
  O  O215  1  0.13802649  0.24692644  0.99465606  1
  O  O216  1  0.13473054  0.73944031  0.50721406  1
  O  O217  1  0.13798516  0.74775554  0.99251206  1
  O  O218  1  0.63277801  0.24757721  0.48744605  1
  O  O219  1  0.63803233  0.24619245  0.99368988  1
  O  O220  1  0.61879817  0.75570530  0.48122232  1
  O  O221  1  0.62244054  0.73875912  0.99093527  1
  O  O222  1  0.50766762  0.23531464  0.13111193  1
  O  O223  1  0.48591562  0.24887125  0.63145109  1
  O  O224  1  0.49984520  0.74372059  0.13363049  1
  O  O225  1  0.48295696  0.75171167  0.62995394  1
  O  O226  1  0.99524719  0.24310018  0.14286129  1
  O  O227  1  0.99701011  0.24506630  0.63462078  1
  O  O228  1  0.99894227  0.74505412  0.13461889  1
  O  O229  1  0.99956288  0.75004907  0.63483496  1
  O  O230  1  -0.00159278  0.23789089  0.35457085  1
  O  O231  1  -0.00059600  0.25508743  0.86200224  1
  O  O232  1  -0.00721257  0.76436224  0.36087437  1
  O  O233  1  0.00737178  0.75485663  0.86953756  1
  O  O234  1  0.50566293  0.25346093  0.36816465  1
  O  O235  1  0.49839538  0.25728259  0.86970325  1
  O  O236  1  0.50771861  0.75819469  0.36429036  1
  O  O237  1  0.50669424  0.76162153  0.87372168  1
  O  O238  1  0.24493825  0.11144723  0.48867819  1
  O  O239  1  0.24389847  0.13991624  1.00016782  1
  O  O240  1  0.24250621  0.63091583  0.49598954  1
  O  O241  1  0.24351049  0.63809129  0.99106051  1
  O  O242  1  0.75219313  0.13516252  0.49002179  1
  O  O243  1  0.75172889  0.13094760  0.98966313  1
  O  O244  1  0.76753803  0.63349930  0.48925375  1
  O  O245  1  0.73505152  0.61685578  1.00915804  1
  O  O246  1  0.25847903  0.36004327  0.00079753  1
  O  O247  1  0.25113255  0.38276299  0.51087468  1
  O  O248  1  0.26040170  0.86614622  -0.00025112  1
  O  O249  1  0.26472898  0.86170326  0.48576744  1
  O  O250  1  0.75448029  0.36832540  0.00517123  1
  O  O251  1  0.75451054  0.36600709  0.50518760  1
  O  O252  1  0.75578811  0.87810868  0.01026244  1
  O  O253  1  0.75615282  0.87356347  0.51364289  1
  O  O254  1  0.12729063  0.49436619  0.26984476  1
  O  O255  1  0.13440063  0.49555950  0.74490692  1
  O  O256  1  0.13643232  0.98934116  0.24717676  1
  O  O257  1  0.14258026  0.99162928  0.76120729  1
  O  O258  1  0.62292574  0.48514510  0.25132363  1
  O  O259  1  0.63488781  0.49807165  0.73801246  1
  O  O260  1  0.61692369  0.98857038  0.23460073  1
  O  O261  1  0.62356805  0.99271864  0.73558132  1
  O  O262  1  0.36005911  -0.01241504  0.25898437  1
  O  O263  1  0.36893743  0.01501718  0.74398736  1
  O  O264  1  0.38935954  0.51263702  0.26467564  1
  O  O265  1  0.36756810  0.50030213  0.75978849  1
  O  O266  1  0.87335123  0.01003334  0.26324167  1
  O  O267  1  0.87732169  0.00795755  0.76221188  1
  O  O268  1  0.86434174  0.49063542  0.24980642  1
  O  O269  1  0.86862593  0.50742712  0.74636974  1
  O  O270  1  0.11201035  0.35257342  0.40806784  1
  O  O271  1  0.11049862  0.36051133  0.86757291  1
  O  O272  1  0.10935278  0.88144766  0.36293036  1
  O  O273  1  0.11076751  0.86294959  0.88450613  1
  O  O274  1  0.61848266  0.36442740  0.36673018  1
  O  O275  1  0.61308896  0.37562537  0.87291893  1
  O  O276  1  0.61803987  0.87154126  0.36483094  1
  O  O277  1  0.61521844  0.86226292  0.88085924  1
  O  O278  1  0.38583051  0.12292752  0.12504076  1
  O  O279  1  0.37839892  0.13638393  0.62964535  1
  O  O280  1  0.38683769  0.63021462  0.13383768  1
  O  O281  1  0.37278144  0.63161456  0.62411905  1
  O  O282  1  0.86778627  0.11443449  0.13880753  1
  O  O283  1  0.87953253  0.12841186  0.63347541  1
  O  O284  1  0.88723283  0.62824781  0.11101864  1
  O  O285  1  0.88415550  0.63392300  0.63548663  1
  O  O286  1  0.24968476  0.24848276  0.11850365  1
  O  O287  1  0.25702895  0.26261648  0.62541056  1
  O  O288  1  0.25082112  0.74713708  0.11086430  1
  O  O289  1  0.26125075  0.74669034  0.61333469  1
  O  O290  1  0.74793210  0.25930658  0.11498826  1
  O  O291  1  0.75232167  0.25323170  0.61578153  1
  O  O292  1  0.74267842  0.76263009  0.12368862  1
  O  O293  1  0.76395458  0.76183128  0.63370378  1
  O  O294  1  0.26362539  0.21975182  0.37336553  1
  O  O295  1  0.24046211  0.25655436  0.87393746  1
  O  O296  1  0.26218586  0.73529045  0.38802363  1
  O  O297  1  0.24382460  0.74481573  0.87451846  1
  O  O298  1  0.74194241  0.24241181  0.37929661  1
  O  O299  1  0.74840420  0.24006218  0.87827849  1
  O  O300  1  0.73469751  0.75951627  0.36815902  1
  O  O301  1  0.73858919  0.75849869  0.87454225  1
  O  O302  1  0.00377487  0.11734639  0.00034236  1
  O  O303  1  -0.00537454  0.13174879  0.51515797  1
  O  O304  1  0.01531731  0.63680267  0.01345125  1
  O  O305  1  0.00535791  0.62011472  0.50531043  1
  O  O306  1  0.50056755  0.12654574  0.01246656  1
  O  O307  1  0.49451840  0.13409461  0.51334882  1
  O  O308  1  0.50153586  0.61841829  0.00646435  1
  O  O309  1  0.50846437  0.62016319  0.49173206  1
  O  O310  1  0.50749249  0.37451320  0.48675733  1
  O  O311  1  0.49709138  0.38047392  0.99321493  1
  O  O312  1  0.48605256  0.86706900  0.48722577  1
  O  O313  1  0.48755346  0.87411873  0.99184422  1
  O  O314  1  0.99206151  0.38849323  0.50708903  1
  O  O315  1  0.98470188  0.36263395  0.98992294  1
  O  O316  1  1.00217401  0.87056444  0.48259752  1
  O  O317  1  0.99244201  0.88038190  0.99401138  1
  O  O318  1  0.50131302  0.49464331  0.38659522  1
  O  O319  1  0.49491966  0.49415606  0.88250735  1
  O  O320  1  0.48797413  0.98933776  0.36166473  1
  O  O321  1  0.50910442  0.98152003  0.87731104  1
  O  O322  1  0.99827920  0.50600297  0.39176042  1
  O  O323  1  0.99998425  0.48539912  0.86594449  1
  O  O324  1  0.99026458  0.98771279  0.36846472  1
  O  O325  1  0.99279473  0.99281659  0.88209197  1
  O  O326  1  -0.00861215  -0.00131342  0.11033417  1
  O  O327  1  -0.00178866  0.01310750  0.62748751  1
  O  O328  1  -0.00135793  0.52199501  0.13574774  1
  O  O329  1  0.00769629  0.50733515  0.62384648  1
  O  O330  1  0.50631994  0.01462744  0.12386392  1
  O  O331  1  0.49126351  0.01737626  0.62658868  1
  O  O332  1  0.49517811  0.50943207  0.11477512  1
  O  O333  1  0.51086463  0.50681724  0.60987971  1
  O  O334  1  0.24068688  0.38201877  0.27889999  1
  O  O335  1  0.24557469  0.38802041  0.75108245  1
  O  O336  1  0.23486447  0.87949131  0.26230170  1
  O  O337  1  0.23378104  0.89815129  0.76233308  1
  O  O338  1  0.74320892  0.37684849  0.24375689  1
  O  O339  1  0.75214052  0.37967108  0.73785358  1
  O  O340  1  0.73861665  0.87411570  0.23408426  1
  O  O341  1  0.74900705  0.87904320  0.73842390  1
  O  O342  1  0.24306135  0.10720513  0.25379272  1
  O  O343  1  0.26215877  0.13139602  0.74729414  1
  O  O344  1  0.26418716  0.62401377  0.26079633  1
  O  O345  1  0.24228939  0.61439726  0.75978695  1
  O  O346  1  0.75992203  0.13157575  0.26039738  1
  O  O347  1  0.75923445  0.12439929  0.75497395  1
  O  O348  1  0.74663721  0.60388594  0.24413249  1
  O  O349  1  0.76355537  0.61521493  0.74389268  1
  O  O350  1  0.37801962  0.10486497  0.37614666  1
  O  O351  1  0.37801376  0.12451837  0.86083674  1
  O  O352  1  0.37463684  0.62004175  0.36944741  1
  O  O353  1  0.36489557  0.61791332  0.88470101  1
  O  O354  1  0.86944226  0.11347878  0.36745189  1
  O  O355  1  0.86740369  0.11831127  0.86771622  1
  O  O356  1  0.86280291  0.62373109  0.38269518  1
  O  O357  1  0.88506527  0.62081338  0.86213408  1
  O  O358  1  0.11026712  0.38885651  0.11429724  1
  O  O359  1  0.13772612  0.37688603  0.63080139  1
  O  O360  1  0.12500798  0.87189099  0.13141479  1
  O  O361  1  0.13740247  0.89465583  0.61912870  1
  O  O362  1  0.63268736  0.36771777  0.13381453  1
  O  O363  1  0.63717122  0.37714178  0.62332250  1
  O  O364  1  0.63090960  0.88207851  0.12568616  1
  O  O365  1  0.63833783  0.86519316  0.62439963  1
  O  O366  1  0.11551586  0.25806951  0.24707612  1
  O  O367  1  0.11828767  0.25287018  0.75557593  1
  O  O368  1  0.11480800  0.76568124  0.25121780  1
  O  O369  1  0.11611360  0.74594875  0.75783192  1
  O  O370  1  0.61966811  0.25624792  0.25960892  1
  O  O371  1  0.60986540  0.25304485  0.75050753  1
  O  O372  1  0.61707132  0.75918714  0.25279312  1
  O  O373  1  0.62289714  0.75033737  0.76610403  1
  O  O374  1  0.38977463  0.25551256  0.25240579  1
  O  O375  1  0.38173019  0.24487264  0.74280815  1
  O  O376  1  0.38573640  0.74112846  0.25163781  1
  O  O377  1  0.36326794  0.76065743  0.73100622  1
  O  O378  1  0.88035845  0.23182025  0.25273551  1
  O  O379  1  0.88214771  0.24099120  0.74473156  1
  O  O380  1  0.88492360  0.75994496  0.24451405  1
  O  O381  1  0.88636449  0.74253961  0.74555891  1
  O  O382  1  0.39654480  0.50631957  0.49291246  1
  O  O383  1  0.38537757  0.49400052  0.99008977  1
  O  O384  1  0.36728329  0.98472808  0.48600406  1
  O  O385  1  0.37155860  0.98664904  1.00096391  1
  O  O386  1  0.88936607  0.49192319  0.51036616  1
  O  O387  1  0.86699381  0.48174581  0.99505297  1
  O  O388  1  0.87530670  1.00000362  0.48088922  1
  O  O389  1  0.88170836  0.99334556  0.98922618  1
  O  O390  1  0.11675126  0.00828516  -0.00331260  1
  O  O391  1  0.17248105  -0.04409866  0.58038469  1
  O  O392  1  0.12977508  0.51983273  -0.01203089  1
  O  O393  1  0.11003076  0.51068998  0.50724938  1
  O  O394  1  0.61783752  0.00167696  0.01305971  1
  O  O395  1  0.62134787  0.00010179  0.50536910  1
  O  O396  1  0.61380679  0.51429758  -0.00879273  1
  O  O397  1  0.61607963  0.49760674  0.50540521  1
  O  O398  1  0.38552835  0.37767486  0.10965782  1
  O  O399  1  0.36221580  0.36391254  0.62574829  1
  O  O400  1  0.38412403  0.87100855  0.11020647  1
  O  O401  1  0.37856665  0.87426644  0.60815624  1
  O  O402  1  0.86933588  0.37533720  0.10953758  1
  O  O403  1  0.86407609  0.36776053  0.61674281  1
  O  O404  1  0.85813681  0.88128211  0.11830908  1
  O  O405  1  0.86932424  0.86936625  0.62578094  1
  O  O406  1  0.13273919  0.11784249  0.37549333  1
  O  O407  1  0.11734936  0.13912270  0.88844054  1
  O  O408  1  0.13502570  0.62069513  0.38656692  1
  O  O409  1  0.13176057  0.63742663  0.88310353  1
  O  O410  1  0.63028905  0.13018666  0.37148483  1
  O  O411  1  0.63638436  0.12024906  0.87197152  1
  O  O412  1  0.63102292  0.64161800  0.36553446  1
  O  O413  1  0.62642997  0.63728530  0.88838757  1
