# generated using pymatgen
data_V79Zn79O256
_symmetry_space_group_name_H-M   'P 1'
_cell_length_a   16.89847539
_cell_length_b   16.90558094
_cell_length_c   16.88626044
_cell_angle_alpha   90.03200863
_cell_angle_beta   90.12781688
_cell_angle_gamma   90.05745241
_symmetry_Int_Tables_number   1
_chemical_formula_structural   V79Zn79O256
_chemical_formula_sum   'V79 Zn79 O256'
_cell_volume   4824.02710050
_cell_formula_units_Z   1
loop_
 _symmetry_equiv_pos_site_id
 _symmetry_equiv_pos_as_xyz
  1  'x, y, z'
loop_
 _atom_site_type_symbol
 _atom_site_label
 _atom_site_symmetry_multiplicity
 _atom_site_fract_x
 _atom_site_fract_y
 _atom_site_fract_z
 _atom_site_occupancy
  V  V0  1  0.63215722  0.38086925  0.73492732  1
  V  V1  1  0.37560126  0.23842572  0.62044832  1
  V  V2  1  0.37305244  0.00274876  0.38278750  1
  V  V3  1  0.74938076  0.01024503  0.25520713  1
  V  V4  1  0.87197122  0.49984522  0.87527473  1
  V  V5  1  0.74859835  0.36314979  0.12530429  1
  V  V6  1  0.51049601  0.25801415  0.25681943  1
  V  V7  1  0.49136810  0.73637526  0.25229395  1
  V  V8  1  0.62079961  0.00088826  0.12703629  1
  V  V9  1  0.50324820  0.50574180  0.00332402  1
  V  V10  1  0.87598885  0.75430452  0.63309584  1
  V  V11  1  0.37561889  0.63085058  0.73653162  1
  V  V12  1  0.37615254  0.49843731  0.38396354  1
  V  V13  1  0.74791025  0.24543134  0.47862766  1
  V  V14  1  0.50953951  0.37499117  0.38061133  1
  V  V15  1  0.12569485  0.49487896  0.12921886  1
  V  V16  1  0.52380717  0.63357312  0.62159043  1
  V  V17  1  0.49535780  0.88140700  0.38173432  1
  V  V18  1  0.00195265  0.00727173  0.50554555  1
  V  V19  1  0.12549635  0.62102582  0.00047874  1
  V  V20  1  0.00018042  0.49998947  0.00581607  1
  V  V21  1  0.87372449  0.49043406  0.37751468  1
  V  V22  1  0.50730960  0.37988312  0.86860187  1
  V  V23  1  0.86696045  0.24442728  0.62221778  1
  V  V24  1  0.25230717  0.74905504  -0.00246976  1
  V  V25  1  0.26013066  0.37437920  0.62022138  1
  V  V26  1  0.37533061  0.25151441  0.12933146  1
  V  V27  1  0.37765054  0.50413236  0.87229822  1
  V  V28  1  0.25440154  0.62881097  0.37056365  1
  V  V29  1  0.36993895  0.87185622  0.51048337  1
  V  V30  1  0.75434903  0.50428652  0.74389450  1
  V  V31  1  0.12795735  0.37347942  0.74972013  1
  V  V32  1  0.13076968  0.24127896  0.87430218  1
  V  V33  1  0.00283072  0.25053819  0.23797019  1
  V  V34  1  0.25626470  0.24325356  -0.00521424  1
  V  V35  1  0.76560493  0.11125625  0.86788182  1
  V  V36  1  0.12572271  0.49973290  0.62415658  1
  V  V37  1  0.87039164  0.36184181  0.00510524  1
  V  V38  1  0.01893930  0.37060784  0.36777519  1
  V  V39  1  0.62394488  0.74559192  0.38340345  1
  V  V40  1  0.49946321  0.88454904  0.86807062  1
  V  V41  1  0.37735573  0.37455107  -0.00261606  1
  V  V42  1  0.61657066  0.12356652  0.49285431  1
  V  V43  1  -0.01639192  0.12032408  0.12661154  1
  V  V44  1  0.00084385  0.62894872  0.62843681  1
  V  V45  1  0.51498341  0.50458711  0.50659383  1
  V  V46  1  0.36845750  0.12785143  0.25995900  1
  V  V47  1  0.62291534  0.50351942  0.12513008  1
  V  V48  1  0.37765306  0.73923086  0.12892502  1
  V  V49  1  0.24703442  0.37234804  0.12928748  1
  V  V50  1  0.12346281  0.62913458  0.49411755  1
  V  V51  1  0.24070553  0.00730757  0.75141221  1
  V  V52  1  0.22263137  0.87610866  0.63170878  1
  V  V53  1  0.00013488  0.37044115  0.87436026  1
  V  V54  1  0.10795216  0.75363632  0.86419764  1
  V  V55  1  0.00283095  0.87203666  0.35649780  1
  V  V56  1  0.74564502  0.49479172  0.24905303  1
  V  V57  1  0.24055046  -0.00098264  0.25654730  1
  V  V58  1  0.90372587  0.86631856  -0.00449962  1
  V  V59  1  0.50588505  0.24374307  0.74114108  1
  V  V60  1  0.24742132  0.87665494  0.12906222  1
  V  V61  1  0.49769446  0.00292853  0.00238967  1
  V  V62  1  0.49617593  0.76087925  0.74384634  1
  V  V63  1  0.25862887  0.50100288  0.24943204  1
  V  V64  1  0.25420424  0.62639365  0.87192793  1
  V  V65  1  -0.00502490  0.49198218  0.49940395  1
  V  V66  1  0.25274707  0.50014223  0.74797511  1
  V  V67  1  0.12273651  0.13122784  0.49564107  1
  V  V68  1  0.88729313  0.62970049  0.24054081  1
  V  V69  1  0.37300784  0.87790697  -0.00514749  1
  V  V70  1  0.12602510  0.11543464  0.00634394  1
  V  V71  1  0.87106761  0.01313581  0.37026197  1
  V  V72  1  0.59544231  0.00582194  0.62615885  1
  V  V73  1  -0.00381814  0.23713265  0.74022505  1
  V  V74  1  0.24858114  0.24814149  0.48558490  1
  V  V75  1  0.86816139  0.86720759  0.49151858  1
  V  V76  1  0.62003405  0.87545459  0.25621852  1
  V  V77  1  0.74855107  0.62585877  0.38126347  1
  V  V78  1  0.74600158  0.85548683  0.12099391  1
  Zn  Zn79  1  0.64104551  0.13615197  0.00386572  1
  Zn  Zn80  1  0.64356564  0.25210821  0.88887679  1
  Zn  Zn81  1  0.73789710  0.74693001  0.51409572  1
  Zn  Zn82  1  0.88650533  0.64069471  0.76067141  1
  Zn  Zn83  1  0.75379394  0.64371016  0.88175654  1
  Zn  Zn84  1  0.24651154  0.75036769  0.50397390  1
  Zn  Zn85  1  0.11844755  0.75289168  0.35363934  1
  Zn  Zn86  1  0.63603535  0.63800134  0.00435116  1
  Zn  Zn87  1  0.62971787  0.75738497  0.87848076  1
  Zn  Zn88  1  0.11552679  -0.00798978  0.12768446  1
  Zn  Zn89  1  0.50244771  0.12760372  0.13136678  1
  Zn  Zn90  1  0.64435957  0.88811549  0.74301934  1
  Zn  Zn91  1  0.76571884  0.38099556  0.60751450  1
  Zn  Zn92  1  0.37216157  0.12628540  0.76600425  1
  Zn  Zn93  1  0.32892104  0.05427204  0.90900361  1
  Zn  Zn94  1  0.18177081  0.18855881  0.19636599  1
  Zn  Zn95  1  0.18174742  0.18214516  0.67875287  1
  Zn  Zn96  1  0.19580091  0.68005838  0.18059562  1
  Zn  Zn97  1  0.18693053  0.69182313  0.68504237  1
  Zn  Zn98  1  0.68819104  0.18643764  0.19034965  1
  Zn  Zn99  1  0.69053869  0.17591738  0.68637010  1
  Zn  Zn100  1  0.68342852  0.67902805  0.19914345  1
  Zn  Zn101  1  0.70133547  0.70843339  0.71662051  1
  Zn  Zn102  1  0.31843584  0.32201246  0.31345174  1
  Zn  Zn103  1  0.31834995  0.30991584  0.80963351  1
  Zn  Zn104  1  0.30994898  0.81376604  0.31565736  1
  Zn  Zn105  1  0.30875763  0.81437425  0.80818810  1
  Zn  Zn106  1  0.81974744  0.30760301  0.30608587  1
  Zn  Zn107  1  0.81061464  0.30213391  0.81248278  1
  Zn  Zn108  1  0.81294585  0.81122174  0.30544736  1
  Zn  Zn109  1  0.82286877  0.82758979  0.82035982  1
  Zn  Zn110  1  0.18947430  0.43878170  0.44007601  1
  Zn  Zn111  1  0.19098787  0.43330317  0.93704858  1
  Zn  Zn112  1  0.18232249  0.93778814  0.43766427  1
  Zn  Zn113  1  0.18038514  0.93114208  0.93200258  1
  Zn  Zn114  1  0.68910133  0.43349281  0.43685582  1
  Zn  Zn115  1  0.68827984  0.44049923  0.93780077  1
  Zn  Zn116  1  0.68419843  0.94249714  0.44356995  1
  Zn  Zn117  1  0.68802874  0.93940782  0.93866449  1
  Zn  Zn118  1  0.31127905  0.06529557  0.07595220  1
  Zn  Zn119  1  0.30112390  0.06063288  0.56500256  1
  Zn  Zn120  1  0.31422882  0.56005304  0.05937150  1
  Zn  Zn121  1  0.31350083  0.56231154  0.55713738  1
  Zn  Zn122  1  0.81405363  0.04468351  0.04672372  1
  Zn  Zn123  1  0.81438717  0.07005070  0.55961035  1
  Zn  Zn124  1  0.81034403  0.56420914  0.06341123  1
  Zn  Zn125  1  0.81558245  0.56761030  0.56365716  1
  Zn  Zn126  1  0.43768200  0.43902847  0.19059676  1
  Zn  Zn127  1  0.44095080  0.44264080  0.68215813  1
  Zn  Zn128  1  0.43136016  0.93474652  0.19178347  1
  Zn  Zn129  1  0.42505670  0.95176344  0.69020970  1
  Zn  Zn130  1  0.93382425  0.43753701  0.19102734  1
  Zn  Zn131  1  0.93757269  0.43067633  0.68452979  1
  Zn  Zn132  1  0.92284261  0.93770703  0.16907871  1
  Zn  Zn133  1  0.93206567  0.93864919  0.67813843  1
  Zn  Zn134  1  0.05763349  0.07021403  0.31543029  1
  Zn  Zn135  1  0.06668083  0.06164187  0.80821358  1
  Zn  Zn136  1  0.06580777  0.55577885  0.31118342  1
  Zn  Zn137  1  0.06383325  0.56182914  0.81448092  1
  Zn  Zn138  1  0.55769352  0.06716070  0.31610917  1
  Zn  Zn139  1  0.57621309  0.06409811  0.81943536  1
  Zn  Zn140  1  0.56551794  0.55887172  0.31392746  1
  Zn  Zn141  1  0.56853608  0.56994074  0.81102264  1
  Zn  Zn142  1  0.43660141  0.18958211  0.44093457  1
  Zn  Zn143  1  0.46626302  0.19691312  0.94106520  1
  Zn  Zn144  1  0.43613865  0.68892043  0.44362373  1
  Zn  Zn145  1  0.46670624  0.70728424  0.95102285  1
  Zn  Zn146  1  0.93480233  0.19486265  0.43701134  1
  Zn  Zn147  1  0.93712630  0.17793584  0.93920637  1
  Zn  Zn148  1  0.93733096  0.68501012  0.42828190  1
  Zn  Zn149  1  0.93158370  0.68858794  0.95182593  1
  Zn  Zn150  1  0.06424824  0.30673538  0.05930189  1
  Zn  Zn151  1  0.06575016  0.31190981  0.56142515  1
  Zn  Zn152  1  0.06605666  0.79911928  0.07626931  1
  Zn  Zn153  1  0.05316547  0.81532172  0.55088421  1
  Zn  Zn154  1  0.56380821  0.31744081  0.06384067  1
  Zn  Zn155  1  0.56711484  0.30971327  0.55717916  1
  Zn  Zn156  1  0.56274437  0.81370488  0.06799458  1
  Zn  Zn157  1  0.56003182  0.82120499  0.56677806  1
  O  O158  1  0.12746674  0.12257146  0.11328604  1
  O  O159  1  0.12412921  0.12474461  0.60037680  1
  O  O160  1  0.13643008  0.60780597  0.10946814  1
  O  O161  1  0.11987619  0.62018321  0.61545799  1
  O  O162  1  0.62184658  0.11375450  0.12567348  1
  O  O163  1  0.62789532  0.11106279  0.61748723  1
  O  O164  1  0.62621036  0.60789822  0.12496970  1
  O  O165  1  0.62097447  0.63473734  0.63246647  1
  O  O166  1  0.38629225  0.39139642  0.37524080  1
  O  O167  1  0.38444470  0.38382471  0.87469148  1
  O  O168  1  0.37760236  0.88443299  0.38115556  1
  O  O169  1  0.37992156  0.87072946  0.88832262  1
  O  O170  1  0.87845536  0.38839578  0.37188689  1
  O  O171  1  0.88267604  0.37894876  0.88529310  1
  O  O172  1  0.88123797  0.87763787  0.38010071  1
  O  O173  1  0.87931154  0.88279061  0.89781766  1
  O  O174  1  0.25686725  -0.00691197  0.36311428  1
  O  O175  1  0.24754589  -0.00787763  0.86212389  1
  O  O176  1  0.25737510  0.50454664  0.36985085  1
  O  O177  1  0.25663858  0.50417167  0.86845647  1
  O  O178  1  0.75809964  -0.00615632  0.36550406  1
  O  O179  1  0.74365700  0.00872301  0.87191897  1
  O  O180  1  0.75390832  0.50316161  0.37033414  1
  O  O181  1  0.76218442  0.49317469  0.86443728  1
  O  O182  1  0.24836211  0.49133883  0.12935530  1
  O  O183  1  0.24626783  0.49332122  0.62629150  1
  O  O184  1  0.25064246  0.99278946  0.13975372  1
  O  O185  1  0.24965524  0.98527263  0.63383867  1
  O  O186  1  0.74263777  0.49224700  0.13287724  1
  O  O187  1  0.76434064  0.49529218  0.63872353  1
  O  O188  1  0.73624450  0.98659021  0.14303134  1
  O  O189  1  0.76307483  0.99269593  0.63734222  1
  O  O190  1  0.00040322  0.37001338  0.25985255  1
  O  O191  1  0.00842805  0.37109237  0.76046687  1
  O  O192  1  -0.01142616  0.88604093  0.25876129  1
  O  O193  1  -0.01835543  0.92258135  0.77983788  1
  O  O194  1  0.49439567  0.36596967  0.26237404  1
  O  O195  1  0.51563208  0.38375350  0.75094562  1
  O  O196  1  0.50409791  0.87133134  0.26315736  1
  O  O197  1  0.48305588  0.87487361  0.75719786  1
  O  O198  1  0.48939355  0.14114598  0.25445480  1
  O  O199  1  0.50606950  0.14467464  0.75106826  1
  O  O200  1  0.49874722  0.63766857  0.25840393  1
  O  O201  1  0.49714471  0.63336511  0.73554364  1
  O  O202  1  1.00337664  0.13617902  0.23653937  1
  O  O203  1  1.00399821  0.13880567  0.75039089  1
  O  O204  1  0.98657301  0.61419937  0.25720381  1
  O  O205  1  0.99908505  0.61362069  0.73381810  1
  O  O206  1  0.37758184  0.25553822  0.01330346  1
  O  O207  1  0.36275551  0.24778715  0.51129666  1
  O  O208  1  0.37484462  0.75865223  0.00876135  1
  O  O209  1  0.36482879  0.76762663  0.49083471  1
  O  O210  1  0.88410781  0.26465872  -0.00094727  1
  O  O211  1  0.85870180  0.24651871  0.50786970  1
  O  O212  1  0.87910941  0.76657629  0.01362690  1
  O  O213  1  0.87426023  0.75982570  0.49867166  1
  O  O214  1  0.13579467  0.24340986  0.49811789  1
  O  O215  1  0.13533742  0.24157650  0.99231423  1
  O  O216  1  0.12124766  0.73599580  0.49436938  1
  O  O217  1  0.13146912  0.73434860  0.99814705  1
  O  O218  1  0.63755424  0.23694659  0.50505872  1
  O  O219  1  0.57818518  0.23596359  0.98777496  1
  O  O220  1  0.62332554  0.75957375  0.48822326  1
  O  O221  1  0.58168264  0.73893475  0.98867306  1
  O  O222  1  0.49011015  0.25818202  0.14234348  1
  O  O223  1  0.48615614  0.26201760  0.63082605  1
  O  O224  1  0.49208685  0.75671641  0.14537470  1
  O  O225  1  0.49919112  0.73877131  0.62474543  1
  O  O226  1  1.00075329  0.24347399  0.13101811  1
  O  O227  1  0.99845921  0.25411590  0.63596322  1
  O  O228  1  1.04612646  0.74829001  0.18064088  1
  O  O229  1  0.99136111  0.73809143  0.61332792  1
  O  O230  1  0.00119146  0.26902659  0.37935484  1
  O  O231  1  0.00747273  0.25636435  0.86756182  1
  O  O232  1  0.00019611  0.76549721  0.37310635  1
  O  O233  1  0.00986719  0.73269175  0.87758871  1
  O  O234  1  0.49179491  0.26552620  0.36941294  1
  O  O235  1  0.49409584  0.27073339  0.84926566  1
  O  O236  1  0.50141094  0.75693056  0.36894924  1
  O  O237  1  0.49797920  0.76683737  0.85746840  1
  O  O238  1  0.24182737  0.13887934  0.49903064  1
  O  O239  1  0.24219349  0.12791451  1.00233854  1
  O  O240  1  0.24047671  0.62588104  0.49087050  1
  O  O241  1  0.24621647  0.62742502  0.99177934  1
  O  O242  1  0.74275481  0.13848267  0.50081030  1
  O  O243  1  0.75203784  0.11516146  0.99076248  1
  O  O244  1  0.75571633  0.62860540  0.48652934  1
  O  O245  1  0.74850655  0.62162088  0.99290505  1
  O  O246  1  0.25907223  0.36634286  0.00623702  1
  O  O247  1  0.24143061  0.36150785  0.51001506  1
  O  O248  1  0.25761278  0.86995470  0.00573907  1
  O  O249  1  0.25316400  0.87825176  0.51139047  1
  O  O250  1  0.76235663  0.37704119  0.00772430  1
  O  O251  1  0.73712900  0.35426103  0.50026386  1
  O  O252  1  0.74068045  0.87482683  0.02030764  1
  O  O253  1  0.76535534  0.87235696  0.49321564  1
  O  O254  1  0.13776236  0.50134328  0.23616617  1
  O  O255  1  0.13301356  0.49457316  0.74504428  1
  O  O256  1  0.13916962  1.00809357  0.25201763  1
  O  O257  1  0.13896014  0.99987177  0.74991370  1
  O  O258  1  0.63585726  0.49965502  0.24351652  1
  O  O259  1  0.64229515  0.49179791  0.75303571  1
  O  O260  1  0.62668954  0.99475605  0.24967007  1
  O  O261  1  0.61275410  1.00188377  0.73258790  1
  O  O262  1  0.36857855  0.00971562  0.25976019  1
  O  O263  1  0.35823565  0.01165158  0.75481829  1
  O  O264  1  0.36558608  0.50065538  0.25828824  1
  O  O265  1  0.37244345  0.50866421  0.75231767  1
  O  O266  1  0.85759338  -0.00467692  0.25829078  1
  O  O267  1  0.80186925  -0.03169199  0.70487300  1
  O  O268  1  0.86432567  0.50457077  0.25814360  1
  O  O269  1  0.86803682  0.49003263  0.76070124  1
  O  O270  1  0.11785643  0.38370113  0.36904494  1
  O  O271  1  0.11831633  0.36523575  0.87251567  1
  O  O272  1  0.10817964  0.87674223  0.37200233  1
  O  O273  1  0.11918112  0.85274402  0.88035361  1
  O  O274  1  0.60815617  0.38125344  0.37007314  1
  O  O275  1  0.61935690  0.37235060  0.86667755  1
  O  O276  1  0.61414371  0.87159165  0.37409873  1
  O  O277  1  0.61228234  0.87791378  0.86701913  1
  O  O278  1  0.37849696  0.13711735  0.13865053  1
  O  O279  1  0.37114080  0.13799658  0.62492959  1
  O  O280  1  0.36837614  0.63949641  0.12254258  1
  O  O281  1  0.37623588  0.62192047  0.63409365  1
  O  O282  1  0.88610627  0.11832236  0.11553012  1
  O  O283  1  0.87840950  0.14316104  0.62353124  1
  O  O284  1  0.87568508  0.61439801  0.14061290  1
  O  O285  1  0.88463252  0.63801486  0.62595301  1
  O  O286  1  0.25834156  0.25477416  0.12175397  1
  O  O287  1  0.26152880  0.25668087  0.62308244  1
  O  O288  1  0.25865904  0.75710416  0.11979148  1
  O  O289  1  0.24304427  0.76960254  0.62274406  1
  O  O290  1  0.74538418  0.26367776  0.12999467  1
  O  O291  1  0.76269462  0.25321670  0.63279563  1
  O  O292  1  0.71685372  0.75882226  0.12755795  1
  O  O293  1  0.76987617  0.74413990  0.62620139  1
  O  O294  1  0.25872622  0.25824581  0.38761506  1
  O  O295  1  0.23901724  0.25620769  0.87734025  1
  O  O296  1  0.23787112  0.74164727  0.36939572  1
  O  O297  1  0.24411914  0.74366309  0.88031698  1
  O  O298  1  0.75316868  0.24950926  0.37892420  1
  O  O299  1  0.75532057  0.23588395  0.88160648  1
  O  O300  1  0.73849036  0.74215482  0.37253560  1
  O  O301  1  0.74038490  0.74985964  0.82768673  1
  O  O302  1  0.01458447  0.13300662  0.01593894  1
  O  O303  1  0.00465982  0.11627501  0.49065667  1
  O  O304  1  0.01050746  0.60856404  -0.00268952  1
  O  O305  1  0.00608245  0.61448011  0.50290673  1
  O  O306  1  0.49077228  0.10616605  0.01228878  1
  O  O307  1  0.51601241  0.13732778  0.50162811  1
  O  O308  1  0.49029151  0.60505374  -0.00244941  1
  O  O309  1  0.50241457  0.61985801  0.51118250  1
  O  O310  1  0.50512013  0.38826006  0.49149755  1
  O  O311  1  0.49596335  0.38376547  0.98696941  1
  O  O312  1  0.48340309  0.87092485  0.48986350  1
  O  O313  1  0.49013263  0.88465193  0.99403863  1
  O  O314  1  1.01095057  0.38631604  0.48914802  1
  O  O315  1  0.99406981  0.37864915  0.99271067  1
  O  O316  1  0.98900595  0.88977009  0.48570911  1
  O  O317  1  1.00540711  0.86641898  1.01029443  1
  O  O318  1  0.49629741  0.49622728  0.38362590  1
  O  O319  1  0.49919176  0.49475680  0.87764473  1
  O  O320  1  0.48707195  0.99096230  0.37166819  1
  O  O321  1  0.50250954  0.99405806  0.88651635  1
  O  O322  1  0.99443794  0.48916077  0.37985227  1
  O  O323  1  0.99588732  0.48848079  0.88206458  1
  O  O324  1  0.98407072  0.99384724  0.37475678  1
  O  O325  1  0.97827872  0.98441045  0.82794492  1
  O  O326  1  0.00432547  0.01719810  0.13876164  1
  O  O327  1  -0.01522764  0.00398163  0.60435122  1
  O  O328  1  0.01204966  0.48462215  0.11496601  1
  O  O329  1  0.00452538  0.50418763  0.61644488  1
  O  O330  1  0.50541374  -0.00340262  0.12484952  1
  O  O331  1  0.49598617  0.00858192  0.61873136  1
  O  O332  1  0.51103219  0.48359425  0.11605248  1
  O  O333  1  0.50318481  0.51378807  0.61407587  1
  O  O334  1  0.25461790  0.38364351  0.23788875  1
  O  O335  1  0.24739738  0.38031637  0.74231399  1
  O  O336  1  0.25707244  0.88877824  0.24301982  1
  O  O337  1  0.24971194  0.88215309  0.73654441  1
  O  O338  1  0.76109695  0.38202610  0.23509339  1
  O  O339  1  0.73989595  0.37899635  0.74991027  1
  O  O340  1  0.72854024  0.87753377  0.25394996  1
  O  O341  1  0.76721851  0.89560559  0.73520573  1
  O  O342  1  0.25927028  0.11378187  0.24581255  1
  O  O343  1  0.24720829  0.11399997  0.74393999  1
  O  O344  1  0.24640530  0.61380965  0.25933651  1
  O  O345  1  0.25706973  0.62021957  0.75075866  1
  O  O346  1  0.74405706  0.10897568  0.25109405  1
  O  O347  1  0.75189108  0.12795086  0.76646911  1
  O  O348  1  0.75610515  0.61223998  0.26065113  1
  O  O349  1  0.76159530  0.60817949  0.75013309  1
  O  O350  1  0.37891399  0.11760052  0.36980504  1
  O  O351  1  0.38238824  0.14629925  0.87976063  1
  O  O352  1  0.36178133  0.61938266  0.38188970  1
  O  O353  1  0.37088454  0.61979099  0.86188322  1
  O  O354  1  0.87690177  0.11112598  0.37566924  1
  O  O355  1  0.86928103  0.11434963  0.88030684  1
  O  O356  1  0.86710974  0.61187217  0.36856115  1
  O  O357  1  0.87742191  0.61275568  0.87470449  1
  O  O358  1  0.13921171  0.38108428  0.11302137  1
  O  O359  1  0.13474761  0.37990327  0.63080288  1
  O  O360  1  0.14376737  0.87822014  0.11817767  1
  O  O361  1  0.12313491  0.87640978  0.62130256  1
  O  O362  1  0.64209578  0.38318685  0.11674454  1
  O  O363  1  0.62851136  0.37801645  0.63394766  1
  O  O364  1  0.62269141  0.88328448  0.13873360  1
  O  O365  1  0.61947927  0.89867881  0.62154300  1
  O  O366  1  0.10769642  0.25099379  0.25230156  1
  O  O367  1  0.11740900  0.25280647  0.75522310  1
  O  O368  1  0.11373727  0.74812939  0.22790549  1
  O  O369  1  0.12215725  0.73929965  0.76494148  1
  O  O370  1  0.60857588  0.24743092  0.25047363  1
  O  O371  1  0.61364298  0.26421157  0.74085351  1
  O  O372  1  0.60920342  0.75656199  0.26209473  1
  O  O373  1  0.60478164  0.77148687  0.73853461  1
  O  O374  1  0.37574743  0.24554292  0.24636863  1
  O  O375  1  0.38495019  0.24953640  0.73585360  1
  O  O376  1  0.38468953  0.75488552  0.24718479  1
  O  O377  1  0.38336772  0.74159197  0.75072439  1
  O  O378  1  0.90050099  0.24905858  0.25743246  1
  O  O379  1  0.89115370  0.25448096  0.74295265  1
  O  O380  1  0.87135999  0.72816041  0.25739134  1
  O  O381  1  0.88473891  0.75959724  0.73547645  1
  O  O382  1  0.38915088  0.50561324  0.49125551  1
  O  O383  1  0.38075003  0.49214230  0.99354700  1
  O  O384  1  0.36201306  0.99094763  0.48968709  1
  O  O385  1  0.37601123  0.99318720  1.00442176  1
  O  O386  1  0.88605058  0.50498526  0.49264396  1
  O  O387  1  0.88485488  0.49152417  0.99274291  1
  O  O388  1  0.87605372  0.99311275  0.48578218  1
  O  O389  1  0.88136797  0.95604547  1.05091047  1
  O  O390  1  0.12916467  0.01320268  -0.00122493  1
  O  O391  1  0.10762894  0.00599491  0.49623399  1
  O  O392  1  0.12067966  0.50121305  0.00367598  1
  O  O393  1  0.11812054  0.50940927  0.50409941  1
  O  O394  1  0.61250944  -0.00518177  0.01539187  1
  O  O395  1  0.62938112  0.01197915  0.51342119  1
  O  O396  1  0.61714066  0.50033211  0.00660727  1
  O  O397  1  0.61382559  0.50376388  0.49499413  1
  O  O398  1  0.36727647  0.36863722  0.12132276  1
  O  O399  1  0.36454203  0.37199221  0.62836891  1
  O  O400  1  0.36744232  0.86775471  0.11720336  1
  O  O401  1  0.37821151  0.87808107  0.60968257  1
  O  O402  1  0.86624305  0.38012701  0.11237767  1
  O  O403  1  0.87942371  0.35759219  0.62212673  1
  O  O404  1  0.84196617  0.85310704  0.15529811  1
  O  O405  1  0.88809263  0.86057582  0.60659296  1
  O  O406  1  0.12464522  0.11998843  0.39184299  1
  O  O407  1  0.11383421  0.13359209  0.88933473  1
  O  O408  1  0.13329378  0.62192933  0.37998248  1
  O  O409  1  0.13376572  0.62523296  0.88413610  1
  O  O410  1  0.62682714  0.11395917  0.39167110  1
  O  O411  1  0.63736973  0.13182330  0.88299939  1
  O  O412  1  0.63372521  0.63479920  0.36946943  1
  O  O413  1  0.63203900  0.63612055  0.87477515  1
