# generated using pymatgen
data_V79Zn79O256
_symmetry_space_group_name_H-M   'P 1'
_cell_length_a   16.88618540
_cell_length_b   16.89715334
_cell_length_c   16.87453025
_cell_angle_alpha   89.89980473
_cell_angle_beta   89.95065876
_cell_angle_gamma   89.96864912
_symmetry_Int_Tables_number   1
_chemical_formula_structural   V79Zn79O256
_chemical_formula_sum   'V79 Zn79 O256'
_cell_volume   4814.77393345
_cell_formula_units_Z   1
loop_
 _symmetry_equiv_pos_site_id
 _symmetry_equiv_pos_as_xyz
  1  'x, y, z'
loop_
 _atom_site_type_symbol
 _atom_site_label
 _atom_site_symmetry_multiplicity
 _atom_site_fract_x
 _atom_site_fract_y
 _atom_site_fract_z
 _atom_site_occupancy
  V  V0  1  0.62832701  0.00291623  0.62407883  1
  V  V1  1  0.74412430  0.37851293  0.64052404  1
  V  V2  1  0.75611494  0.87019326  0.62229121  1
  V  V3  1  0.37424265  0.74710370  0.14227060  1
  V  V4  1  0.24520472  0.37415364  0.62465277  1
  V  V5  1  0.12510536  0.12534932  -0.00185497  1
  V  V6  1  0.00413670  0.13305740  0.12792332  1
  V  V7  1  0.24485419  0.87722363  0.62677934  1
  V  V8  1  0.12962399  0.75029574  0.85090485  1
  V  V9  1  0.10919642  0.50450901  0.11970241  1
  V  V10  1  0.63204837  0.00464188  0.12812243  1
  V  V11  1  0.12738237  0.00193473  0.12562426  1
  V  V12  1  0.25215956  0.25469471  0.00607111  1
  V  V13  1  0.75279169  0.37985481  0.11903721  1
  V  V14  1  0.37559990  0.00212697  0.37619120  1
  V  V15  1  0.62524142  0.49685570  0.12930210  1
  V  V16  1  -0.01699107  0.62163159  0.62797151  1
  V  V17  1  0.24798135  0.49440389  0.75009116  1
  V  V18  1  0.62248388  0.26408920  0.86886217  1
  V  V19  1  0.61710721  0.13376772  -0.00072358  1
  V  V20  1  0.87860245  0.75682387  0.12906605  1
  V  V21  1  -0.02023443  0.74695884  0.74093698  1
  V  V22  1  0.38223342  0.12847799  0.74644071  1
  V  V23  1  0.25144330  0.74167485  0.50738884  1
  V  V24  1  0.88034639  0.62048789  0.25131794  1
  V  V25  1  0.00060996  0.50212033  0.49836085  1
  V  V26  1  0.50424639  -0.00356536  0.48994774  1
  V  V27  1  0.38103466  0.87163542  0.50538848  1
  V  V28  1  0.25824058  0.75075743  -0.00041915  1
  V  V29  1  0.24733264  0.50693991  0.24663970  1
  V  V30  1  0.62848533  0.12727176  0.49388230  1
  V  V31  1  0.49642406  -0.00021832  0.00621364  1
  V  V32  1  0.25247834  0.12599653  0.87303910  1
  V  V33  1  0.74951199  0.50176241  0.25669242  1
  V  V34  1  0.61999032  0.49963509  0.64033883  1
  V  V35  1  0.76521826  0.00121392  0.75263904  1
  V  V36  1  0.00699129  0.36651903  0.87724035  1
  V  V37  1  0.75729330  0.25402021  -0.00361244  1
  V  V38  1  0.25823506  0.87446083  0.12086967  1
  V  V39  1  0.11472703  0.87025576  0.25316658  1
  V  V40  1  0.37147363  0.50024694  0.36977126  1
  V  V41  1  0.01290158  0.01320124  0.51219187  1
  V  V42  1  0.37969544  -0.00430851  0.87659845  1
  V  V43  1  0.88952957  0.49510959  0.87934346  1
  V  V44  1  0.45175221  0.22453822  0.23367834  1
  V  V45  1  0.50327464  0.26282166  0.74937843  1
  V  V46  1  0.38747768  0.37064047  0.00237093  1
  V  V47  1  0.11616038  0.24422633  0.37722245  1
  V  V48  1  0.49030251  0.62538360  0.13651071  1
  V  V49  1  0.76159442  0.12182309  0.86888733  1
  V  V50  1  0.62723623  0.62839481  0.00437556  1
  V  V51  1  0.12597645  0.50626683  0.62213217  1
  V  V52  1  0.62605356  0.75411677  0.88063282  1
  V  V53  1  0.50708557  0.50340193  0.48656446  1
  V  V54  1  0.25481910  0.00327559  0.25309258  1
  V  V55  1  0.49670490  0.74778530  0.74550305  1
  V  V56  1  0.75722153  0.12027959  0.37826542  1
  V  V57  1  -0.01126611  0.37782015  0.37594361  1
  V  V58  1  0.24075766  0.24388829  0.50194791  1
  V  V59  1  0.87864587  0.25564059  0.12654787  1
  V  V60  1  0.74644354  0.76560636  0.01450155  1
  V  V61  1  0.89022004  -0.00361005  0.37486215  1
  V  V62  1  0.37992673  0.36647920  0.49721494  1
  V  V63  1  0.88699789  0.86420565  0.49578918  1
  V  V64  1  0.88173173  0.13466473  0.25408113  1
  V  V65  1  0.62384437  0.87852038  0.75349962  1
  V  V66  1  0.24505870  -0.00531379  0.74667403  1
  V  V67  1  0.87257228  0.38264343  0.50214120  1
  V  V68  1  0.60470358  0.74778008  0.36942186  1
  V  V69  1  0.74074582  0.74463767  0.49688662  1
  V  V70  1  0.10827630  0.62744974  0.00047619  1
  V  V71  1  0.88554938  0.23882014  0.63757307  1
  V  V72  1  0.50044411  0.13140595  0.62383810  1
  V  V73  1  0.50062766  0.49784071  -0.00481986  1
  V  V74  1  0.74936139  0.25034221  0.50130703  1
  V  V75  1  0.11590190  0.37356688  0.24943142  1
  V  V76  1  0.25811400  0.61922398  0.87561700  1
  V  V77  1  0.75585005  0.62220805  0.86260073  1
  V  V78  1  0.23978513  0.62670048  0.37542318  1
  Zn  Zn79  1  0.61311933  0.87987413  0.26406980  1
  Zn  Zn80  1  -0.00462428  0.75281440  0.25606733  1
  Zn  Zn81  1  -0.02997943  -0.00991539  -0.02025101  1
  Zn  Zn82  1  0.76449767  -0.00883381  0.23681792  1
  Zn  Zn83  1  0.58067165  0.31085958  0.31023708  1
  Zn  Zn84  1  0.49567705  0.87292928  0.88656086  1
  Zn  Zn85  1  0.24762388  0.37583269  0.13007457  1
  Zn  Zn86  1  0.11085971  0.75073424  0.38987656  1
  Zn  Zn87  1  0.24702154  0.12349003  0.37851486  1
  Zn  Zn88  1  0.74647277  0.62006970  0.38391219  1
  Zn  Zn89  1  0.50220994  0.63520884  0.60944303  1
  Zn  Zn90  1  -0.00766553  0.88115930  0.86533900  1
  Zn  Zn91  1  0.12505934  0.25302541  0.85797472  1
  Zn  Zn92  1  0.37742100  0.62492917  0.74033911  1
  Zn  Zn93  1  0.38549431  0.49087059  0.86732406  1
  Zn  Zn94  1  0.19515828  0.19005847  0.19238129  1
  Zn  Zn95  1  0.19736388  0.18643076  0.68609256  1
  Zn  Zn96  1  0.18378186  0.68624186  0.18354613  1
  Zn  Zn97  1  0.19765952  0.67654716  0.67715784  1
  Zn  Zn98  1  0.69727186  0.18530973  0.18639398  1
  Zn  Zn99  1  0.69130844  0.19043287  0.68889893  1
  Zn  Zn100  1  0.68236772  0.68589057  0.19293559  1
  Zn  Zn101  1  0.68038720  0.68696323  0.68254130  1
  Zn  Zn102  1  0.30300259  0.31839993  0.31797081  1
  Zn  Zn103  1  0.31774591  0.31459324  0.81433823  1
  Zn  Zn104  1  0.30859108  0.81915133  0.31901383  1
  Zn  Zn105  1  0.31299553  0.81302341  0.81575174  1
  Zn  Zn106  1  0.78388295  0.32101644  0.32041909  1
  Zn  Zn107  1  0.81999112  0.31718555  0.81500473  1
  Zn  Zn108  1  0.80673047  0.81401052  0.30751273  1
  Zn  Zn109  1  0.81227824  0.81300610  0.81648068  1
  Zn  Zn110  1  0.18289656  0.43358027  0.43748176  1
  Zn  Zn111  1  0.17957803  0.44035965  0.93610445  1
  Zn  Zn112  1  0.18754732  0.93170279  0.43793859  1
  Zn  Zn113  1  0.14720218  0.91586095  0.95538909  1
  Zn  Zn114  1  0.68358492  0.42713794  0.43329562  1
  Zn  Zn115  1  0.69197706  0.44233383  0.94006898  1
  Zn  Zn116  1  0.70471405  0.91719602  0.40863466  1
  Zn  Zn117  1  0.68723689  0.94409424  0.94106420  1
  Zn  Zn118  1  0.31571370  0.06705591  0.06498525  1
  Zn  Zn119  1  0.31615816  0.06150153  0.56185869  1
  Zn  Zn120  1  0.31010494  0.55885878  0.06099700  1
  Zn  Zn121  1  0.32280271  0.55970570  0.56290627  1
  Zn  Zn122  1  0.81409303  0.06840731  0.05477902  1
  Zn  Zn123  1  0.82327185  0.05658279  0.56244289  1
  Zn  Zn124  1  0.82111053  0.57179120  0.05991529  1
  Zn  Zn125  1  0.80647259  0.55934252  0.56914650  1
  Zn  Zn126  1  0.43219450  0.42746088  0.19026108  1
  Zn  Zn127  1  0.43125193  0.44444626  0.67593999  1
  Zn  Zn128  1  0.44407530  0.95063004  0.19374678  1
  Zn  Zn129  1  0.43748705  0.93817188  0.68509174  1
  Zn  Zn130  1  0.93381513  0.43720925  0.18627575  1
  Zn  Zn131  1  0.92518007  0.44452939  0.70100764  1
  Zn  Zn132  1  0.92401396  0.94904311  0.15974495  1
  Zn  Zn133  1  0.94406417  0.93135164  0.68395391  1
  Zn  Zn134  1  0.06267604  0.05850947  0.31016750  1
  Zn  Zn135  1  0.06538820  0.05604213  0.81471389  1
  Zn  Zn136  1  0.06065443  0.56201202  0.31375187  1
  Zn  Zn137  1  0.06330117  0.56199535  0.81089418  1
  Zn  Zn138  1  0.57253050  0.11222482  0.28767301  1
  Zn  Zn139  1  0.56735824  0.06761458  0.81673072  1
  Zn  Zn140  1  0.56596814  0.56750267  0.31742242  1
  Zn  Zn141  1  0.56994422  0.56478757  0.81610630  1
  Zn  Zn142  1  0.44067153  0.18892904  0.42538577  1
  Zn  Zn143  1  0.43695775  0.19282722  0.93389982  1
  Zn  Zn144  1  0.42621346  0.68319097  0.43277294  1
  Zn  Zn145  1  0.43996492  0.68641133  0.94007216  1
  Zn  Zn146  1  0.93940490  0.19133981  0.45152232  1
  Zn  Zn147  1  0.94309770  0.18981243  0.93705534  1
  Zn  Zn148  1  0.93312003  0.68214416  0.43284598  1
  Zn  Zn149  1  0.92558427  0.71532305  0.92630029  1
  Zn  Zn150  1  0.06381378  0.31672864  0.05598248  1
  Zn  Zn151  1  0.06005578  0.31824353  0.69171466  1
  Zn  Zn152  1  0.06095828  0.81064325  0.06199805  1
  Zn  Zn153  1  0.06676613  0.80954309  0.57063233  1
  Zn  Zn154  1  0.54866814  0.31568105  0.11847060  1
  Zn  Zn155  1  0.56381636  0.31508673  0.56066103  1
  Zn  Zn156  1  0.54419074  0.83270208  0.10217680  1
  Zn  Zn157  1  0.56906021  0.81577283  0.56020439  1
  O  O158  1  0.12344391  0.12509490  0.12009717  1
  O  O159  1  0.09782423  0.11474132  0.65302310  1
  O  O160  1  0.12189657  0.62182867  0.10941141  1
  O  O161  1  0.12215204  0.61057810  0.62030401  1
  O  O162  1  0.63012210  0.12795796  0.10192294  1
  O  O163  1  0.62331619  0.11829709  0.61879056  1
  O  O164  1  0.61288863  0.61916489  0.12040786  1
  O  O165  1  0.61903880  0.60585799  0.62707385  1
  O  O166  1  0.36150391  0.38879351  0.38829683  1
  O  O167  1  0.37342609  0.37676936  0.89448758  1
  O  O168  1  0.36822912  0.88772463  0.39256881  1
  O  O169  1  0.37632684  0.89092764  0.87427275  1
  O  O170  1  0.87991148  0.36589266  0.38458896  1
  O  O171  1  0.88583731  0.38554112  0.87712834  1
  O  O172  1  0.87095297  0.88380393  0.38764443  1
  O  O173  1  0.89677586  0.82309861  0.88784222  1
  O  O174  1  0.25500945  -0.00040997  0.37022480  1
  O  O175  1  0.26201475  0.01148406  0.86302598  1
  O  O176  1  0.24853706  0.50622235  0.36899720  1
  O  O177  1  0.24957630  0.50517348  0.86728453  1
  O  O178  1  0.77201995  0.01385561  0.39264936  1
  O  O179  1  0.74834416  0.01324584  0.86936792  1
  O  O180  1  0.74605608  0.49909591  0.35925376  1
  O  O181  1  0.73694909  0.52133741  0.87339410  1
  O  O182  1  0.23734398  0.50164703  0.13244490  1
  O  O183  1  0.24532681  0.49568724  0.62793374  1
  O  O184  1  0.24683795  0.99329280  0.13110025  1
  O  O185  1  0.25592231  0.99295882  0.63635123  1
  O  O186  1  0.74221172  0.49661723  0.12287616  1
  O  O187  1  0.73272675  0.48950426  0.62239982  1
  O  O188  1  0.73626006  1.02282890  0.12844902  1
  O  O189  1  0.74477810  0.99386651  0.63131400  1
  O  O190  1  0.00566169  0.38238086  0.26065196  1
  O  O191  1  -0.00133670  0.38402984  0.76324345  1
  O  O192  1  0.01470951  0.88263262  0.23921759  1
  O  O193  1  -0.00017412  0.85065375  0.74295051  1
  O  O194  1  0.50399158  0.34825327  0.22512867  1
  O  O195  1  0.48690229  0.35991990  0.73615588  1
  O  O196  1  0.51528806  0.86832819  0.20965445  1
  O  O197  1  0.51176139  0.87010705  0.75089958  1
  O  O198  1  0.46307107  0.12369576  0.25463504  1
  O  O199  1  0.49964434  0.13131130  0.74282620  1
  O  O200  1  0.49979097  0.61680575  0.23462140  1
  O  O201  1  0.50459688  0.64315847  0.75822074  1
  O  O202  1  0.99464223  0.12625083  0.24000471  1
  O  O203  1  1.04260246  0.11497152  0.70485073  1
  O  O204  1  0.98350421  0.62130093  0.25055473  1
  O  O205  1  1.00521517  0.62930539  0.73423781  1
  O  O206  1  0.36478915  0.25964408  -0.00426481  1
  O  O207  1  0.36464100  0.26206431  0.48808105  1
  O  O208  1  0.36281559  0.74753471  0.00421726  1
  O  O209  1  0.36450931  0.76035700  0.49419620  1
  O  O210  1  0.86420205  0.23959370  0.01072404  1
  O  O211  1  0.86671188  0.26084828  0.51518164  1
  O  O212  1  0.85543739  0.74222052  0.02144743  1
  O  O213  1  0.86528001  0.76131756  0.49541420  1
  O  O214  1  0.13659307  0.25328877  0.48632702  1
  O  O215  1  0.13682941  0.23981098  0.99358723  1
  O  O216  1  0.14649275  0.75927490  0.50131877  1
  O  O217  1  0.13639979  0.73790460  0.99556997  1
  O  O218  1  0.63572021  0.23864844  0.50511774  1
  O  O219  1  0.63549422  0.24263515  0.98725247  1
  O  O220  1  0.63397084  0.74777924  0.49415441  1
  O  O221  1  0.62916643  0.74727293  0.99698071  1
  O  O222  1  0.48094245  0.22879138  0.13151220  1
  O  O223  1  0.51193153  0.23712090  0.63171193  1
  O  O224  1  0.48886306  0.73207212  0.11658843  1
  O  O225  1  0.51583869  0.75039329  0.64168779  1
  O  O226  1  0.99392202  0.24291067  0.11773225  1
  O  O227  1  0.98308629  0.26167949  0.62603850  1
  O  O228  1  0.98284750  0.75645154  0.12776157  1
  O  O229  1  1.00373909  0.73266251  0.63070276  1
  O  O230  1  0.00963703  0.26047055  0.38483208  1
  O  O231  1  0.00139735  0.25978876  0.86979015  1
  O  O232  1  0.00128983  0.74462071  0.36965590  1
  O  O233  1  0.02098029  0.73227470  0.84785669  1
  O  O234  1  0.48531385  0.24995061  0.34262945  1
  O  O235  1  0.51500610  0.25031834  0.86702701  1
  O  O236  1  0.50502124  0.73738225  0.37347436  1
  O  O237  1  0.51044864  0.75568617  0.87266062  1
  O  O238  1  0.25263032  0.13993932  0.50515661  1
  O  O239  1  0.24839459  0.13570772  0.99117868  1
  O  O240  1  0.25615929  0.63660113  0.49739038  1
  O  O241  1  0.24753802  0.63133858  0.99109570  1
  O  O242  1  0.74602482  0.13021465  0.50201233  1
  O  O243  1  0.74313351  0.13253150  0.98681289  1
  O  O244  1  0.75958096  0.64178781  0.50465722  1
  O  O245  1  0.73491805  0.63478960  0.99912244  1
  O  O246  1  0.24687877  0.36063753  -0.00520263  1
  O  O247  1  0.25401265  0.36672119  0.50471180  1
  O  O248  1  0.23763705  0.86294250  0.01042728  1
  O  O249  1  0.25909461  0.87134713  0.51239115  1
  O  O250  1  0.74946054  0.36482307  0.00637469  1
  O  O251  1  0.75673484  0.36676868  0.50531355  1
  O  O252  1  0.74636188  0.86363891  -0.00381064  1
  O  O253  1  0.75563798  0.86618868  0.50565500  1
  O  O254  1  0.12691154  0.49567251  0.24127315  1
  O  O255  1  0.14050911  0.50444959  0.74162701  1
  O  O256  1  0.13432541  0.99089206  0.24473300  1
  O  O257  1  0.14722249  0.99646455  0.75602089  1
  O  O258  1  0.63612959  0.50526888  0.23899386  1
  O  O259  1  0.60968059  0.49133644  0.73878513  1
  O  O260  1  0.61453328  1.01689303  0.23038904  1
  O  O261  1  0.63247362  0.99495648  0.74373569  1
  O  O262  1  0.36508719  -0.01197308  0.26355950  1
  O  O263  1  0.37802724  0.01078607  0.75796268  1
  O  O264  1  0.35879296  0.48830683  0.25658046  1
  O  O265  1  0.36684605  0.50187336  0.75222311  1
  O  O266  1  0.88061102  0.01118660  0.25667885  1
  O  O267  1  0.86358200  -0.01079070  0.74551994  1
  O  O268  1  0.86185566  0.51092136  0.24030624  1
  O  O269  1  0.86711106  0.50741836  0.77776392  1
  O  O270  1  0.11247276  0.36867078  0.36883834  1
  O  O271  1  0.11389217  0.37409437  0.87195791  1
  O  O272  1  0.13187639  0.86898029  0.35644180  1
  O  O273  1  0.13150824  0.85180564  0.86182078  1
  O  O274  1  0.67214188  0.34799163  0.35770314  1
  O  O275  1  0.63352952  0.36199795  0.87929986  1
  O  O276  1  0.61035826  0.85585329  0.38559814  1
  O  O277  1  0.62628432  0.87193496  0.86829522  1
  O  O278  1  0.35713442  0.13612208  0.13912567  1
  O  O279  1  0.39007622  0.11838852  0.63337884  1
  O  O280  1  0.38366027  0.62802618  0.12262659  1
  O  O281  1  0.39110916  0.61897312  0.62783966  1
  O  O282  1  0.88451236  0.13642291  0.13423287  1
  O  O283  1  0.87308405  0.13883740  0.62203791  1
  O  O284  1  0.86411333  0.63939501  0.14062518  1
  O  O285  1  0.88432188  0.61607535  0.63287376  1
  O  O286  1  0.24382522  0.25265046  0.10859903  1
  O  O287  1  0.24617566  0.25796379  0.61000116  1
  O  O288  1  0.25708636  0.75304761  0.11893086  1
  O  O289  1  0.25598323  0.75757191  0.61510843  1
  O  O290  1  0.75738526  0.25835570  0.11681155  1
  O  O291  1  0.75174635  0.26245239  0.61923291  1
  O  O292  1  0.73885327  0.75275459  0.11671898  1
  O  O293  1  0.73790694  0.76195594  0.61455155  1
  O  O294  1  0.23816800  0.24793100  0.38504236  1
  O  O295  1  0.25287702  0.23697163  0.87851010  1
  O  O296  1  0.24967026  0.74157902  0.38590440  1
  O  O297  1  0.24599110  0.74088811  0.87843854  1
  O  O298  1  0.76889686  0.22904292  0.39276215  1
  O  O299  1  0.74454679  0.24405245  0.87728225  1
  O  O300  1  0.74496900  0.75232455  0.39076832  1
  O  O301  1  0.73961469  0.74366431  0.88826141  1
  O  O302  1  0.01176358  0.12397992  0.00823645  1
  O  O303  1  0.00230610  0.11350979  0.50490845  1
  O  O304  1  0.01191350  0.64250539  -0.01350347  1
  O  O305  1  -0.01221308  0.61261932  0.51185210  1
  O  O306  1  0.51305426  0.12300192  -0.01167815  1
  O  O307  1  0.50945346  0.12126638  0.50493424  1
  O  O308  1  0.50892355  0.61663043  0.00629159  1
  O  O309  1  0.49500452  0.60629361  0.49408364  1
  O  O310  1  0.48605422  0.37595717  0.49800939  1
  O  O311  1  0.49112782  0.37868092  1.01435630  1
  O  O312  1  0.49384339  0.88665402  0.51192553  1
  O  O313  1  0.50679840  0.89577250  1.00422021  1
  O  O314  1  0.98592333  0.38637198  0.49296096  1
  O  O315  1  1.00197889  0.37290862  0.98062699  1
  O  O316  1  0.98817155  0.86724332  0.50642965  1
  O  O317  1  1.03507775  0.88904153  0.98465485  1
  O  O318  1  0.48993543  0.49996202  0.37764572  1
  O  O319  1  0.50654328  0.50194538  0.89084064  1
  O  O320  1  0.49502770  1.00388815  0.38848825  1
  O  O321  1  0.49702777  1.00070100  0.88386102  1
  O  O322  1  1.00259581  0.49058231  0.38540429  1
  O  O323  1  0.99468398  0.49870734  0.87879713  1
  O  O324  1  0.99460095  1.00164113  0.38468117  1
  O  O325  1  0.99036318  0.99727733  0.86833673  1
  O  O326  1  0.02209093  0.01475026  0.13123321  1
  O  O327  1  0.00182455  -0.00788848  0.61119081  1
  O  O328  1  0.00964512  0.49824175  0.12505409  1
  O  O329  1  0.00421448  0.50737118  0.62240081  1
  O  O330  1  0.50730997  0.01282321  0.10905881  1
  O  O331  1  0.51204438  0.01042497  0.62084707  1
  O  O332  1  0.50497879  0.50762048  0.11790772  1
  O  O333  1  0.51340026  0.49029164  0.60642244  1
  O  O334  1  0.23203136  0.38887163  0.25214688  1
  O  O335  1  0.26386135  0.38320691  0.73767503  1
  O  O336  1  0.24187510  0.88198099  0.24010276  1
  O  O337  1  0.26485610  0.88664142  0.73997574  1
  O  O338  1  0.76091056  0.39280909  0.23042972  1
  O  O339  1  0.74742485  0.37369224  0.73891009  1
  O  O340  1  0.72905634  0.89696533  0.28696492  1
  O  O341  1  0.74352684  0.87937172  0.74584178  1
  O  O342  1  0.24272678  0.10717811  0.25446122  1
  O  O343  1  0.26251627  0.11434363  0.75025124  1
  O  O344  1  0.24142026  0.61494526  0.25696204  1
  O  O345  1  0.25614089  0.61494355  0.75754926  1
  O  O346  1  0.76427782  0.11874398  0.26310718  1
  O  O347  1  0.74621394  0.11680297  0.76067160  1
  O  O348  1  0.75217640  0.61000911  0.24728733  1
  O  O349  1  0.74331999  0.63976460  0.76443452  1
  O  O350  1  0.36678510  0.10612614  0.39036248  1
  O  O351  1  0.37157328  0.11835375  0.86762275  1
  O  O352  1  0.35798897  0.60870016  0.37659976  1
  O  O353  1  0.36669807  0.62108327  0.87388235  1
  O  O354  1  0.87977081  0.11953004  0.37069562  1
  O  O355  1  0.86031237  0.13113246  0.87919955  1
  O  O356  1  0.86224827  0.62736964  0.35690697  1
  O  O357  1  0.85833859  0.62841780  0.88060897  1
  O  O358  1  0.12378643  0.38265959  0.13181758  1
  O  O359  1  0.13822492  0.38842539  0.62769271  1
  O  O360  1  0.13526632  0.88452786  0.13137675  1
  O  O361  1  0.14549058  0.87242861  0.62814039  1
  O  O362  1  0.63774172  0.38646069  0.11841893  1
  O  O363  1  0.63602066  0.38236473  0.61975768  1
  O  O364  1  0.63618591  0.90484109  0.11430032  1
  O  O365  1  0.63411091  0.88582316  0.63313794  1
  O  O366  1  0.13247787  0.26270056  0.26288790  1
  O  O367  1  0.13343127  0.25275449  0.74583931  1
  O  O368  1  0.12010972  0.76371921  0.23966469  1
  O  O369  1  0.13993132  0.74243447  0.75162712  1
  O  O370  1  0.61016514  0.21551411  0.24712777  1
  O  O371  1  0.62043670  0.24914242  0.76112627  1
  O  O372  1  0.62949296  0.75383813  0.26645222  1
  O  O373  1  0.62031568  0.76071328  0.76120586  1
  O  O374  1  0.35384400  0.25429918  0.24197008  1
  O  O375  1  0.38605656  0.23493408  0.75843270  1
  O  O376  1  0.36675445  0.75141322  0.24132708  1
  O  O377  1  0.39436169  0.75474083  0.75671982  1
  O  O378  1  0.86441411  0.24177372  0.24123161  1
  O  O379  1  0.86633835  0.25054287  0.73651463  1
  O  O380  1  0.86879331  0.73821758  0.24530093  1
  O  O381  1  0.88152059  0.74375172  0.74267984  1
  O  O382  1  0.38486487  0.48946504  0.49004597  1
  O  O383  1  0.38417234  0.49118287  0.99696900  1
  O  O384  1  0.38589774  0.99298540  0.49812444  1
  O  O385  1  0.38945528  1.01259309  0.99277704  1
  O  O386  1  0.87831514  0.49015623  0.50623417  1
  O  O387  1  0.86012874  0.50619611  0.97929399  1
  O  O388  1  0.89116578  0.98906044  0.49483178  1
  O  O389  1  0.88897682  0.98831402  1.05334074  1
  O  O390  1  0.14205123  0.01753023  0.01140735  1
  O  O391  1  0.11097213  -0.00788915  0.49325143  1
  O  O392  1  0.12693392  0.51758040  0.00479996  1
  O  O393  1  0.11049992  0.49254253  0.50810508  1
  O  O394  1  0.61757855  0.01627321  0.00149154  1
  O  O395  1  0.62161618  0.00718772  0.51074749  1
  O  O396  1  0.62002686  0.50803179  0.01016134  1
  O  O397  1  0.60919564  0.49110874  0.48877103  1
  O  O398  1  0.36150739  0.38336755  0.10534813  1
  O  O399  1  0.36178162  0.38131976  0.60433263  1
  O  O400  1  0.36273435  0.86676040  0.12627552  1
  O  O401  1  0.36815286  0.87952105  0.61439883  1
  O  O402  1  0.87019346  0.36419647  0.12402755  1
  O  O403  1  0.85840596  0.37833395  0.62192054  1
  O  O404  1  0.85823526  0.85399196  0.14892196  1
  O  O405  1  0.86331560  0.87933308  0.60988072  1
  O  O406  1  0.12170984  0.14164287  0.36736113  1
  O  O407  1  0.13548177  0.12388996  0.88102800  1
  O  O408  1  0.13519863  0.62697511  0.37566515  1
  O  O409  1  0.13769855  0.63010584  0.88225269  1
  O  O410  1  0.63979154  0.11420643  0.38829829  1
  O  O411  1  0.63678999  0.13506663  0.88162943  1
  O  O412  1  0.63192233  0.63910053  0.37537899  1
  O  O413  1  0.62943908  0.63731805  0.88548096  1
