# generated using pymatgen
data_V79Zn79O256
_symmetry_space_group_name_H-M   'P 1'
_cell_length_a   16.88120810
_cell_length_b   16.87897687
_cell_length_c   16.87602387
_cell_angle_alpha   90.05751206
_cell_angle_beta   89.88572462
_cell_angle_gamma   90.06122909
_symmetry_Int_Tables_number   1
_chemical_formula_structural   V79Zn79O256
_chemical_formula_sum   'V79 Zn79 O256'
_cell_volume   4808.59768691
_cell_formula_units_Z   1
loop_
 _symmetry_equiv_pos_site_id
 _symmetry_equiv_pos_as_xyz
  1  'x, y, z'
loop_
 _atom_site_type_symbol
 _atom_site_label
 _atom_site_symmetry_multiplicity
 _atom_site_fract_x
 _atom_site_fract_y
 _atom_site_fract_z
 _atom_site_occupancy
  V  V0  1  0.75210092  0.35755632  0.11907337  1
  V  V1  1  0.50420414  0.37254671  0.87857022  1
  V  V2  1  0.13200516  0.63613939  0.49660198  1
  V  V3  1  0.88382401  0.35333977  0.01267927  1
  V  V4  1  0.36352722  0.36329661  0.50129084  1
  V  V5  1  0.25254495  0.62678517  0.87747867  1
  V  V6  1  0.49100277  0.12458756  0.62141928  1
  V  V7  1  0.36259972  0.25480719  0.12801285  1
  V  V8  1  0.50747637  0.24982542  0.25188206  1
  V  V9  1  0.87344910  0.37663368  0.50029824  1
  V  V10  1  0.39147426  0.88074427  -0.00022977  1
  V  V11  1  0.62198104  0.00202071  0.62086639  1
  V  V12  1  0.49822093  0.61551137  0.62260483  1
  V  V13  1  0.88035513  0.87051676  -0.00457182  1
  V  V14  1  0.24857366  0.50090037  0.74681824  1
  V  V15  1  0.74647824  -0.00057952  0.25115163  1
  V  V16  1  0.00310508  0.62709525  0.12813766  1
  V  V17  1  0.74391562  0.74929742  0.49879809  1
  V  V18  1  -0.00048946  0.24796833  0.74944925  1
  V  V19  1  0.24997547  0.36006063  0.62309647  1
  V  V20  1  0.11249933  -0.01852815  0.63306017  1
  V  V21  1  0.37452238  -0.00056485  0.40150374  1
  V  V22  1  0.50124947  0.61663663  0.13553463  1
  V  V23  1  0.87502550  0.12659066  0.75000424  1
  V  V24  1  0.24599868  0.12712880  0.38578031  1
  V  V25  1  0.49589452  0.87926305  0.38666904  1
  V  V26  1  0.37116648  0.75456175  0.61039310  1
  V  V27  1  0.88059635  0.12722690  0.23540766  1
  V  V28  1  0.87098158  0.74925694  0.63065186  1
  V  V29  1  0.62313145  0.12766796  0.49535292  1
  V  V30  1  0.38031046  0.49960415  0.88270142  1
  V  V31  1  0.37605714  0.50336501  0.37757589  1
  V  V32  1  0.61733697  0.61705252  0.49742960  1
  V  V33  1  0.75069825  0.13075559  0.37532493  1
  V  V34  1  0.87434793  0.74786222  0.12760068  1
  V  V35  1  0.00045942  0.37512120  0.37073901  1
  V  V36  1  -0.00578476  0.37751504  0.87365643  1
  V  V37  1  0.50237107  0.37239742  0.38109209  1
  V  V38  1  -0.00257864  0.50155481  0.49140004  1
  V  V39  1  0.12636556  0.76295617  0.87168685  1
  V  V40  1  0.25640449  0.76117239  0.00840089  1
  V  V41  1  0.00589076  0.75519507  0.26289381  1
  V  V42  1  0.61631845  0.75175449  0.36670015  1
  V  V43  1  0.74788586  0.25310596  0.50427963  1
  V  V44  1  0.48917563  0.25311392  0.73946781  1
  V  V45  1  0.74893786  0.00324403  0.75458328  1
  V  V46  1  0.37714087  0.62952743  0.75115575  1
  V  V47  1  0.75348581  0.61607168  0.37059356  1
  V  V48  1  0.51370908  0.75294726  0.75605398  1
  V  V49  1  0.62887542  0.63681710  -0.00649888  1
  V  V50  1  -0.00268178  0.50093598  -0.00182982  1
  V  V51  1  0.38480649  0.00295940  0.86768810  1
  V  V52  1  0.12474866  0.00014669  0.12344101  1
  V  V53  1  -0.00739059  0.01124368  -0.00044064  1
  V  V54  1  0.25038757  -0.00362955  0.24433436  1
  V  V55  1  0.87465732  0.87531762  0.49182580  1
  V  V56  1  0.13282780  0.48644189  0.12740439  1
  V  V57  1  0.37421072  0.12149921  0.25073563  1
  V  V58  1  0.12110879  0.87625375  0.26265559  1
  V  V59  1  0.63912830  0.49532707  0.62624505  1
  V  V60  1  0.24831186  0.63619771  0.36869017  1
  V  V61  1  0.00181665  0.24984522  0.23717720  1
  V  V62  1  0.25175434  0.25115363  -0.02059153  1
  V  V63  1  0.73997108  0.15110325  0.88100269  1
  V  V64  1  0.87819889  0.24795232  0.62485906  1
  V  V65  1  0.38582308  0.75364447  0.13969757  1
  V  V66  1  0.73968351  0.87657693  0.62657661  1
  V  V67  1  0.24912268  0.48387430  0.24846240  1
  V  V68  1  0.61844529  0.00470402  0.11347207  1
  V  V69  1  -0.00230732  0.62384603  0.62695029  1
  V  V70  1  0.75120227  0.87274339  0.12489151  1
  V  V71  1  0.12454396  0.25144794  0.37450802  1
  V  V72  1  -0.00458603  -0.00124718  0.49377180  1
  V  V73  1  0.63241528  0.37105277  0.74177695  1
  V  V74  1  0.13801178  0.12339840  -0.01056712  1
  V  V75  1  0.11241247  0.13060731  0.51089090  1
  V  V76  1  0.13008942  0.62853373  0.00256494  1
  V  V77  1  0.12460334  0.37113949  0.75533856  1
  V  V78  1  0.86280731  0.61267299  0.76420275  1
  Zn  Zn79  1  0.52187251  0.87292202  0.87254542  1
  Zn  Zn80  1  0.62886249  0.49510515  0.11996840  1
  Zn  Zn81  1  0.23996320  -0.00540520  0.75716889  1
  Zn  Zn82  1  0.00795472  0.75815199  0.74519953  1
  Zn  Zn83  1  0.60962071  0.87236082  0.24649712  1
  Zn  Zn84  1  0.12545421  0.50045603  0.62258804  1
  Zn  Zn85  1  0.87813383  -0.00461064  0.36905382  1
  Zn  Zn86  1  0.37418224  0.38308051  0.00707922  1
  Zn  Zn87  1  0.75876381  0.49018680  0.24435749  1
  Zn  Zn88  1  0.00110513  0.88407035  0.86427475  1
  Zn  Zn89  1  0.36165226  0.13048097  0.75931835  1
  Zn  Zn90  1  0.24891881  0.86898643  0.62255662  1
  Zn  Zn91  1  0.63361762  0.37212425  0.25279909  1
  Zn  Zn92  1  0.88719203  0.61683403  0.26395591  1
  Zn  Zn93  1  0.50237452  0.12308443  0.11593205  1
  Zn  Zn94  1  0.18202488  0.18048982  0.18686066  1
  Zn  Zn95  1  0.18449106  0.18248339  0.69755619  1
  Zn  Zn96  1  0.19339755  0.69260831  0.19016721  1
  Zn  Zn97  1  0.18848155  0.68835365  0.68647282  1
  Zn  Zn98  1  0.68987719  0.18448243  0.18498778  1
  Zn  Zn99  1  0.68479838  0.18984683  0.68742430  1
  Zn  Zn100  1  0.68482525  0.68454411  0.18497402  1
  Zn  Zn101  1  0.69022835  0.67776201  0.68953709  1
  Zn  Zn102  1  0.31185914  0.31055759  0.31549929  1
  Zn  Zn103  1  0.31641216  0.31716970  0.80955387  1
  Zn  Zn104  1  0.31026692  0.82191265  0.32084177  1
  Zn  Zn105  1  0.31267468  0.82180376  0.81188170  1
  Zn  Zn106  1  0.81823774  0.31001122  0.31238772  1
  Zn  Zn107  1  0.77131443  0.36006398  0.86423971  1
  Zn  Zn108  1  0.81003615  0.80492943  0.30856841  1
  Zn  Zn109  1  0.80183747  0.81300736  0.81158349  1
  Zn  Zn110  1  0.18457578  0.44159814  0.43685981  1
  Zn  Zn111  1  0.18831022  0.43820195  0.93744237  1
  Zn  Zn112  1  0.18920811  0.93961198  0.44592594  1
  Zn  Zn113  1  0.19942589  0.94266805  0.93927789  1
  Zn  Zn114  1  0.68560548  0.43597752  0.44043695  1
  Zn  Zn115  1  0.69655244  0.50150511  0.94094132  1
  Zn  Zn116  1  0.68465719  0.93907759  0.43660013  1
  Zn  Zn117  1  0.69846953  0.94493658  0.94193702  1
  Zn  Zn118  1  0.31653579  0.06177299  0.06141387  1
  Zn  Zn119  1  0.28897841  0.07500454  0.58854303  1
  Zn  Zn120  1  0.31764562  0.57028365  0.07046838  1
  Zn  Zn121  1  0.31519441  0.56032663  0.55933337  1
  Zn  Zn122  1  0.80615652  0.06416500  0.05795244  1
  Zn  Zn123  1  0.81301928  0.06414489  0.56407111  1
  Zn  Zn124  1  0.81081293  0.55658959  0.06530343  1
  Zn  Zn125  1  0.81340224  0.56203317  0.55993136  1
  Zn  Zn126  1  0.43447711  0.43800945  0.19374117  1
  Zn  Zn127  1  0.43321301  0.43816037  0.68470913  1
  Zn  Zn128  1  0.43896243  0.93346661  0.19058236  1
  Zn  Zn129  1  0.44055178  0.93362841  0.68682236  1
  Zn  Zn130  1  0.93792428  0.44012443  0.18837050  1
  Zn  Zn131  1  0.93248183  0.43649548  0.68385234  1
  Zn  Zn132  1  0.94074711  0.93999158  0.18368512  1
  Zn  Zn133  1  0.93343386  0.93817743  0.68312659  1
  Zn  Zn134  1  0.06144077  0.06381183  0.31424337  1
  Zn  Zn135  1  0.05760014  0.06344406  0.81602300  1
  Zn  Zn136  1  0.07013783  0.56177532  0.31126939  1
  Zn  Zn137  1  0.05943165  0.56696396  0.81289821  1
  Zn  Zn138  1  0.55918535  0.05731896  0.31581427  1
  Zn  Zn139  1  0.56320503  0.06451654  0.81351057  1
  Zn  Zn140  1  0.56842658  0.55599301  0.30328871  1
  Zn  Zn141  1  0.56742098  0.55942245  0.81331884  1
  Zn  Zn142  1  0.43582004  0.18718699  0.43890311  1
  Zn  Zn143  1  0.43968933  0.19503614  0.93333082  1
  Zn  Zn144  1  0.43760856  0.68712106  0.43012784  1
  Zn  Zn145  1  0.44671969  0.68822575  0.94391251  1
  Zn  Zn146  1  0.93465109  0.18746604  0.43144818  1
  Zn  Zn147  1  0.93873977  0.18440764  0.92573874  1
  Zn  Zn148  1  0.93650626  0.68937186  0.44289835  1
  Zn  Zn149  1  0.93991953  0.68949307  0.93891921  1
  Zn  Zn150  1  0.07025735  0.30728489  0.05541310  1
  Zn  Zn151  1  0.06286978  0.31556294  0.56464285  1
  Zn  Zn152  1  0.06448601  0.81875670  0.06755721  1
  Zn  Zn153  1  0.05907249  0.81346540  0.55337521  1
  Zn  Zn154  1  0.56226907  0.30667512  0.06264234  1
  Zn  Zn155  1  0.55941385  0.31082110  0.55970995  1
  Zn  Zn156  1  0.56561084  0.80723344  0.06556837  1
  Zn  Zn157  1  0.55436842  0.80807632  0.56458834  1
  O  O158  1  0.12770996  0.11156899  0.11197311  1
  O  O159  1  0.12068830  0.12610407  0.61142227  1
  O  O160  1  0.12071930  0.62626621  0.11751726  1
  O  O161  1  0.11669455  0.62600550  0.61535965  1
  O  O162  1  0.62522571  0.10855048  0.13064946  1
  O  O163  1  0.61866940  0.12051451  0.61538612  1
  O  O164  1  0.61448520  0.62363552  0.12196681  1
  O  O165  1  0.61963593  0.61238556  0.61832338  1
  O  O166  1  0.37560337  0.38169221  0.38369259  1
  O  O167  1  0.38412196  0.38310733  0.87609734  1
  O  O168  1  0.37566379  0.89358027  0.38157972  1
  O  O169  1  0.38334989  0.88102683  0.88684760  1
  O  O170  1  0.89000858  0.36611409  0.38701075  1
  O  O171  1  0.89131231  0.37215557  0.89401062  1
  O  O172  1  0.86187447  0.87373844  0.38768731  1
  O  O173  1  0.86827366  0.86202578  0.89449084  1
  O  O174  1  0.25885055  0.00835892  0.37003622  1
  O  O175  1  0.27439814  -0.00367196  0.87261749  1
  O  O176  1  0.25459250  0.50361873  0.36492705  1
  O  O177  1  0.25715672  0.50442068  0.86538416  1
  O  O178  1  0.75127287  0.00771948  0.36568563  1
  O  O179  1  0.75094063  0.00017585  0.85548379  1
  O  O180  1  0.74294570  0.51437068  0.37730249  1
  O  O181  1  0.76410977  0.46970049  0.86641196  1
  O  O182  1  0.24845111  0.50726957  0.14017907  1
  O  O183  1  0.25152862  0.49600180  0.63710112  1
  O  O184  1  0.24533113  1.00718627  0.13782454  1
  O  O185  1  0.21824877  0.98875363  0.61370910  1
  O  O186  1  0.75239723  0.47680102  0.12353623  1
  O  O187  1  0.73850680  0.49929911  0.62218188  1
  O  O188  1  0.74149741  0.99493310  0.13249357  1
  O  O189  1  0.74142034  0.99426280  0.62584122  1
  O  O190  1  -0.00641376  0.35936610  0.25730707  1
  O  O191  1  0.00527893  0.37331252  0.75491703  1
  O  O192  1  0.01131692  0.87113428  0.24682208  1
  O  O193  1  -0.02331789  0.86583285  0.75651885  1
  O  O194  1  0.49663822  0.36199178  0.25978916  1
  O  O195  1  0.49654350  0.36427257  0.74600163  1
  O  O196  1  0.49830322  0.88608380  0.27423605  1
  O  O197  1  0.50349597  0.85663255  0.74755613  1
  O  O198  1  0.48943385  0.13621289  0.25899103  1
  O  O199  1  0.50131112  0.13905636  0.73750960  1
  O  O200  1  0.50628132  0.62690748  0.23764533  1
  O  O201  1  0.49345205  0.62865364  0.74319771  1
  O  O202  1  0.98808180  0.13054872  0.25144697  1
  O  O203  1  0.98978136  0.13683601  0.75926329  1
  O  O204  1  1.00850418  0.63397464  0.24197111  1
  O  O205  1  0.99571441  0.63427760  0.73916593  1
  O  O206  1  0.36336398  0.24415836  0.01183891  1
  O  O207  1  0.36623144  0.26375664  0.49192925  1
  O  O208  1  0.37236910  0.76061702  0.00390757  1
  O  O209  1  0.37759886  0.74003387  0.51185983  1
  O  O210  1  0.89846436  0.25519579  0.00767909  1
  O  O211  1  0.87098601  0.25466229  0.50593597  1
  O  O212  1  0.88486546  0.76124897  0.01436284  1
  O  O213  1  0.86279486  0.75407692  0.50847338  1
  O  O214  1  0.11412918  0.23790211  0.49168798  1
  O  O215  1  0.14129985  0.23596478  1.00144772  1
  O  O216  1  0.12029428  0.73505529  0.49899241  1
  O  O217  1  0.13462520  0.74629585  0.99858905  1
  O  O218  1  0.63522978  0.24122754  0.50496914  1
  O  O219  1  0.58981865  0.21027767  1.00189806  1
  O  O220  1  0.63034033  0.74006763  0.49560195  1
  O  O221  1  0.63351624  0.73886975  1.00808506  1
  O  O222  1  0.48963636  0.24715839  0.14147972  1
  O  O223  1  0.49679005  0.24022965  0.62945829  1
  O  O224  1  0.49090181  0.74945534  0.13453841  1
  O  O225  1  0.49038419  0.73672785  0.63396695  1
  O  O226  1  1.01126729  0.25263144  0.13874283  1
  O  O227  1  0.99093988  0.25713645  0.63531266  1
  O  O228  1  0.99680912  0.74422155  0.13369219  1
  O  O229  1  0.98679646  0.74103804  0.62053254  1
  O  O230  1  0.00723204  0.25568496  0.36822142  1
  O  O231  1  -0.00060549  0.26224658  0.86008234  1
  O  O232  1  -0.00297933  0.74437963  0.36234610  1
  O  O233  1  0.02010532  0.75365908  0.88122635  1
  O  O234  1  0.48896226  0.26134296  0.36396777  1
  O  O235  1  0.49431917  0.26401202  0.85569812  1
  O  O236  1  0.50834429  0.75855077  0.37833745  1
  O  O237  1  0.50086971  0.74910955  0.86002970  1
  O  O238  1  0.23123009  0.12054656  0.49282821  1
  O  O239  1  0.24472259  0.13135875  1.00026507  1
  O  O240  1  0.23679980  0.61825681  0.49362740  1
  O  O241  1  0.24548516  0.63361002  0.99751528  1
  O  O242  1  0.74487327  0.13245223  0.49385746  1
  O  O243  1  0.75547497  0.12153915  0.97758139  1
  O  O244  1  0.73988175  0.63102989  0.49353383  1
  O  O245  1  0.73389378  0.61359399  1.00500717  1
  O  O246  1  0.25163033  0.35604869  -0.00868574  1
  O  O247  1  0.25501952  0.37887287  0.50684146  1
  O  O248  1  0.26504934  0.86663684  -0.00000810  1
  O  O249  1  0.23272648  0.86246610  0.51063367  1
  O  O250  1  0.77679849  0.36463344  0.00852328  1
  O  O251  1  0.76061336  0.36454645  0.48768581  1
  O  O252  1  0.76870022  0.88646195  0.01610530  1
  O  O253  1  0.75137750  0.86642038  0.50631380  1
  O  O254  1  0.13802306  0.50003598  0.24193972  1
  O  O255  1  0.13425168  0.49554178  0.74974186  1
  O  O256  1  0.12876024  0.99663364  0.24506980  1
  O  O257  1  0.11498166  1.00666382  0.73453119  1
  O  O258  1  0.63551375  0.48830947  0.24060621  1
  O  O259  1  0.61894880  0.48992700  0.73320333  1
  O  O260  1  0.63576957  0.99761181  0.24671002  1
  O  O261  1  0.64068737  1.00841777  0.73528038  1
  O  O262  1  0.36755116  0.01030733  0.24897288  1
  O  O263  1  0.38239712  0.00122981  0.76132780  1
  O  O264  1  0.35975828  0.49534934  0.26266643  1
  O  O265  1  0.36700527  0.50877265  0.75657230  1
  O  O266  1  0.86900115  0.00987175  0.24801350  1
  O  O267  1  0.86029623  0.01554967  0.73340489  1
  O  O268  1  0.87273324  0.50666762  0.24943835  1
  O  O269  1  0.88640955  0.51514512  0.74954235  1
  O  O270  1  0.11506740  0.36289833  0.38226384  1
  O  O271  1  0.11867320  0.37853665  0.86200557  1
  O  O272  1  0.12315517  0.88627510  0.36140896  1
  O  O273  1  0.13030287  0.86488794  0.88264932  1
  O  O274  1  0.60523665  0.37996973  0.37724828  1
  O  O275  1  0.60602144  0.38124242  0.85165176  1
  O  O276  1  0.61796508  0.86774056  0.37567076  1
  O  O277  1  0.65029668  0.86194994  0.87322568  1
  O  O278  1  0.38081822  0.13273728  0.13329366  1
  O  O279  1  0.39146774  0.11849928  0.61868293  1
  O  O280  1  0.38947035  0.64195779  0.12281852  1
  O  O281  1  0.38019005  0.62787723  0.63169749  1
  O  O282  1  0.86938313  0.12221483  0.13689882  1
  O  O283  1  0.87123106  0.13807075  0.63165143  1
  O  O284  1  0.89020825  0.63279100  0.12005701  1
  O  O285  1  0.87995078  0.63143640  0.62706347  1
  O  O286  1  0.26099643  0.24566409  0.12861600  1
  O  O287  1  0.24717848  0.26149725  0.63073927  1
  O  O288  1  0.26642147  0.74252818  0.11531686  1
  O  O289  1  0.26837874  0.74515857  0.63017329  1
  O  O290  1  0.75328117  0.25651501  0.12481784  1
  O  O291  1  0.75869090  0.24734871  0.61190483  1
  O  O292  1  0.76344305  0.75923696  0.13684307  1
  O  O293  1  0.74974707  0.75429565  0.61674056  1
  O  O294  1  0.23780405  0.23840614  0.36772904  1
  O  O295  1  0.26185380  0.24197933  0.88058419  1
  O  O296  1  0.25891259  0.73472600  0.37445287  1
  O  O297  1  0.24373896  0.74674986  0.88504861  1
  O  O298  1  0.75532151  0.23882573  0.38449642  1
  O  O299  1  0.74788301  0.25132069  0.87689903  1
  O  O300  1  0.73947893  0.74300632  0.38462691  1
  O  O301  1  0.69605584  0.79497641  0.86809543  1
  O  O302  1  0.00915957  0.11565090  -0.00589344  1
  O  O303  1  0.00637511  0.11860529  0.49514212  1
  O  O304  1  0.01101043  0.62088047  0.00766449  1
  O  O305  1  0.00682064  0.61980402  0.50391307  1
  O  O306  1  0.52640449  0.15746503  0.00249752  1
  O  O307  1  0.50898177  0.13526767  0.51077192  1
  O  O308  1  0.51249421  0.63464208  0.01807934  1
  O  O309  1  0.51040290  0.63010587  0.50643800  1
  O  O310  1  0.48556643  0.36836546  0.48714700  1
  O  O311  1  0.49824758  0.36343420  0.98203991  1
  O  O312  1  0.50338099  0.87547635  0.48896348  1
  O  O313  1  0.49510871  0.86662233  0.99316207  1
  O  O314  1  0.99513693  0.38301386  0.49321025  1
  O  O315  1  1.00199020  0.38012706  0.99497173  1
  O  O316  1  0.98408285  0.88135346  0.50075585  1
  O  O317  1  0.99027364  0.88251391  0.99900288  1
  O  O318  1  0.48362693  0.48698190  0.36343248  1
  O  O319  1  0.48855675  0.48574799  0.86317258  1
  O  O320  1  0.48124598  1.00226754  0.38405524  1
  O  O321  1  0.49659924  0.98814814  0.86823613  1
  O  O322  1  1.00788332  0.49054344  0.38041583  1
  O  O323  1  1.01073330  0.49245002  0.88733490  1
  O  O324  1  0.99580372  1.00188491  0.38711216  1
  O  O325  1  1.00572760  0.99559239  0.89376860  1
  O  O326  1  0.00931913  -0.00136778  0.10916265  1
  O  O327  1  0.00456432  -0.00122232  0.61069918  1
  O  O328  1  0.01421018  0.50962545  0.12115669  1
  O  O329  1  -0.00021516  0.51107720  0.61452432  1
  O  O330  1  0.51366482  0.00155633  0.13046455  1
  O  O331  1  0.51046016  0.01391026  0.63444554  1
  O  O332  1  0.49227060  0.51245615  0.12944983  1
  O  O333  1  0.49988160  0.51240424  0.62556915  1
  O  O334  1  0.24797987  0.38427815  0.25270499  1
  O  O335  1  0.24442994  0.38115953  0.74422670  1
  O  O336  1  0.23764878  0.88830930  0.25635188  1
  O  O337  1  0.25635491  0.88266513  0.73702895  1
  O  O338  1  0.75352504  0.36621704  0.23788888  1
  O  O339  1  0.72972442  0.36369824  0.74488479  1
  O  O340  1  0.75617077  0.88551421  0.24064306  1
  O  O341  1  0.75796585  0.89138468  0.73541599  1
  O  O342  1  0.25598837  0.11716301  0.26106086  1
  O  O343  1  0.26096877  0.10367594  0.71439050  1
  O  O344  1  0.24313505  0.61934820  0.26578277  1
  O  O345  1  0.25710883  0.61856350  0.75579371  1
  O  O346  1  0.75960919  0.12046556  0.25576081  1
  O  O347  1  0.75469540  0.12106169  0.75245074  1
  O  O348  1  0.74965169  0.62794846  0.26632545  1
  O  O349  1  0.76212672  0.61850461  0.75076139  1
  O  O350  1  0.36638489  0.11769135  0.37228315  1
  O  O351  1  0.39026041  0.10909842  0.87686342  1
  O  O352  1  0.36300085  0.61129588  0.38272693  1
  O  O353  1  0.37404162  0.61934548  0.86962331  1
  O  O354  1  0.86404467  0.12010250  0.36693980  1
  O  O355  1  0.86016313  0.13411323  0.85735302  1
  O  O356  1  0.85682798  0.63100811  0.38175118  1
  O  O357  1  0.87994089  0.63444682  0.86218789  1
  O  O358  1  0.12760458  0.38800558  0.11621268  1
  O  O359  1  0.13242055  0.38038525  0.63417813  1
  O  O360  1  0.12655914  0.89157112  0.13283996  1
  O  O361  1  0.10973104  0.87925560  0.63281184  1
  O  O362  1  0.64180161  0.36740223  0.11742561  1
  O  O363  1  0.61649675  0.38835513  0.62558299  1
  O  O364  1  0.63421572  0.88278800  0.12894636  1
  O  O365  1  0.63203036  0.88319858  0.61564681  1
  O  O366  1  0.11028562  0.23652913  0.26052682  1
  O  O367  1  0.11475664  0.26018196  0.74285515  1
  O  O368  1  0.12232618  0.76842506  0.24462061  1
  O  O369  1  0.12879243  0.74517476  0.76820016  1
  O  O370  1  0.61020842  0.24884832  0.24834280  1
  O  O371  1  0.60875960  0.26468546  0.73469015  1
  O  O372  1  0.63343167  0.75476146  0.26355893  1
  O  O373  1  0.61210954  0.74015719  0.74103996  1
  O  O374  1  0.37596921  0.24120069  0.24325098  1
  O  O375  1  0.38358542  0.24670247  0.74621191  1
  O  O376  1  0.36643338  0.76418257  0.23682478  1
  O  O377  1  0.38154105  0.73667909  0.74830787  1
  O  O378  1  0.88794907  0.23606038  0.25179445  1
  O  O379  1  0.88277486  0.24535478  0.73796677  1
  O  O380  1  0.88652898  0.74372524  0.24291413  1
  O  O381  1  0.86252021  0.74077099  0.73776641  1
  O  O382  1  0.36963810  0.48927330  0.48372655  1
  O  O383  1  0.36420170  0.50023167  0.98768053  1
  O  O384  1  0.36112943  1.00997705  0.49764904  1
  O  O385  1  0.37856240  0.98708485  0.99658034  1
  O  O386  1  0.88590149  0.49193079  0.50251842  1
  O  O387  1  0.89636634  0.49452620  1.01033867  1
  O  O388  1  0.87748366  0.99178410  0.50045672  1
  O  O389  1  0.88776667  0.99192345  1.00740561  1
  O  O390  1  0.12474482  0.00781077  0.00439931  1
  O  O391  1  0.11125865  0.00958059  0.50583125  1
  O  O392  1  0.12568450  0.51087686  0.00783616  1
  O  O393  1  0.11302318  0.50894539  0.50201122  1
  O  O394  1  0.62749656  -0.00408978  0.01380582  1
  O  O395  1  0.63071485  0.01348046  0.50954231  1
  O  O396  1  0.61260381  0.51445276  0.00859830  1
  O  O397  1  0.62543027  0.50713211  0.51082818  1
  O  O398  1  0.38002073  0.35886781  0.12376693  1
  O  O399  1  0.36662139  0.38090134  0.60829251  1
  O  O400  1  0.38496990  0.86616155  0.11137601  1
  O  O401  1  0.38361015  0.85661731  0.62259829  1
  O  O402  1  0.87646580  0.37004880  0.11761569  1
  O  O403  1  0.87781338  0.36609040  0.60994395  1
  O  O404  1  0.87227034  0.86685909  0.12105770  1
  O  O405  1  0.86105679  0.86564524  0.61383112  1
  O  O406  1  0.12873928  0.13060203  0.38348191  1
  O  O407  1  0.12968887  0.11812246  0.88949441  1
  O  O408  1  0.13580073  0.62289680  0.38608906  1
  O  O409  1  0.13060231  0.63222876  0.88778563  1
  O  O410  1  0.63453711  0.11803367  0.38460879  1
  O  O411  1  0.64203294  0.12991945  0.86182904  1
  O  O412  1  0.62856657  0.62987828  0.38101159  1
  O  O413  1  0.61952527  0.62136867  0.89079019  1
