# generated using pymatgen
data_V79Zn79O256
_symmetry_space_group_name_H-M   'P 1'
_cell_length_a   16.90552605
_cell_length_b   16.93726151
_cell_length_c   16.94914271
_cell_angle_alpha   89.95453181
_cell_angle_beta   90.14316362
_cell_angle_gamma   90.08138631
_symmetry_Int_Tables_number   1
_chemical_formula_structural   V79Zn79O256
_chemical_formula_sum   'V79 Zn79 O256'
_cell_volume   4853.08266717
_cell_formula_units_Z   1
loop_
 _symmetry_equiv_pos_site_id
 _symmetry_equiv_pos_as_xyz
  1  'x, y, z'
loop_
 _atom_site_type_symbol
 _atom_site_label
 _atom_site_symmetry_multiplicity
 _atom_site_fract_x
 _atom_site_fract_y
 _atom_site_fract_z
 _atom_site_occupancy
  V  V0  1  0.00894471  0.00417335  0.50220279  1
  V  V1  1  0.12895642  0.49745956  0.13304900  1
  V  V2  1  0.88258934  0.87879468  0.49206902  1
  V  V3  1  0.00624612  0.01485423  0.00398195  1
  V  V4  1  0.50540528  0.62020948  0.12976730  1
  V  V5  1  0.49868361  0.62915638  0.62275055  1
  V  V6  1  0.25916044  0.75402909  0.50132949  1
  V  V7  1  0.23424602  0.87633058  0.63337510  1
  V  V8  1  0.12329483  0.62595999  0.00163976  1
  V  V9  1  -0.00100064  0.74887948  0.25633451  1
  V  V10  1  0.51235899  0.26389024  0.25169586  1
  V  V11  1  -0.00083922  0.86592661  0.86387512  1
  V  V12  1  0.87018253  0.24978724  0.61913164  1
  V  V13  1  0.49436755  0.49000462  0.49866290  1
  V  V14  1  0.22994718  0.25320158  -0.01128071  1
  V  V15  1  0.48676831  0.88186655  0.88400096  1
  V  V16  1  -0.00523520  0.38048944  0.36945216  1
  V  V17  1  0.25373409  0.62127639  0.37348399  1
  V  V18  1  0.12717298  0.62293297  0.50171865  1
  V  V19  1  0.12129480  0.74969041  0.86255513  1
  V  V20  1  0.63146351  0.74548799  0.37529787  1
  V  V21  1  0.37923643  0.37749619  -0.01775165  1
  V  V22  1  0.73648822  0.13956240  0.37315241  1
  V  V23  1  0.26440429  0.74403107  0.01856936  1
  V  V24  1  0.25588672  0.50121354  0.75344742  1
  V  V25  1  0.25285650  0.37337547  0.62163388  1
  V  V26  1  0.36563228  0.13231878  0.25422933  1
  V  V27  1  0.74188788  0.62787352  0.87251021  1
  V  V28  1  0.49240275  0.12915820  0.12976247  1
  V  V29  1  0.12616855  0.25413288  0.37971517  1
  V  V30  1  0.62238781  0.00230508  0.12604277  1
  V  V31  1  0.87341737  0.23190996  0.13152892  1
  V  V32  1  0.88177835  0.62982953  0.75210307  1
  V  V33  1  0.75405735  0.88644269  0.62755819  1
  V  V34  1  0.87993509  0.87274837  0.00093012  1
  V  V35  1  0.75465793  0.74712793  0.49770069  1
  V  V36  1  0.37654050  0.24797572  0.63670917  1
  V  V37  1  -0.00399781  0.49987027  0.49644173  1
  V  V38  1  0.62509857  0.87972097  0.75462027  1
  V  V39  1  0.26195788  0.37579562  0.13116153  1
  V  V40  1  0.87467993  0.74506326  0.12611195  1
  V  V41  1  0.87003093  -0.00061243  0.87001086  1
  V  V42  1  0.62665156  0.62008004  0.00355070  1
  V  V43  1  0.62096900  0.12046883  -0.00013845  1
  V  V44  1  0.00180465  0.23653523  0.24685329  1
  V  V45  1  0.49962892  0.87939704  0.38654023  1
  V  V46  1  0.17609998  -0.07579815  0.20256973  1
  V  V47  1  0.49809239  0.12039543  0.61118184  1
  V  V48  1  0.50145608  0.74840333  0.24892256  1
  V  V49  1  0.86779834  0.12150153  0.74807062  1
  V  V50  1  0.37659410  0.48893020  0.37577699  1
  V  V51  1  0.87242472  0.01356866  0.36289518  1
  V  V52  1  0.12548164  0.49881748  0.62614571  1
  V  V53  1  0.26294976  0.25520757  0.49606063  1
  V  V54  1  0.37471376  0.10383797  0.75818887  1
  V  V55  1  0.87379771  0.37367054  0.01075485  1
  V  V56  1  0.74940493  0.37404774  0.62860903  1
  V  V57  1  0.62363784  0.00373149  0.60850600  1
  V  V58  1  0.61609343  0.25381012  0.87017753  1
  V  V59  1  0.62754182  0.88047218  0.25052402  1
  V  V60  1  0.74836796  0.49848281  0.74975100  1
  V  V61  1  0.62970330  0.62191763  0.49892565  1
  V  V62  1  0.74165978  0.74938398  -0.00548409  1
  V  V63  1  0.74834169  0.87761492  0.12685031  1
  V  V64  1  0.86073004  0.61488398  0.26821852  1
  V  V65  1  0.88280226  0.75327472  0.62827979  1
  V  V66  1  0.00139687  0.62648477  0.62723455  1
  V  V67  1  0.25810163  0.62307546  0.87409540  1
  V  V68  1  0.49427453  0.50356716  -0.00953524  1
  V  V69  1  0.00779566  0.12661437  0.62693787  1
  V  V70  1  0.87187787  0.37539157  0.49711767  1
  V  V71  1  0.87896188  0.49069559  0.87434721  1
  V  V72  1  -0.00216486  0.25781834  0.76097195  1
  V  V73  1  0.38132610  0.76178145  0.63177795  1
  V  V74  1  0.12367760  0.75315776  0.37590851  1
  V  V75  1  0.74823236  0.25113399  0.00349153  1
  V  V76  1  0.37739335  0.62508515  0.25048246  1
  V  V77  1  0.12225641  0.37219550  0.76213572  1
  V  V78  1  0.00309198  0.49178274  -0.00458434  1
  Zn  Zn79  1  0.25892175  0.09639923  0.39005123  1
  Zn  Zn80  1  0.62124355  0.49697453  0.62768935  1
  Zn  Zn81  1  0.13109856  0.37985441  0.25308683  1
  Zn  Zn82  1  0.53530064  0.72768504  0.77615210  1
  Zn  Zn83  1  0.34948131  0.91671145  0.01199642  1
  Zn  Zn84  1  -0.00267271  0.62011223  0.12975756  1
  Zn  Zn85  1  0.26407196  0.08520291  0.90857070  1
  Zn  Zn86  1  0.12810898  0.12968646  0.50677151  1
  Zn  Zn87  1  0.03595065  0.90608073  0.34755865  1
  Zn  Zn88  1  0.23076481  -0.00282391  0.73999915  1
  Zn  Zn89  1  0.62553755  0.26621981  0.37426070  1
  Zn  Zn90  1  0.74445869  0.11943541  0.86963247  1
  Zn  Zn91  1  0.38110321  0.62626498  0.75377599  1
  Zn  Zn92  1  0.60064437  0.35628044  0.74450995  1
  Zn  Zn93  1  0.38893802  -0.00150312  0.37906637  1
  Zn  Zn94  1  0.18455658  0.19679872  0.17888338  1
  Zn  Zn95  1  0.16396791  0.15525083  0.75789809  1
  Zn  Zn96  1  0.18493700  0.68653874  0.19391559  1
  Zn  Zn97  1  0.19175130  0.68887127  0.68641274  1
  Zn  Zn98  1  0.69216766  0.18354481  0.19526846  1
  Zn  Zn99  1  0.68504837  0.18526886  0.68204214  1
  Zn  Zn100  1  0.68889464  0.68671825  0.18646168  1
  Zn  Zn101  1  0.69448541  0.68904027  0.68290337  1
  Zn  Zn102  1  0.32088716  0.30660504  0.30661680  1
  Zn  Zn103  1  0.31534751  0.31480964  0.80920186  1
  Zn  Zn104  1  0.31618693  0.81081933  0.31242366  1
  Zn  Zn105  1  0.31508932  0.81568213  0.82081470  1
  Zn  Zn106  1  0.81138165  0.31751204  0.30822610  1
  Zn  Zn107  1  0.80750414  0.30774989  0.81477804  1
  Zn  Zn108  1  0.81734850  0.81343629  0.30971197  1
  Zn  Zn109  1  0.80965907  0.81401377  0.81107081  1
  Zn  Zn110  1  0.18751122  0.43740155  0.43739204  1
  Zn  Zn111  1  0.19301199  0.43804347  0.93981696  1
  Zn  Zn112  1  0.20895609  0.94519958  0.43956347  1
  Zn  Zn113  1  0.19258846  0.92556841  0.94629842  1
  Zn  Zn114  1  0.66280553  0.40114287  0.46546237  1
  Zn  Zn115  1  0.68726016  0.43615906  0.93661307  1
  Zn  Zn116  1  0.69466369  0.93830208  0.43430048  1
  Zn  Zn117  1  0.68380707  0.93656158  0.94154044  1
  Zn  Zn118  1  0.20940701  0.05874724  0.06896132  1
  Zn  Zn119  1  0.31099096  0.05987021  0.56191485  1
  Zn  Zn120  1  0.31418029  0.56376983  0.06584036  1
  Zn  Zn121  1  0.31478230  0.56435093  0.56414011  1
  Zn  Zn122  1  0.81217646  0.05899123  0.05944184  1
  Zn  Zn123  1  0.81305608  0.06661087  0.55178575  1
  Zn  Zn124  1  0.81644875  0.56390701  0.05730723  1
  Zn  Zn125  1  0.81407148  0.56117714  0.56401450  1
  Zn  Zn126  1  0.44021450  0.44502899  0.18617711  1
  Zn  Zn127  1  0.43367598  0.43554053  0.68078547  1
  Zn  Zn128  1  0.40687132  0.95883280  0.17871299  1
  Zn  Zn129  1  0.44791399  0.93772066  0.69137191  1
  Zn  Zn130  1  0.93645233  0.44008991  0.18726498  1
  Zn  Zn131  1  0.93655449  0.43907804  0.68622874  1
  Zn  Zn132  1  0.97351295  0.95639231  0.20123645  1
  Zn  Zn133  1  0.94393338  0.94145567  0.68630409  1
  Zn  Zn134  1  0.09437463  0.06007482  0.31419037  1
  Zn  Zn135  1  0.09796380  0.03552777  0.85830996  1
  Zn  Zn136  1  0.05815824  0.56945150  0.31324646  1
  Zn  Zn137  1  0.06653423  0.56058102  0.81360272  1
  Zn  Zn138  1  0.56622425  0.06570477  0.31326961  1
  Zn  Zn139  1  0.56090814  0.06050860  0.80348279  1
  Zn  Zn140  1  0.56906138  0.55234756  0.31804809  1
  Zn  Zn141  1  0.53762981  0.52293672  0.79209187  1
  Zn  Zn142  1  0.44363404  0.19416310  0.43119956  1
  Zn  Zn143  1  0.43164103  0.18254055  0.93523837  1
  Zn  Zn144  1  0.44006087  0.68873443  0.43786956  1
  Zn  Zn145  1  0.44405728  0.69318344  0.93846113  1
  Zn  Zn146  1  0.93532138  0.18913747  0.43604495  1
  Zn  Zn147  1  0.93407183  0.18745192  0.93654267  1
  Zn  Zn148  1  0.93627349  0.68417743  0.43799049  1
  Zn  Zn149  1  0.93727430  0.68336346  0.93826527  1
  Zn  Zn150  1  0.06013984  0.31023459  0.06498171  1
  Zn  Zn151  1  0.06307970  0.31297032  0.56675866  1
  Zn  Zn152  1  0.06234397  0.80970783  0.06540705  1
  Zn  Zn153  1  0.06516331  0.81324684  0.55746291  1
  Zn  Zn154  1  0.52881075  0.29134253  0.03639198  1
  Zn  Zn155  1  0.55843997  0.30275965  0.56393644  1
  Zn  Zn156  1  0.51456069  0.83828284  0.08167712  1
  Zn  Zn157  1  0.56818193  0.81251552  0.56607094  1
  O  O158  1  0.13258161  0.11809724  0.12266123  1
  O  O159  1  0.10683901  0.13975193  0.62606236  1
  O  O160  1  0.12570212  0.61146659  0.11854939  1
  O  O161  1  0.12157027  0.62018856  0.62153332  1
  O  O162  1  0.62739730  0.11761795  0.11922653  1
  O  O163  1  0.61299978  0.11448975  0.62706117  1
  O  O164  1  0.62083187  0.62689863  0.11399528  1
  O  O165  1  0.61853372  0.62516865  0.61536130  1
  O  O166  1  0.37029412  0.39074214  0.37140672  1
  O  O167  1  0.37402321  0.38492043  0.88391906  1
  O  O168  1  0.39650445  0.87263727  0.36799684  1
  O  O169  1  0.38126625  0.87900519  0.89528987  1
  O  O170  1  0.88336253  0.37207210  0.38486737  1
  O  O171  1  0.86942850  0.38643635  0.88276314  1
  O  O172  1  0.87500471  0.87857704  0.38764432  1
  O  O173  1  0.87886094  0.87719331  0.88134164  1
  O  O174  1  0.19739080  0.01115895  0.34576130  1
  O  O175  1  0.21954095  -0.01152415  0.85284347  1
  O  O176  1  0.26409391  0.50985193  0.38622986  1
  O  O177  1  0.24284573  0.51158259  0.86518017  1
  O  O178  1  0.76844352  0.00191798  0.37561653  1
  O  O179  1  0.76608478  -0.00020463  0.88253436  1
  O  O180  1  0.69971101  0.44788745  0.29697390  1
  O  O181  1  0.75940400  0.50711828  0.86944645  1
  O  O182  1  0.23716767  0.49090361  0.11766320  1
  O  O183  1  0.24544165  0.49386202  0.62973335  1
  O  O184  1  0.24011527  0.98911046  0.16033563  1
  O  O185  1  0.25146878  0.97953227  0.62308506  1
  O  O186  1  0.74675948  0.49828100  0.13211234  1
  O  O187  1  0.75272216  0.49290633  0.63477149  1
  O  O188  1  0.74302574  0.98445817  0.11828525  1
  O  O189  1  0.74165941  0.99549881  0.61537019  1
  O  O190  1  -0.00084282  0.37497257  0.26126277  1
  O  O191  1  0.00503008  0.36498846  0.74275383  1
  O  O192  1  -0.01722208  0.85110692  0.25855666  1
  O  O193  1  -0.00548186  0.87459537  0.76437589  1
  O  O194  1  0.49653884  0.36141436  0.23516579  1
  O  O195  1  0.51009167  0.41718654  0.75765003  1
  O  O196  1  0.51551422  0.86153877  0.25731899  1
  O  O197  1  0.51601952  0.87048334  0.75800980  1
  O  O198  1  0.50217708  0.13403433  0.24090104  1
  O  O199  1  0.48284338  0.11700995  0.73632967  1
  O  O200  1  0.50177719  0.62750860  0.24866199  1
  O  O201  1  0.50258373  0.62216365  0.73798077  1
  O  O202  1  1.00947513  0.13988074  0.25705053  1
  O  O203  1  0.98618054  0.14287259  0.73552926  1
  O  O204  1  0.98520449  0.63265276  0.24931189  1
  O  O205  1  0.98870419  0.61683136  0.74450685  1
  O  O206  1  0.39921176  0.27652600  -0.00116095  1
  O  O207  1  0.36578429  0.25123070  0.50155093  1
  O  O208  1  0.36387374  0.73260537  0.00887126  1
  O  O209  1  0.36693907  0.74330172  0.51147061  1
  O  O210  1  0.87157268  0.25371853  0.01202463  1
  O  O211  1  0.87994445  0.26342617  0.50821988  1
  O  O212  1  0.86814972  0.75307797  0.00657071  1
  O  O213  1  0.87218488  0.75650335  0.50617361  1
  O  O214  1  0.13117028  0.25636478  0.49305819  1
  O  O215  1  0.12943595  0.26202765  0.99102997  1
  O  O216  1  0.13334401  0.73909496  0.49594373  1
  O  O217  1  0.12929840  0.73335716  1.00160749  1
  O  O218  1  0.63368331  0.28908820  0.48656612  1
  O  O219  1  0.63072674  0.24331755  0.99424418  1
  O  O220  1  0.63548944  0.74319258  0.49561781  1
  O  O221  1  0.63983359  0.73708245  0.99921676  1
  O  O222  1  0.50857948  0.23623334  0.13398993  1
  O  O223  1  0.49008824  0.23578093  0.62262007  1
  O  O224  1  0.50776101  0.73752839  0.14065672  1
  O  O225  1  0.49138311  0.74371644  0.62106803  1
  O  O226  1  0.99095833  0.25299843  0.13827271  1
  O  O227  1  0.98685005  0.24516405  0.62684880  1
  O  O228  1  0.98985704  0.74607290  0.13433739  1
  O  O229  1  0.98897551  0.74440352  0.61705317  1
  O  O230  1  0.00382501  0.26049205  0.36560482  1
  O  O231  1  -0.01296191  0.25289993  0.85909026  1
  O  O232  1  0.01140822  0.74119719  0.37286617  1
  O  O233  1  0.01130264  0.74859891  0.87814518  1
  O  O234  1  0.50593423  0.25228819  0.35794200  1
  O  O235  1  0.51701953  0.24569575  0.88325933  1
  O  O236  1  0.51398179  0.75531740  0.37052162  1
  O  O237  1  0.49163306  0.76660998  0.86919296  1
  O  O238  1  0.24528563  0.14771933  0.50220996  1
  O  O239  1  0.26059423  0.15770868  1.00862818  1
  O  O240  1  0.24690788  0.63163986  0.49497273  1
  O  O241  1  0.24269090  0.62532428  0.99295179  1
  O  O242  1  0.76071608  0.12666947  0.47469960  1
  O  O243  1  0.74080057  0.13436297  1.00076816  1
  O  O244  1  0.74316854  0.63469589  0.50880547  1
  O  O245  1  0.74590057  0.62816378  0.99209687  1
  O  O246  1  0.26552133  0.37365262  0.00396391  1
  O  O247  1  0.24500983  0.36910451  0.51196596  1
  O  O248  1  0.25101970  0.84439856  0.00230082  1
  O  O249  1  0.24385658  0.85893480  0.51416250  1
  O  O250  1  0.75914210  0.36130925  -0.00440996  1
  O  O251  1  0.76546741  0.39236762  0.51573916  1
  O  O252  1  0.75727542  0.86631263  0.00460998  1
  O  O253  1  0.76100966  0.86780117  0.50862903  1
  O  O254  1  0.11997198  0.50266632  0.23610325  1
  O  O255  1  0.13159785  0.49314774  0.74383135  1
  O  O256  1  0.08391008  0.96822361  0.24699309  1
  O  O257  1  0.12189672  1.04239024  0.74666217  1
  O  O258  1  0.64615449  0.49104589  0.25395796  1
  O  O259  1  0.64524479  0.50828301  0.74888386  1
  O  O260  1  0.62507248  0.98785240  0.24296255  1
  O  O261  1  0.62568542  0.98643547  0.73282540  1
  O  O262  1  0.38135386  0.02338120  0.26216359  1
  O  O263  1  0.37112815  0.00229844  0.74694028  1
  O  O264  1  0.38601568  0.51097959  0.26858962  1
  O  O265  1  0.35837604  0.50456126  0.74225592  1
  O  O266  1  0.88749438  -0.00915418  0.26611171  1
  O  O267  1  0.88338392  0.01021054  0.75830492  1
  O  O268  1  0.87657089  0.51730492  0.24314254  1
  O  O269  1  0.86950851  0.50724966  0.75596232  1
  O  O270  1  0.11550122  0.37181133  0.37301183  1
  O  O271  1  0.12704572  0.38372143  0.86069383  1
  O  O272  1  0.12865501  0.85520469  0.39146884  1
  O  O273  1  0.11475830  0.85372284  0.88456050  1
  O  O274  1  0.62320331  0.38551340  0.36448073  1
  O  O275  1  0.63181190  0.35728780  0.87315577  1
  O  O276  1  0.62334426  0.86650972  0.36914117  1
  O  O277  1  0.64102198  0.87780461  0.85427063  1
  O  O278  1  0.39188245  0.11924810  0.13716110  1
  O  O279  1  0.38442500  0.12581345  0.62627418  1
  O  O280  1  0.38506584  0.61605991  0.14316357  1
  O  O281  1  0.38551186  0.63412129  0.62633236  1
  O  O282  1  0.87629979  0.13335586  0.12389113  1
  O  O283  1  0.87533344  0.13455023  0.62819498  1
  O  O284  1  0.87354641  0.63649309  0.12456178  1
  O  O285  1  0.87989398  0.63318477  0.63231871  1
  O  O286  1  0.24228582  0.27430042  0.10925555  1
  O  O287  1  0.26017564  0.25937135  0.61121206  1
  O  O288  1  0.25178030  0.73214290  0.11727711  1
  O  O289  1  0.26244277  0.75552144  0.62071694  1
  O  O290  1  0.76519784  0.24540477  0.12036828  1
  O  O291  1  0.75915799  0.26143655  0.63115247  1
  O  O292  1  0.75504730  0.75690099  0.11499410  1
  O  O293  1  0.76366289  0.75883545  0.61382521  1
  O  O294  1  0.24472504  0.26599335  0.38835116  1
  O  O295  1  0.25705029  0.26363537  0.89094982  1
  O  O296  1  0.24675666  0.74018899  0.38474656  1
  O  O297  1  0.23675994  0.74074746  0.88231672  1
  O  O298  1  0.74682005  0.24515511  0.36602232  1
  O  O299  1  0.74436730  0.24161550  0.88700656  1
  O  O300  1  0.74313836  0.75866699  0.38759612  1
  O  O301  1  0.76178609  0.73867542  0.88383128  1
  O  O302  1  -0.00508411  0.11405806  -0.00425951  1
  O  O303  1  -0.00205094  0.12377927  0.51219447  1
  O  O304  1  0.00720972  0.61296640  0.00350582  1
  O  O305  1  0.00514025  0.61677983  0.50653213  1
  O  O306  1  0.50987188  0.13454948  0.01537701  1
  O  O307  1  0.49222698  0.12475419  0.51153649  1
  O  O308  1  0.50669158  0.62193350  0.00988890  1
  O  O309  1  0.51098355  0.62344660  0.50649820  1
  O  O310  1  0.49652920  0.39269995  0.51236349  1
  O  O311  1  0.49569785  0.39596900  1.00290422  1
  O  O312  1  0.50734968  0.86617690  0.48500704  1
  O  O313  1  0.52833550  0.87495691  0.97634124  1
  O  O314  1  0.99328241  0.38223955  0.49380094  1
  O  O315  1  0.99144158  0.38446345  1.00201577  1
  O  O316  1  0.99371124  0.88798823  0.50680069  1
  O  O317  1  0.98673415  0.86622453  0.99238419  1
  O  O318  1  0.49017521  0.50422474  0.38904795  1
  O  O319  1  0.49015877  0.52152206  0.89364626  1
  O  O320  1  0.50837292  0.98350368  0.37408043  1
  O  O321  1  0.50475734  0.98049833  0.86449174  1
  O  O322  1  1.00771759  0.49329963  0.38663013  1
  O  O323  1  0.99082978  0.50529454  0.88394523  1
  O  O324  1  0.99237471  1.00435231  0.38755000  1
  O  O325  1  0.99081960  0.98484837  0.88675161  1
  O  O326  1  -0.00748308  -0.00899363  0.09989242  1
  O  O327  1  -0.00687861  0.01888464  0.61782631  1
  O  O328  1  0.01222830  0.49902219  0.11424215  1
  O  O329  1  0.00573531  0.50505626  0.61732190  1
  O  O330  1  0.51589178  0.01677338  0.13072225  1
  O  O331  1  0.51074650  0.00710549  0.61936470  1
  O  O332  1  0.50376619  0.51509436  0.11878162  1
  O  O333  1  0.49708543  0.51330464  0.61168731  1
  O  O334  1  0.25139399  0.36995781  0.23522836  1
  O  O335  1  0.24224172  0.38112564  0.74244059  1
  O  O336  1  0.23366060  0.85997864  0.25687071  1
  O  O337  1  0.25598540  0.86919927  0.73488328  1
  O  O338  1  0.73858852  0.39575346  0.25138414  1
  O  O339  1  0.75624532  0.38447073  0.74218844  1
  O  O340  1  0.73955442  0.86255804  0.23737727  1
  O  O341  1  0.74765260  0.87321230  0.73315786  1
  O  O342  1  0.26661114  0.14709012  0.24719787  1
  O  O343  1  0.27364199  0.12040509  0.73442560  1
  O  O344  1  0.26150538  0.63054904  0.26465235  1
  O  O345  1  0.24833545  0.61673085  0.75722721  1
  O  O346  1  0.74879738  0.11949366  0.26996168  1
  O  O347  1  0.76382470  0.12987134  0.74832745  1
  O  O348  1  0.76121604  0.62837573  0.25046556  1
  O  O349  1  0.76185175  0.62020645  0.75394901  1
  O  O350  1  0.37216819  0.13041851  0.36463215  1
  O  O351  1  0.37146152  0.11947216  0.86359433  1
  O  O352  1  0.37039706  0.62069044  0.37103106  1
  O  O353  1  0.36138228  0.63464054  0.87177953  1
  O  O354  1  0.87756107  0.11625119  0.36945210  1
  O  O355  1  0.87410370  0.11620567  0.86519095  1
  O  O356  1  0.87030496  0.62207700  0.36898944  1
  O  O357  1  0.86912896  0.61548624  0.86835032  1
  O  O358  1  0.13029658  0.38853422  0.12474907  1
  O  O359  1  0.13348964  0.37939950  0.63422074  1
  O  O360  1  0.13146014  0.87097204  0.12847931  1
  O  O361  1  0.13441817  0.86468848  0.63206088  1
  O  O362  1  0.69603363  0.44970081  0.10774384  1
  O  O363  1  0.63598228  0.37614666  0.63113477  1
  O  O364  1  0.62660662  0.88234494  0.13101788  1
  O  O365  1  0.63358283  0.88725024  0.62515243  1
  O  O366  1  0.11304114  0.25916062  0.25539289  1
  O  O367  1  0.10613536  0.25658203  0.74849341  1
  O  O368  1  0.11221660  0.73756312  0.26362616  1
  O  O369  1  0.12631673  0.74402072  0.76401955  1
  O  O370  1  0.61648340  0.25337478  0.24732558  1
  O  O371  1  0.62900170  0.24474383  0.76461952  1
  O  O372  1  0.62231294  0.75208206  0.25985255  1
  O  O373  1  0.63118008  0.76885578  0.73236046  1
  O  O374  1  0.39360904  0.23856399  0.25003825  1
  O  O375  1  0.37268870  0.24298921  0.73928871  1
  O  O376  1  0.39165669  0.73697834  0.26186072  1
  O  O377  1  0.37340295  0.74791419  0.73574498  1
  O  O378  1  0.88521616  0.25441824  0.23862988  1
  O  O379  1  0.88067091  0.24802517  0.74081804  1
  O  O380  1  0.87667091  0.73695829  0.24474582  1
  O  O381  1  0.87005718  0.74092754  0.73986303  1
  O  O382  1  0.38608156  0.50730151  0.49099781  1
  O  O383  1  0.38651666  0.49551036  1.00600237  1
  O  O384  1  0.31237040  1.00604437  0.46134859  1
  O  O385  1  0.27710728  1.00285880  0.99537127  1
  O  O386  1  0.88853140  0.49320461  0.50686097  1
  O  O387  1  0.88161389  0.49274344  0.99428083  1
  O  O388  1  0.88529218  0.99396644  0.49207815  1
  O  O389  1  0.88128128  0.98950778  0.99152963  1
  O  O390  1  0.10770404  -0.00058184  -0.01426205  1
  O  O391  1  0.11211678  0.00742034  0.49773087  1
  O  O392  1  0.11956454  0.50592746  0.00362272  1
  O  O393  1  0.11731108  0.50336548  0.50662843  1
  O  O394  1  0.63027228  0.01157065  0.00965764  1
  O  O395  1  0.62722301  -0.00396369  0.50943359  1
  O  O396  1  0.61455359  0.51169919  -0.00895338  1
  O  O397  1  0.61327013  0.50679955  0.50219913  1
  O  O398  1  0.36322403  0.38742948  0.11953270  1
  O  O399  1  0.36321983  0.36419708  0.63034621  1
  O  O400  1  0.41037343  0.88490938  0.10046901  1
  O  O401  1  0.38146085  0.86258845  0.62541520  1
  O  O402  1  0.87628965  0.37146221  0.11386143  1
  O  O403  1  0.87042057  0.36841753  0.61906604  1
  O  O404  1  0.86524462  0.86248642  0.11592737  1
  O  O405  1  0.87330279  0.87151706  0.61842823  1
  O  O406  1  0.12605171  0.14945738  0.38057609  1
  O  O407  1  0.15978519  0.13191613  0.87174027  1
  O  O408  1  0.13596892  0.62751365  0.38173394  1
  O  O409  1  0.12972151  0.63215748  0.88310798  1
  O  O410  1  0.63204032  0.13223304  0.37804385  1
  O  O411  1  0.62453005  0.12832948  0.88255294  1
  O  O412  1  0.62285498  0.63384325  0.38699424  1
  O  O413  1  0.63996007  0.62489666  0.88034239  1
