# generated using pymatgen
data_V79Zn79O256
_symmetry_space_group_name_H-M   'P 1'
_cell_length_a   16.91555174
_cell_length_b   16.89775196
_cell_length_c   16.91139711
_cell_angle_alpha   89.92803173
_cell_angle_beta   89.99128607
_cell_angle_gamma   90.11504453
_symmetry_Int_Tables_number   1
_chemical_formula_structural   V79Zn79O256
_chemical_formula_sum   'V79 Zn79 O256'
_cell_volume   4833.85215425
_cell_formula_units_Z   1
loop_
 _symmetry_equiv_pos_site_id
 _symmetry_equiv_pos_as_xyz
  1  'x, y, z'
loop_
 _atom_site_type_symbol
 _atom_site_label
 _atom_site_symmetry_multiplicity
 _atom_site_fract_x
 _atom_site_fract_y
 _atom_site_fract_z
 _atom_site_occupancy
  V  V0  1  0.25178910  0.11035372  0.37412187  1
  V  V1  1  0.12837608  0.50417661  0.12542698  1
  V  V2  1  0.62212627  -0.00101208  0.63013397  1
  V  V3  1  0.13192443  0.63062768  0.00129594  1
  V  V4  1  0.63093567  0.50062625  0.63613982  1
  V  V5  1  0.12113119  0.25186513  0.88646903  1
  V  V6  1  0.24875515  0.87703195  0.63405155  1
  V  V7  1  0.37461329  0.62503841  0.76367933  1
  V  V8  1  0.25176309  0.38034630  0.62660756  1
  V  V9  1  0.13217288  0.75456407  0.87587209  1
  V  V10  1  0.36511553  0.00220614  0.85871463  1
  V  V11  1  0.62716558  0.62591284  0.49813687  1
  V  V12  1  0.37528653  0.37553041  0.50121212  1
  V  V13  1  0.51286784  0.23950054  0.74987388  1
  V  V14  1  0.74483246  0.37645943  0.63572265  1
  V  V15  1  0.88333388  -0.01408818  0.38077110  1
  V  V16  1  0.50000378  0.73151635  0.24479810  1
  V  V17  1  0.50719406  0.88429603  0.87374082  1
  V  V18  1  0.87357472  0.50413462  0.36511602  1
  V  V19  1  0.38315512  0.88747679  0.00975694  1
  V  V20  1  0.62977803  0.74651333  0.87554275  1
  V  V21  1  0.24242248  0.62516191  0.36305587  1
  V  V22  1  0.87903741  0.37555397  0.00367264  1
  V  V23  1  0.50148614  0.50091561  0.49920889  1
  V  V24  1  0.73505914  0.87796957  0.12665048  1
  V  V25  1  0.74202654  0.12505758  0.87750208  1
  V  V26  1  0.12887164  0.38133096  0.75292680  1
  V  V27  1  -0.00080561  -0.01251092  0.50004666  1
  V  V28  1  0.25929043  0.75133704  -0.00081029  1
  V  V29  1  0.50015428  0.00282843  0.50096399  1
  V  V30  1  0.36012346  0.36612986  0.00375069  1
  V  V31  1  0.12672268  0.00437278  0.63350220  1
  V  V32  1  0.61667336  0.50105627  0.12534080  1
  V  V33  1  -0.05262169  0.43158960  0.82729839  1
  V  V34  1  0.87152198  0.37441494  0.49493475  1
  V  V35  1  0.23888925  -0.01973461  0.22478954  1
  V  V36  1  0.00720090  0.50723428  0.49723355  1
  V  V37  1  0.12058167  0.76475355  0.37885612  1
  V  V38  1  0.01662352  0.12353402  0.11378272  1
  V  V39  1  0.87955646  0.12004610  0.25197458  1
  V  V40  1  0.75738718  0.75059824  -0.00211457  1
  V  V41  1  -0.00763836  0.63019848  0.13868308  1
  V  V42  1  0.74684965  0.12776889  0.37412461  1
  V  V43  1  0.87388669  0.24448922  0.12191919  1
  V  V44  1  0.88315940  -0.00907904  0.88506163  1
  V  V45  1  0.74551042  -0.00650690  0.24934416  1
  V  V46  1  0.75367713  0.62352446  0.36594600  1
  V  V47  1  0.87836456  0.76154188  0.13025857  1
  V  V48  1  0.00110037  0.76784379  0.25861650  1
  V  V49  1  0.00254593  0.24963383  0.24890659  1
  V  V50  1  0.38156600  0.72317612  0.12674511  1
  V  V51  1  0.24637225  0.74186191  0.50179513  1
  V  V52  1  0.50357843  0.37126901  0.86737856  1
  V  V53  1  0.75262304  -0.00906877  0.75115955  1
  V  V54  1  0.49635146  0.87822105  0.36514362  1
  V  V55  1  -0.00561345  0.75152746  0.76042549  1
  V  V56  1  0.24821200  0.13849097  0.87013977  1
  V  V57  1  0.25538617  0.50846764  0.76412450  1
  V  V58  1  -0.00055092  0.37591072  0.37270425  1
  V  V59  1  0.00478352  0.62908337  0.62419078  1
  V  V60  1  0.62417526  0.75366314  0.36785995  1
  V  V61  1  0.74121473  0.25009196  0.49353269  1
  V  V62  1  0.50932375  0.75506905  0.74895034  1
  V  V63  1  0.74182771  0.37211713  0.12517517  1
  V  V64  1  0.87459122  0.75194645  0.62235061  1
  V  V65  1  0.50273364  0.36193007  0.36771884  1
  V  V66  1  0.37583514  0.50861235  0.36709722  1
  V  V67  1  0.01414249  -0.01289968  0.00020006  1
  V  V68  1  0.12964866  0.25191774  0.37657697  1
  V  V69  1  0.50212900  0.62691354  0.62468234  1
  V  V70  1  0.37436445  0.87907759  0.49734965  1
  V  V71  1  0.49307149  0.50366247  -0.00807873  1
  V  V72  1  -0.01778937  0.51757547  -0.00547040  1
  V  V73  1  0.13271965  0.38059565  0.24496996  1
  V  V74  1  0.37696705  0.75026014  0.62535374  1
  V  V75  1  0.73458936  0.24156185  -0.00004602  1
  V  V76  1  0.75573110  0.75901262  0.49689605  1
  V  V77  1  0.37638190  0.24015688  0.63717366  1
  V  V78  1  -0.00093059  0.24795121  0.74939714  1
  Zn  Zn79  1  0.62605337  0.35267837  0.25435796  1
  Zn  Zn80  1  0.75995428  0.53981809  0.79028256  1
  Zn  Zn81  1  0.61639686  0.12952578  0.49984577  1
  Zn  Zn82  1  0.12491762  0.87984793  0.76063718  1
  Zn  Zn83  1  0.24840870  0.24838115  0.50429363  1
  Zn  Zn84  1  0.74961847  0.49915756  0.24237573  1
  Zn  Zn85  1  0.87352194  0.24855669  0.62638749  1
  Zn  Zn86  1  0.25974941  0.50721471  0.23638145  1
  Zn  Zn87  1  -0.00570133  0.12684781  0.62175198  1
  Zn  Zn88  1  0.87669958  0.12247202  0.75090824  1
  Zn  Zn89  1  0.12090139  0.12793366  0.50014208  1
  Zn  Zn90  1  0.62649390  0.62423013  0.00278373  1
  Zn  Zn91  1  0.13192732  0.51269057  0.61954478  1
  Zn  Zn92  1  0.75216891  0.87525095  0.62275037  1
  Zn  Zn93  1  0.37038740  0.12384448  0.25040475  1
  Zn  Zn94  1  0.19334701  0.18849682  0.19321156  1
  Zn  Zn95  1  0.19002042  0.18803326  0.69651379  1
  Zn  Zn96  1  0.18058272  0.71321779  0.18028291  1
  Zn  Zn97  1  0.18758442  0.68919821  0.68981808  1
  Zn  Zn98  1  0.55019353  0.20534342  0.19377772  1
  Zn  Zn99  1  0.68935268  0.18169400  0.68397868  1
  Zn  Zn100  1  0.68788034  0.68686918  0.18379195  1
  Zn  Zn101  1  0.69229358  0.68667468  0.68930909  1
  Zn  Zn102  1  0.31401028  0.31552303  0.30951319  1
  Zn  Zn103  1  0.31714851  0.32235453  0.81788082  1
  Zn  Zn104  1  0.31524982  0.80906323  0.30796959  1
  Zn  Zn105  1  0.31938621  0.81146093  0.81620339  1
  Zn  Zn106  1  0.81100760  0.30958921  0.30804452  1
  Zn  Zn107  1  0.80696459  0.30892910  0.81607325  1
  Zn  Zn108  1  0.81506030  0.81081085  0.31125060  1
  Zn  Zn109  1  0.81859993  0.81234131  0.81298395  1
  Zn  Zn110  1  0.18982560  0.43822018  0.43393896  1
  Zn  Zn111  1  0.17767478  0.44338562  0.93981205  1
  Zn  Zn112  1  0.18504393  0.93614125  0.44617851  1
  Zn  Zn113  1  0.19625830  0.93387751  0.94426263  1
  Zn  Zn114  1  0.68608700  0.43777245  0.43708355  1
  Zn  Zn115  1  0.67848043  0.42706355  0.93880518  1
  Zn  Zn116  1  0.68405315  0.94123808  0.43404789  1
  Zn  Zn117  1  0.69556277  0.93172678  0.93614613  1
  Zn  Zn118  1  0.29379047  0.05420264  0.04870196  1
  Zn  Zn119  1  0.30775122  0.06335669  0.55951355  1
  Zn  Zn120  1  0.31230731  0.55692252  0.05311751  1
  Zn  Zn121  1  0.31664204  0.56358447  0.56414401  1
  Zn  Zn122  1  0.81604950  0.05957223  0.06299682  1
  Zn  Zn123  1  0.81336497  0.06471970  0.56475994  1
  Zn  Zn124  1  0.80401983  0.55689743  -0.03493734  1
  Zn  Zn125  1  0.81468148  0.56744842  0.56469643  1
  Zn  Zn126  1  0.43601335  0.43075839  0.18347566  1
  Zn  Zn127  1  0.43864801  0.44053247  0.69087043  1
  Zn  Zn128  1  0.43218162  0.95279996  0.19875255  1
  Zn  Zn129  1  0.43971991  0.93651998  0.68477734  1
  Zn  Zn130  1  0.93839574  0.43777216  0.18239864  1
  Zn  Zn131  1  0.93194240  0.44303126  0.66666296  1
  Zn  Zn132  1  0.94354610  0.94141796  0.18438802  1
  Zn  Zn133  1  0.93890449  0.93387808  0.69115873  1
  Zn  Zn134  1  0.06873170  0.05821294  0.31000024  1
  Zn  Zn135  1  0.06486104  0.06741292  0.81710531  1
  Zn  Zn136  1  0.06536588  0.56675443  0.31479565  1
  Zn  Zn137  1  0.07137667  0.57425654  0.80791926  1
  Zn  Zn138  1  0.56497339  0.05973557  0.31487469  1
  Zn  Zn139  1  0.56350551  0.06412386  0.80954745  1
  Zn  Zn140  1  0.56617109  0.55356913  0.31080431  1
  Zn  Zn141  1  0.56161676  0.56613973  0.81524939  1
  Zn  Zn142  1  0.42904703  0.18736365  0.44278040  1
  Zn  Zn143  1  0.41920320  0.19872465  0.92615425  1
  Zn  Zn144  1  0.43451964  0.68904542  0.43579378  1
  Zn  Zn145  1  0.44613104  0.69167617  0.93968128  1
  Zn  Zn146  1  0.93855913  0.18339103  0.43953599  1
  Zn  Zn147  1  0.93627685  0.18246733  0.93250886  1
  Zn  Zn148  1  0.93692885  0.68829203  0.43851219  1
  Zn  Zn149  1  0.94459283  0.69586396  0.94741632  1
  Zn  Zn150  1  0.05689756  0.32139881  0.06232079  1
  Zn  Zn151  1  0.06210695  0.31796913  0.56330716  1
  Zn  Zn152  1  0.07313630  0.81989353  0.06977172  1
  Zn  Zn153  1  0.06435155  0.81293714  0.56624136  1
  Zn  Zn154  1  0.55093438  0.31389580  0.05496244  1
  Zn  Zn155  1  0.56039284  0.31321555  0.56614797  1
  Zn  Zn156  1  0.56194693  0.81300113  0.06125808  1
  Zn  Zn157  1  0.56727840  0.81802060  0.56009107  1
  O  O158  1  0.11448070  0.13703994  0.12610321  1
  O  O159  1  0.12802321  0.11201723  0.62561144  1
  O  O160  1  0.11996103  0.62302475  0.12313479  1
  O  O161  1  0.11253974  0.62990132  0.62317551  1
  O  O162  1  0.62359528  0.05115676  0.05436609  1
  O  O163  1  0.63578991  0.10570153  0.61499800  1
  O  O164  1  0.63050954  0.60524104  0.12565314  1
  O  O165  1  0.62241986  0.62102319  0.61442594  1
  O  O166  1  0.38044446  0.38240769  0.38325242  1
  O  O167  1  0.38945502  0.37578848  0.88622230  1
  O  O168  1  0.38745690  0.86382965  0.38525966  1
  O  O169  1  0.38776567  0.88252197  0.87979147  1
  O  O170  1  0.87826366  0.38197477  0.37836312  1
  O  O171  1  0.88241679  0.37316686  0.88484029  1
  O  O172  1  0.87653203  0.88745745  0.37406184  1
  O  O173  1  0.87554829  0.89138580  0.87648555  1
  O  O174  1  0.24941583  0.01050282  0.38660013  1
  O  O175  1  0.26351713  -0.00785185  0.86917274  1
  O  O176  1  0.25565319  0.51384907  0.37426120  1
  O  O177  1  0.24200406  0.50524812  0.86235553  1
  O  O178  1  0.76516527  0.00204761  0.36897477  1
  O  O179  1  0.76046118  0.00623555  0.87500036  1
  O  O180  1  0.75602676  0.50661558  0.37302214  1
  O  O181  1  0.75355653  0.49223022  0.88742965  1
  O  O182  1  0.23324730  0.50885093  0.12221355  1
  O  O183  1  0.25024616  0.49258751  0.62870214  1
  O  O184  1  0.23628626  0.99502150  0.12336230  1
  O  O185  1  0.23526105  0.99150866  0.61720657  1
  O  O186  1  0.73529005  0.48039108  0.12060771  1
  O  O187  1  0.74594291  0.48719506  0.61730217  1
  O  O188  1  0.75900192  0.98859455  0.13702177  1
  O  O189  1  0.74765676  0.99625562  0.63362630  1
  O  O190  1  0.00613657  0.37021884  0.25336638  1
  O  O191  1  0.00452085  0.37762368  0.75360532  1
  O  O192  1  0.00506024  0.86640208  0.24947059  1
  O  O193  1  0.00830558  0.85557462  0.74346596  1
  O  O194  1  0.49479308  0.37203018  0.26446695  1
  O  O195  1  0.49641923  0.37121823  0.76152908  1
  O  O196  1  0.49242890  0.87105825  0.26358367  1
  O  O197  1  0.49621716  0.86455263  0.76123055  1
  O  O198  1  0.48993311  0.11005220  0.24048414  1
  O  O199  1  0.49984771  0.13984688  0.75409899  1
  O  O200  1  0.50089570  0.63317932  0.25435032  1
  O  O201  1  0.49506882  0.63445008  0.74458454  1
  O  O202  1  0.99554761  0.12662814  0.24021928  1
  O  O203  1  1.00269170  0.13758064  0.74636411  1
  O  O204  1  1.00444783  0.63287765  0.24166598  1
  O  O205  1  1.00511356  0.64026948  0.74015465  1
  O  O206  1  0.36383710  0.26429278  -0.00316494  1
  O  O207  1  0.37324883  0.26273050  0.51423140  1
  O  O208  1  0.38019371  0.75326070  0.01300168  1
  O  O209  1  0.36893644  0.75841090  0.50570347  1
  O  O210  1  0.88213750  0.25815102  0.00758244  1
  O  O211  1  0.86899142  0.26291239  0.49797247  1
  O  O212  1  0.86415465  0.75241255  0.00937588  1
  O  O213  1  0.86519661  0.74705645  0.50592145  1
  O  O214  1  0.12509206  0.25497381  0.48920290  1
  O  O215  1  0.11967803  0.26607267  0.98483257  1
  O  O216  1  0.13332388  0.75481911  0.49019213  1
  O  O217  1  0.13900619  0.74848220  0.99573181  1
  O  O218  1  0.63600168  0.24787208  0.50542716  1
  O  O219  1  0.63729438  0.24455425  1.00496104  1
  O  O220  1  0.63027163  0.74177626  0.48994472  1
  O  O221  1  0.63498332  0.75059009  0.99504868  1
  O  O222  1  0.49002421  0.23483758  0.10801665  1
  O  O223  1  0.48627380  0.25803577  0.63696003  1
  O  O224  1  0.49742423  0.74869662  0.13631491  1
  O  O225  1  0.50026894  0.74903261  0.63087033  1
  O  O226  1  0.99316520  0.24146334  0.12734679  1
  O  O227  1  0.99812335  0.25547906  0.63635539  1
  O  O228  1  0.99837375  0.74795585  0.14026144  1
  O  O229  1  0.99447546  0.74583249  0.62913201  1
  O  O230  1  0.00785725  0.25459383  0.36886748  1
  O  O231  1  0.01315834  0.24781330  0.86697595  1
  O  O232  1  0.00850308  0.74997127  0.37152250  1
  O  O233  1  0.00600830  0.74790623  0.86581749  1
  O  O234  1  0.49115931  0.26288566  0.38059155  1
  O  O235  1  0.49400668  0.25588951  0.86038181  1
  O  O236  1  0.50424165  0.75402598  0.36376746  1
  O  O237  1  0.51072529  0.75907545  0.86755155  1
  O  O238  1  0.24307518  0.13094015  0.48880554  1
  O  O239  1  0.24476810  0.11577014  0.97130493  1
  O  O240  1  0.25593094  0.63806530  0.49616921  1
  O  O241  1  0.24152942  0.63539295  1.00559309  1
  O  O242  1  0.75700743  0.13550529  0.48975910  1
  O  O243  1  0.75719827  0.13322274  0.99298477  1
  O  O244  1  0.74231121  0.63307513  0.49048808  1
  O  O245  1  0.74645184  0.64657936  1.00580296  1
  O  O246  1  0.26189693  0.38966960  -0.00990378  1
  O  O247  1  0.25890451  0.37713798  0.50799924  1
  O  O248  1  0.27360442  0.86379033  -0.00025010  1
  O  O249  1  0.25821655  0.86581022  0.50740040  1
  O  O250  1  0.75668989  0.35654699  0.00417860  1
  O  O251  1  0.75561193  0.36752952  0.49825096  1
  O  O252  1  0.74783403  0.86933749  0.01847847  1
  O  O253  1  0.74487388  0.86141560  0.49242067  1
  O  O254  1  0.12268463  0.49679637  0.24112148  1
  O  O255  1  0.13468982  0.49687819  0.74496378  1
  O  O256  1  0.14095845  0.99340041  0.25638630  1
  O  O257  1  0.11414336  0.99664557  0.73721743  1
  O  O258  1  0.62366195  0.48746214  0.23573900  1
  O  O259  1  0.63049926  0.51186078  0.73692640  1
  O  O260  1  0.64836946  0.99844559  0.25883420  1
  O  O261  1  0.63282535  1.00374048  0.73678900  1
  O  O262  1  0.34630251  0.01206789  0.24005280  1
  O  O263  1  0.37896196  -0.00461903  0.75977769  1
  O  O264  1  0.37384729  0.49425667  0.26221881  1
  O  O265  1  0.36845862  0.51306198  0.74588276  1
  O  O266  1  0.88049370  0.00342797  0.26246206  1
  O  O267  1  0.87079486  -0.00024928  0.76124711  1
  O  O268  1  0.87332500  0.49454588  0.26119829  1
  O  O269  1  0.88834946  0.48740843  0.76690282  1
  O  O270  1  0.11875735  0.37183012  0.36603600  1
  O  O271  1  0.13251025  0.36599779  0.86087176  1
  O  O272  1  0.12920253  0.86313861  0.37645576  1
  O  O273  1  0.13308842  0.86072271  0.87786071  1
  O  O274  1  0.60632225  0.38111887  0.37609133  1
  O  O275  1  0.60401065  0.36319191  0.88359623  1
  O  O276  1  0.61039658  0.86185540  0.38030487  1
  O  O277  1  0.61352614  0.86994632  0.88083187  1
  O  O278  1  0.38811107  0.11665139  0.10041746  1
  O  O279  1  0.36654058  0.14206522  0.62093410  1
  O  O280  1  0.38304450  0.62476834  0.12230084  1
  O  O281  1  0.38564207  0.63280227  0.62806824  1
  O  O282  1  0.88202464  0.12971232  0.13266795  1
  O  O283  1  0.87556931  0.13174062  0.63325093  1
  O  O284  1  0.89200797  0.64232540  0.12572212  1
  O  O285  1  0.89042353  0.63725555  0.61833636  1
  O  O286  1  0.29249528  0.24192306  0.16188353  1
  O  O287  1  0.25874297  0.26335708  0.62923532  1
  O  O288  1  0.27810516  0.74254515  0.11676252  1
  O  O289  1  0.25393088  0.75695644  0.61784137  1
  O  O290  1  0.76162946  0.25043540  0.10974121  1
  O  O291  1  0.75002349  0.26337326  0.61610104  1
  O  O292  1  0.75558396  0.76179076  0.12399458  1
  O  O293  1  0.75559833  0.75183319  0.61259965  1
  O  O294  1  0.23793935  0.25219471  0.37509721  1
  O  O295  1  0.24039166  0.24559076  0.86748667  1
  O  O296  1  0.24241405  0.74250533  0.37923566  1
  O  O297  1  0.24929476  0.75070589  0.88805852  1
  O  O298  1  0.75694315  0.24022958  0.38172935  1
  O  O299  1  0.75331852  0.23703672  0.88733301  1
  O  O300  1  0.74367073  0.74399919  0.37591187  1
  O  O301  1  0.74589269  0.76559157  0.89084150  1
  O  O302  1  0.00121540  0.12357393  0.01169455  1
  O  O303  1  0.00321140  0.11511403  0.50458092  1
  O  O304  1  0.01743935  0.63620376  0.02214456  1
  O  O305  1  -0.00248794  0.61450895  0.50404959  1
  O  O306  1  0.44914173  0.13760285  0.06148884  1
  O  O307  1  0.49714907  0.10786129  0.48768587  1
  O  O308  1  0.50676606  0.60926482  -0.00747309  1
  O  O309  1  0.50881444  0.62366666  0.50246178  1
  O  O310  1  0.49150447  0.38034896  0.49443245  1
  O  O311  1  0.48920865  0.38429784  0.98955351  1
  O  O312  1  0.49169521  0.87959887  0.49313755  1
  O  O313  1  0.49216842  0.86814210  0.98428815  1
  O  O314  1  0.98929389  0.38285541  0.49431118  1
  O  O315  1  0.98902914  0.39870285  1.00563462  1
  O  O316  1  1.00077858  0.88789797  0.50261939  1
  O  O317  1  1.00408507  0.88721520  1.01258958  1
  O  O318  1  0.49141827  0.49614163  0.38086144  1
  O  O319  1  0.50995574  0.48952963  0.88410919  1
  O  O320  1  0.50535558  0.98284476  0.38157494  1
  O  O321  1  0.49691307  0.98805800  0.86858953  1
  O  O322  1  0.99279314  0.49818164  0.37898254  1
  O  O323  1  1.01574177  0.49049489  0.87753089  1
  O  O324  1  0.99276807  1.00381060  0.38595833  1
  O  O325  1  0.99286032  1.00655891  0.88726817  1
  O  O326  1  -0.00029126  0.01352073  0.11295084  1
  O  O327  1  0.00794215  -0.00138380  0.61660488  1
  O  O328  1  -0.00000514  0.51804053  0.11824597  1
  O  O329  1  0.00344452  0.51048119  0.61478881  1
  O  O330  1  0.51037430  0.04070097  0.18908057  1
  O  O331  1  0.51347484  -0.00526429  0.61800805  1
  O  O332  1  0.51085461  0.49067443  0.11248443  1
  O  O333  1  0.51079932  0.50503747  0.61981310  1
  O  O334  1  0.23582201  0.38534018  0.25529748  1
  O  O335  1  0.24753521  0.38708725  0.74461883  1
  O  O336  1  0.25871482  0.88222336  0.24660448  1
  O  O337  1  0.25091235  0.86666867  0.73705475  1
  O  O338  1  0.74716677  0.37322068  0.23792936  1
  O  O339  1  0.75434023  0.37262397  0.73513585  1
  O  O340  1  0.75629280  0.88357737  0.24191217  1
  O  O341  1  0.75096137  0.88778221  0.75453490  1
  O  O342  1  0.24112595  0.11281189  0.26640521  1
  O  O343  1  0.24228699  0.11715630  0.76855686  1
  O  O344  1  0.24494994  0.63066707  0.26109191  1
  O  O345  1  0.26243219  0.62003198  0.74187339  1
  O  O346  1  0.76739212  0.10655117  0.25666202  1
  O  O347  1  0.75076224  0.11690311  0.76397233  1
  O  O348  1  0.74459437  0.62212181  0.26218274  1
  O  O349  1  0.77329525  0.62885721  0.73360156  1
  O  O350  1  0.35418894  0.13801665  0.37176747  1
  O  O351  1  0.36587459  0.11151948  0.87450418  1
  O  O352  1  0.36233543  0.61835884  0.37953438  1
  O  O353  1  0.38127827  0.63473403  0.86253477  1
  O  O354  1  0.87114887  0.11831122  0.36605433  1
  O  O355  1  0.86610392  0.11389349  0.87179936  1
  O  O356  1  0.86463268  0.61561962  0.38130571  1
  O  O357  1  0.91541432  0.58328627  0.93560096  1
  O  O358  1  0.11361826  0.39065853  0.13384913  1
  O  O359  1  0.13562655  0.37679895  0.63648024  1
  O  O360  1  0.15084326  0.81951675  0.14488583  1
  O  O361  1  0.13367142  0.88489096  0.62654748  1
  O  O362  1  0.62902777  0.37476271  0.12212533  1
  O  O363  1  0.63692652  0.38589463  0.61874877  1
  O  O364  1  0.63579190  0.87345987  0.12989287  1
  O  O365  1  0.63354317  0.89103101  0.61847277  1
  O  O366  1  0.12143486  0.26098493  0.25537650  1
  O  O367  1  0.11627690  0.26367999  0.75346289  1
  O  O368  1  0.11203372  0.74390286  0.27174471  1
  O  O369  1  0.12043730  0.74940234  0.76220511  1
  O  O370  1  0.62969893  0.24019091  0.25509143  1
  O  O371  1  0.61221902  0.24882378  0.73839957  1
  O  O372  1  0.61337976  0.74520031  0.25704768  1
  O  O373  1  0.61706069  0.74783244  0.75623720  1
  O  O374  1  0.34740189  0.23979713  0.22509468  1
  O  O375  1  0.37643224  0.25411049  0.73953403  1
  O  O376  1  0.38827037  0.74742291  0.23679476  1
  O  O377  1  0.38625071  0.74473256  0.74397387  1
  O  O378  1  0.88081411  0.23975512  0.24199658  1
  O  O379  1  0.88859726  0.25374574  0.75392909  1
  O  O380  1  0.89226590  0.75228334  0.24874340  1
  O  O381  1  0.88943260  0.75045118  0.74697212  1
  O  O382  1  0.38045761  0.49320504  0.49263391  1
  O  O383  1  0.39035695  0.50016835  0.99533690  1
  O  O384  1  0.38302751  0.98707449  0.50972904  1
  O  O385  1  0.37586250  0.98830601  0.98669596  1
  O  O386  1  0.88058544  0.49115211  0.49042535  1
  O  O387  1  0.87127447  0.47973741  1.02455457  1
  O  O388  1  0.88469256  1.00249050  0.49000682  1
  O  O389  1  0.88493661  1.00270639  0.99029874  1
  O  O390  1  0.11318028  -0.00231098  -0.01034086  1
  O  O391  1  0.11191906  0.00095983  0.50940795  1
  O  O392  1  0.10916061  0.51263580  0.00638314  1
  O  O393  1  0.11109598  0.48943677  0.50081649  1
  O  O394  1  0.60904143  -0.00150525  0.00373378  1
  O  O395  1  0.61595180  0.00031128  0.50578936  1
  O  O396  1  0.61710157  0.49782354  0.01074401  1
  O  O397  1  0.62256968  0.51163986  0.50512466  1
  O  O398  1  0.37324878  0.38490398  0.10430603  1
  O  O399  1  0.36844838  0.37500828  0.61869185  1
  O  O400  1  0.39868734  0.88619999  0.10936535  1
  O  O401  1  0.36893584  0.86971260  0.61794333  1
  O  O402  1  0.86832319  0.36081070  0.12352169  1
  O  O403  1  0.86047925  0.37515951  0.61195173  1
  O  O404  1  0.87204820  0.86518542  0.13087249  1
  O  O405  1  0.87254251  0.85786557  0.63050002  1
  O  O406  1  0.13268487  0.13639997  0.37496543  1
  O  O407  1  0.13130146  0.14394752  0.87320788  1
  O  O408  1  0.13947322  0.62812446  0.38060544  1
  O  O409  1  0.11914254  0.63841472  0.89120064  1
  O  O410  1  0.64314955  0.11356580  0.38073711  1
  O  O411  1  0.64275085  0.11311735  0.87887135  1
  O  O412  1  0.63108818  0.63071498  0.38076400  1
  O  O413  1  0.62651547  0.64207105  0.87713043  1
