# generated using pymatgen
data_V79Zn79O256
_symmetry_space_group_name_H-M   'P 1'
_cell_length_a   16.94384472
_cell_length_b   16.93426081
_cell_length_c   16.91645767
_cell_angle_alpha   89.94562858
_cell_angle_beta   89.97340951
_cell_angle_gamma   90.27337078
_symmetry_Int_Tables_number   1
_chemical_formula_structural   V79Zn79O256
_chemical_formula_sum   'V79 Zn79 O256'
_cell_volume   4853.80636505
_cell_formula_units_Z   1
loop_
 _symmetry_equiv_pos_site_id
 _symmetry_equiv_pos_as_xyz
  1  'x, y, z'
loop_
 _atom_site_type_symbol
 _atom_site_label
 _atom_site_symmetry_multiplicity
 _atom_site_fract_x
 _atom_site_fract_y
 _atom_site_fract_z
 _atom_site_occupancy
  V  V0  1  0.73561742  0.23972654  0.50102518  1
  V  V1  1  0.87053766  0.62372531  0.24696980  1
  V  V2  1  0.50539526  0.75150849  0.25297035  1
  V  V3  1  0.11931819  0.74805151  0.37613296  1
  V  V4  1  0.00838531  0.50527786  0.50434529  1
  V  V5  1  0.63140391  0.62797163  -0.01179680  1
  V  V6  1  0.63802221  0.75402483  0.87632279  1
  V  V7  1  0.62070132  0.25240483  0.87705610  1
  V  V8  1  0.74462692  0.25603134  0.00511761  1
  V  V9  1  0.12604578  0.37725205  0.24925232  1
  V  V10  1  0.50939299  0.11008565  0.61995399  1
  V  V11  1  0.00168440  0.37912280  0.37922529  1
  V  V12  1  0.87148357  -0.01041306  0.87693144  1
  V  V13  1  0.48597164  0.49594378  -0.00634762  1
  V  V14  1  0.64391037  0.49527432  0.12476972  1
  V  V15  1  0.75046296  -0.00311942  0.24700531  1
  V  V16  1  0.49341522  0.12325220  0.12737204  1
  V  V17  1  0.00782184  0.63589314  0.63999514  1
  V  V18  1  0.37676578  0.25047167  0.61705928  1
  V  V19  1  0.26066562  0.62438166  0.87735055  1
  V  V20  1  -0.00184414  -0.01277718  0.49435146  1
  V  V21  1  -0.01492228  -0.00595448  -0.00028983  1
  V  V22  1  0.75729571  0.86163471  0.61931646  1
  V  V23  1  -0.00093524  0.12952377  0.62742569  1
  V  V24  1  0.36991808  0.11757107  0.74803592  1
  V  V25  1  0.87534754  0.25212242  0.62529371  1
  V  V26  1  0.25011356  0.63040777  0.37623715  1
  V  V27  1  0.62979805  0.87061715  0.25255952  1
  V  V28  1  0.24554674  0.25466303  -0.00822393  1
  V  V29  1  0.86896175  0.25826310  0.12752093  1
  V  V30  1  0.25194097  0.25488816  0.49826498  1
  V  V31  1  0.61496409  0.88140893  0.74705899  1
  V  V32  1  0.39247486  0.74133102  0.62070463  1
  V  V33  1  0.25084266  0.76368641  0.00179341  1
  V  V34  1  0.12223707  0.12588462  0.49794022  1
  V  V35  1  0.50282129  0.62168923  0.12075723  1
  V  V36  1  0.25566017  0.49727187  0.75754126  1
  V  V37  1  0.74600045  0.12612184  0.87582273  1
  V  V38  1  0.86975653  0.50370009  0.37839255  1
  V  V39  1  0.25167486  0.50108711  0.25009836  1
  V  V40  1  0.12861227  0.50084290  0.62634029  1
  V  V41  1  -0.00059475  0.12893083  0.12538154  1
  V  V42  1  0.12220594  0.87636548  0.25545361  1
  V  V43  1  0.62728890  0.38479030  0.75254384  1
  V  V44  1  0.87028819  0.38036224  0.00353627  1
  V  V45  1  0.12137230  0.50577011  0.12463024  1
  V  V46  1  0.49923957  0.24993110  0.74863950  1
  V  V47  1  0.37356036  -0.01128353  0.88016477  1
  V  V48  1  0.25367750  0.37542688  0.62411747  1
  V  V49  1  0.00590583  0.36449371  0.87020336  1
  V  V50  1  0.86276646  0.49914849  0.86336912  1
  V  V51  1  0.24448005  0.74975601  0.50206366  1
  V  V52  1  0.25749448  0.89049082  0.62008218  1
  V  V53  1  0.12828863  0.62530113  -0.00556752  1
  V  V54  1  0.63242611  0.74332426  0.38483864  1
  V  V55  1  0.86880652  0.63718771  0.75079063  1
  V  V56  1  0.74929371  0.62058267  0.39664569  1
  V  V57  1  -0.00352873  0.74482316  0.23018075  1
  V  V58  1  0.87110189  0.12896478  0.25503605  1
  V  V59  1  0.60854702  0.50931908  0.61332414  1
  V  V60  1  0.37480259  0.76155786  0.11947612  1
  V  V61  1  0.12245199  -0.00884199  0.12193784  1
  V  V62  1  0.74827877  0.38364313  0.62898344  1
  V  V63  1  0.12560618  0.25238857  0.37430278  1
  V  V64  1  0.37201871  0.24481142  0.12878338  1
  V  V65  1  0.51110630  0.25945987  0.25581763  1
  V  V66  1  0.49182038  0.74750078  0.76216208  1
  V  V67  1  0.87642807  0.13135153  0.75236463  1
  V  V68  1  0.00040708  0.50504974  -0.00046628  1
  V  V69  1  0.25690787  0.37520140  0.12096081  1
  V  V70  1  0.88056805  -0.01119333  0.37319905  1
  V  V71  1  0.38849160  0.48934475  0.38466040  1
  V  V72  1  0.37682168  0.62561487  0.24893153  1
  V  V73  1  0.39805627  0.87045623  0.48788860  1
  V  V74  1  0.48433645  0.37668882  0.87727220  1
  V  V75  1  0.74436802  0.00170404  0.74280282  1
  V  V76  1  0.75610119  0.86649243  0.11402615  1
  V  V77  1  0.61508468  0.12162328  0.00046667  1
  V  V78  1  0.23979241  0.12170305  0.86919696  1
  Zn  Zn79  1  0.25770447  1.00349859  0.24100213  1
  Zn  Zn80  1  0.87278218  0.75550763  0.09592208  1
  Zn  Zn81  1  0.73991208  0.12477630  0.38221704  1
  Zn  Zn82  1  0.62160359  -0.00511718  0.12112395  1
  Zn  Zn83  1  0.86806302  0.37725516  0.50114305  1
  Zn  Zn84  1  -0.00253591  0.25471755  0.25052081  1
  Zn  Zn85  1  0.25551215  0.12115364  0.36197959  1
  Zn  Zn86  1  0.48743907  -0.02756247  0.00043941  1
  Zn  Zn87  1  0.38169539  0.61378685  0.75040879  1
  Zn  Zn88  1  0.11390521  0.13269446  -0.01168263  1
  Zn  Zn89  1  0.13471828  -0.00208049  0.62405814  1
  Zn  Zn90  1  0.08036635  0.79124575  0.84422687  1
  Zn  Zn91  1  0.51174303  0.00059461  0.47829886  1
  Zn  Zn92  1  0.12511944  0.35686397  0.75490635  1
  Zn  Zn93  1  0.37156702  0.00256441  0.36447807  1
  Zn  Zn94  1  0.18742625  0.18618135  0.18742902  1
  Zn  Zn95  1  0.18405987  0.18673264  0.68545812  1
  Zn  Zn96  1  0.18832415  0.69232410  0.18590148  1
  Zn  Zn97  1  0.19442953  0.68530355  0.69127880  1
  Zn  Zn98  1  0.68312193  0.18543566  0.18718273  1
  Zn  Zn99  1  0.68712428  0.19029157  0.68631766  1
  Zn  Zn100  1  0.69226821  0.68154436  0.18740867  1
  Zn  Zn101  1  0.68359269  0.68793985  0.68960836  1
  Zn  Zn102  1  0.31737956  0.31125186  0.30952549  1
  Zn  Zn103  1  0.30911730  0.30669598  0.80625562  1
  Zn  Zn104  1  0.32150054  0.83687172  0.29527452  1
  Zn  Zn105  1  0.24009796  0.83459805  0.81873676  1
  Zn  Zn106  1  0.81097417  0.30966539  0.32466835  1
  Zn  Zn107  1  0.81136031  0.31473477  0.81550122  1
  Zn  Zn108  1  0.84728458  0.78185721  0.36551267  1
  Zn  Zn109  1  0.81129779  0.81323964  0.80145786  1
  Zn  Zn110  1  0.19340885  0.44250092  0.43800558  1
  Zn  Zn111  1  0.18820463  0.43785623  0.93660579  1
  Zn  Zn112  1  0.19091446  0.93376652  0.43692630  1
  Zn  Zn113  1  0.18214063  0.94611092  0.94583242  1
  Zn  Zn114  1  0.66207395  0.41813090  0.44996236  1
  Zn  Zn115  1  0.67970423  0.44073163  0.94150851  1
  Zn  Zn116  1  0.69432905  0.93474249  0.43154431  1
  Zn  Zn117  1  0.68278284  0.93729080  0.93353068  1
  Zn  Zn118  1  0.30688378  0.06522853  0.05671021  1
  Zn  Zn119  1  0.32799235  0.06995144  0.53496613  1
  Zn  Zn120  1  0.31153083  0.56515643  0.06484111  1
  Zn  Zn121  1  0.31956762  0.56303973  0.56168234  1
  Zn  Zn122  1  0.80730565  0.06726284  0.06467493  1
  Zn  Zn123  1  0.81516179  0.05744073  0.56114422  1
  Zn  Zn124  1  0.82172887  0.58505420  0.04822422  1
  Zn  Zn125  1  0.82211926  0.56570878  0.56959967  1
  Zn  Zn126  1  0.44157458  0.43846695  0.18890077  1
  Zn  Zn127  1  0.43808977  0.43437745  0.68586226  1
  Zn  Zn128  1  0.44316721  0.93969605  0.18871339  1
  Zn  Zn129  1  0.42903982  0.93231600  0.68670007  1
  Zn  Zn130  1  0.93727835  0.44275366  0.19010343  1
  Zn  Zn131  1  0.93894354  0.43643266  0.68891652  1
  Zn  Zn132  1  0.93747056  0.93115939  0.18827343  1
  Zn  Zn133  1  0.93047106  0.94645281  0.68134848  1
  Zn  Zn134  1  0.06190872  0.06648175  0.31006418  1
  Zn  Zn135  1  0.05747261  0.05088353  0.81045483  1
  Zn  Zn136  1  0.06216214  0.56650623  0.31210263  1
  Zn  Zn137  1  0.06641545  0.55381241  0.81554248  1
  Zn  Zn138  1  0.55750160  0.06026673  0.30728409  1
  Zn  Zn139  1  0.55339761  0.06138140  0.81537026  1
  Zn  Zn140  1  0.56985694  0.55899923  0.31056444  1
  Zn  Zn141  1  0.55968285  0.56451975  0.81123753  1
  Zn  Zn142  1  0.44165298  0.17826588  0.43150956  1
  Zn  Zn143  1  0.42733216  0.18778226  0.93862535  1
  Zn  Zn144  1  0.44489193  0.67800844  0.43656572  1
  Zn  Zn145  1  0.43848277  0.69475170  0.93920232  1
  Zn  Zn146  1  0.93466784  0.19066434  0.44121754  1
  Zn  Zn147  1  0.93117781  0.18619933  0.93990756  1
  Zn  Zn148  1  0.94786032  0.69581453  0.46970994  1
  Zn  Zn149  1  0.93142542  0.68681318  0.92783610  1
  Zn  Zn150  1  0.06194991  0.31631392  0.05958117  1
  Zn  Zn151  1  0.06481509  0.31386064  0.56784086  1
  Zn  Zn152  1  0.04448176  0.79490070  0.02723338  1
  Zn  Zn153  1  0.08167083  0.81922014  0.67040978  1
  Zn  Zn154  1  0.55925290  0.31759121  0.06957708  1
  Zn  Zn155  1  0.55945445  0.31703274  0.55869114  1
  Zn  Zn156  1  0.56892292  0.81144051  0.06446478  1
  Zn  Zn157  1  0.57198958  0.81055056  0.56639516  1
  O  O158  1  0.10671632  0.11830076  0.13121318  1
  O  O159  1  0.11480803  0.11506959  0.61875577  1
  O  O160  1  0.13516540  0.61076095  0.11754948  1
  O  O161  1  0.11855721  0.61177743  0.63425931  1
  O  O162  1  0.61516392  0.12238430  0.11413481  1
  O  O163  1  0.60723882  0.12573548  0.63730137  1
  O  O164  1  0.61740978  0.62809502  0.10779239  1
  O  O165  1  0.62720961  0.60342377  0.64476457  1
  O  O166  1  0.37182112  0.39115465  0.36834649  1
  O  O167  1  0.38574311  0.36823606  0.86873077  1
  O  O168  1  0.38617335  0.84985264  0.38983459  1
  O  O169  1  0.34993884  0.89461627  0.86293126  1
  O  O170  1  0.88519717  0.38453708  0.37627480  1
  O  O171  1  0.88112784  0.38318417  0.88312390  1
  O  O172  1  0.87907519  0.89201265  0.35965870  1
  O  O173  1  0.86695154  0.89089047  0.86788520  1
  O  O174  1  0.24961275  -0.00215558  0.36512659  1
  O  O175  1  0.25662519  0.01914508  0.88169661  1
  O  O176  1  0.25866805  0.51107155  0.36907805  1
  O  O177  1  0.24769934  0.50628688  0.86675381  1
  O  O178  1  0.76729950  0.00282719  0.36442909  1
  O  O179  1  0.75326124  0.00742257  0.86769768  1
  O  O180  1  0.76207284  0.50853041  0.38640908  1
  O  O181  1  0.76463332  0.49249191  0.87988246  1
  O  O182  1  0.24409414  0.49257056  0.12892725  1
  O  O183  1  0.24689373  0.49403555  0.62801668  1
  O  O184  1  0.22513846  1.00750316  0.12038292  1
  O  O185  1  0.26038880  0.99358943  0.60351035  1
  O  O186  1  0.74111169  0.51493144  0.10715031  1
  O  O187  1  0.75428761  0.48500925  0.62149948  1
  O  O188  1  0.74904558  0.99469911  0.13336516  1
  O  O189  1  0.75219809  1.00144580  0.64074069  1
  O  O190  1  0.00613548  0.37826342  0.26303867  1
  O  O191  1  -0.00097768  0.37773575  0.76727812  1
  O  O192  1  0.00670204  0.85531217  0.24592475  1
  O  O193  1  0.02801996  0.90734249  0.73139580  1
  O  O194  1  0.50089599  0.35962912  0.24114648  1
  O  O195  1  0.50519950  0.36652298  0.75741930  1
  O  O196  1  0.51668084  0.86052547  0.24068922  1
  O  O197  1  0.51031991  0.86835340  0.74477029  1
  O  O198  1  0.50413445  0.13259646  0.23144297  1
  O  O199  1  0.49072457  0.13430221  0.74323561  1
  O  O200  1  0.49498103  0.63142437  0.23903228  1
  O  O201  1  0.49543679  0.64180002  0.75603933  1
  O  O202  1  0.98805703  0.13125864  0.24287007  1
  O  O203  1  0.98542141  0.11413891  0.73966904  1
  O  O204  1  0.99634672  0.63908707  0.25304689  1
  O  O205  1  1.00130624  0.61881597  0.74383721  1
  O  O206  1  0.35599445  0.24654190  0.01112518  1
  O  O207  1  0.36497925  0.24578889  0.50929984  1
  O  O208  1  0.36487787  0.74386337  0.01218068  1
  O  O209  1  0.37914751  0.75288000  0.50974348  1
  O  O210  1  0.86432166  0.25891639  0.00842731  1
  O  O211  1  0.86886678  0.25487290  0.51237464  1
  O  O212  1  0.85740719  0.69013220  0.00958290  1
  O  O213  1  0.86846302  0.76664032  0.47420336  1
  O  O214  1  0.12990648  0.24793491  0.49265740  1
  O  O215  1  0.13858057  0.24674378  1.00800417  1
  O  O216  1  0.14470906  0.75225645  0.49207340  1
  O  O217  1  0.14435621  0.73545735  1.02069806  1
  O  O218  1  0.63815364  0.23861140  0.51578624  1
  O  O219  1  0.62917578  0.24678897  0.99825755  1
  O  O220  1  0.62048496  0.74981526  0.48254015  1
  O  O221  1  0.62221595  0.74029876  0.98578134  1
  O  O222  1  0.49030780  0.24452270  0.12798003  1
  O  O223  1  0.49290496  0.25224827  0.63168808  1
  O  O224  1  0.49295586  0.73864071  0.12911861  1
  O  O225  1  0.49547205  0.75042130  0.63257254  1
  O  O226  1  0.98745673  0.24727344  0.12548367  1
  O  O227  1  0.98848654  0.24063372  0.61880077  1
  O  O228  1  0.99159752  0.74892332  0.12792209  1
  O  O229  1  1.01351472  0.73429512  0.62865402  1
  O  O230  1  0.00788307  0.26241498  0.37714625  1
  O  O231  1  -0.00877608  0.26591086  0.88582347  1
  O  O232  1  0.01973284  0.73605993  0.38376508  1
  O  O233  1  0.00945265  0.76320453  0.92135537  1
  O  O234  1  0.48786895  0.24118980  0.35298709  1
  O  O235  1  0.49986048  0.25528155  0.86747851  1
  O  O236  1  0.51825995  0.73364394  0.35980569  1
  O  O237  1  0.49913277  0.75719545  0.86410985  1
  O  O238  1  0.22970661  0.14071869  0.50988270  1
  O  O239  1  0.24183295  0.13632114  0.98636813  1
  O  O240  1  0.26352994  0.64023153  0.48843784  1
  O  O241  1  0.24492198  0.62305401  0.99321671  1
  O  O242  1  0.75902215  0.13686654  0.50401553  1
  O  O243  1  0.73826847  0.13571125  0.99663300  1
  O  O244  1  0.75646273  0.62520384  0.49539060  1
  O  O245  1  0.72707763  0.61695925  0.98519111  1
  O  O246  1  0.24449690  0.36398931  0.00631138  1
  O  O247  1  0.24471386  0.36435285  0.50953549  1
  O  O248  1  0.24478472  0.86152214  0.00402263  1
  O  O249  1  0.26720733  0.86041286  0.49829497  1
  O  O250  1  0.75840957  0.36615483  -0.00642991  1
  O  O251  1  0.74814723  0.36070951  0.51109594  1
  O  O252  1  0.74134743  0.88232195  0.01568749  1
  O  O253  1  0.73905316  0.88897440  0.52266507  1
  O  O254  1  0.13010398  0.49769128  0.24330594  1
  O  O255  1  0.13798748  0.49232510  0.74209534  1
  O  O256  1  0.11124307  0.98646095  0.24061824  1
  O  O257  1  0.08837488  0.97182651  0.73204240  1
  O  O258  1  0.62706557  0.51710084  0.22290169  1
  O  O259  1  0.61932433  0.48669782  0.75291353  1
  O  O260  1  0.63436255  0.98957885  0.24960928  1
  O  O261  1  0.62847458  0.98791570  0.76197228  1
  O  O262  1  0.35729293  -0.05174765  0.25885790  1
  O  O263  1  0.37734828  0.01285978  0.75685901  1
  O  O264  1  0.37135648  0.51096372  0.25158247  1
  O  O265  1  0.36100624  0.49786534  0.74266716  1
  O  O266  1  0.87288036  0.00993891  0.25482011  1
  O  O267  1  0.86376992  0.01188555  0.75837370  1
  O  O268  1  0.88871605  0.51425158  0.26647159  1
  O  O269  1  0.87243090  0.49702414  0.76101804  1
  O  O270  1  0.12098570  0.37194562  0.37161222  1
  O  O271  1  0.10991042  0.37706086  0.87752401  1
  O  O272  1  0.12381783  0.86578980  0.36197924  1
  O  O273  1  0.14643430  0.88195644  0.86479007  1
  O  O274  1  0.66223114  0.38892948  0.32309515  1
  O  O275  1  0.61476140  0.36987303  0.87085317  1
  O  O276  1  0.64043053  0.85496900  0.36250489  1
  O  O277  1  0.62859995  0.86251862  0.86287216  1
  O  O278  1  0.38254723  0.13087265  0.11647308  1
  O  O279  1  0.38240949  0.13326408  0.62972015  1
  O  O280  1  0.38409782  0.62828273  0.13337938  1
  O  O281  1  0.36941641  0.64005915  0.63137813  1
  O  O282  1  0.87842427  0.13651694  0.13405701  1
  O  O283  1  0.87886089  0.13339315  0.63270077  1
  O  O284  1  0.87693005  0.61905671  0.14801744  1
  O  O285  1  0.89493677  0.61787942  0.64198435  1
  O  O286  1  0.25291732  0.25669624  0.11827673  1
  O  O287  1  0.25693644  0.25628875  0.61819655  1
  O  O288  1  0.26718761  0.74443324  0.11928344  1
  O  O289  1  0.25880946  0.75232385  0.61024621  1
  O  O290  1  0.75745061  0.24547376  0.11648823  1
  O  O291  1  0.75743679  0.25603437  0.61998468  1
  O  O292  1  0.75180665  0.76280583  0.12800505  1
  O  O293  1  0.74250558  0.76215789  0.62671350  1
  O  O294  1  0.24107282  0.25358992  0.38221906  1
  O  O295  1  0.25124930  0.24374314  0.88531385  1
  O  O296  1  0.24570422  0.74567765  0.37962009  1
  O  O297  1  0.25193398  0.74148316  0.89582366  1
  O  O298  1  0.74766624  0.24576053  0.39399764  1
  O  O299  1  0.74256497  0.24633757  0.88566468  1
  O  O300  1  0.74056408  0.73276977  0.37396180  1
  O  O301  1  0.73576786  0.74866154  0.86622356  1
  O  O302  1  -0.00369434  0.12174242  0.01060407  1
  O  O303  1  0.01019342  0.12967429  0.50605594  1
  O  O304  1  0.01343933  0.60983529  -0.00519562  1
  O  O305  1  -0.00017249  0.61238593  0.52215697  1
  O  O306  1  0.50694660  0.13401425  0.00626661  1
  O  O307  1  0.49686320  0.12031384  0.51728307  1
  O  O308  1  0.50136908  0.61703445  0.00386701  1
  O  O309  1  0.50075956  0.63558578  0.52050156  1
  O  O310  1  0.55913354  0.37152439  0.46315960  1
  O  O311  1  0.50135340  0.38813964  0.99290506  1
  O  O312  1  0.50206510  0.87741662  0.50419059  1
  O  O313  1  0.50195388  0.86380134  0.99711308  1
  O  O314  1  1.00235115  0.38396384  0.49163846  1
  O  O315  1  0.98900308  0.38292969  0.99385913  1
  O  O316  1  1.00146705  0.89266720  0.50287947  1
  O  O317  1  0.99157196  0.89687286  1.01243881  1
  O  O318  1  0.48654013  0.50833693  0.36682564  1
  O  O319  1  0.49969861  0.49400419  0.88595584  1
  O  O320  1  0.48361154  1.00407292  0.36726846  1
  O  O321  1  0.47958767  1.00120552  0.87789085  1
  O  O322  1  0.99986874  0.49756529  0.38572430  1
  O  O323  1  0.99270121  0.48883975  0.88456311  1
  O  O324  1  0.99011789  1.00726826  0.38108983  1
  O  O325  1  0.98744466  1.00757639  0.89224760  1
  O  O326  1  -0.00274119  0.01054495  0.11844405  1
  O  O327  1  -0.01502489  0.01709272  0.60259852  1
  O  O328  1  0.01179477  0.49115978  0.11462181  1
  O  O329  1  0.01225031  0.49590239  0.62114095  1
  O  O330  1  0.50019520  0.00870812  0.11820850  1
  O  O331  1  0.49585105  0.00983831  0.62879652  1
  O  O332  1  0.50447346  0.50767550  0.11318135  1
  O  O333  1  0.50834428  0.49416188  0.62289786  1
  O  O334  1  0.24429654  0.38046343  0.24123349  1
  O  O335  1  0.24752822  0.37914625  0.74181231  1
  O  O336  1  0.22129992  0.86382781  0.23925612  1
  O  O337  1  0.26835800  0.88157886  0.71838796  1
  O  O338  1  0.72282699  0.38068611  0.27844652  1
  O  O339  1  0.73624394  0.36371621  0.74270267  1
  O  O340  1  0.74490338  0.88648098  0.23910990  1
  O  O341  1  0.73845396  0.88346048  0.74297499  1
  O  O342  1  0.24725662  0.11779285  0.24951646  1
  O  O343  1  0.25660051  0.13300858  0.75992148  1
  O  O344  1  0.26005486  0.62392214  0.25386405  1
  O  O345  1  0.25396189  0.61529295  0.76057197  1
  O  O346  1  0.75521879  0.11615868  0.25071208  1
  O  O347  1  0.75324872  0.12081665  0.75587009  1
  O  O348  1  0.76747453  0.62905342  0.25935793  1
  O  O349  1  0.77033027  0.63025434  0.74227099  1
  O  O350  1  0.35350273  0.10834963  0.42080634  1
  O  O351  1  0.36304860  0.12351216  0.86495835  1
  O  O352  1  0.36998645  0.62428398  0.36222916  1
  O  O353  1  0.36427426  0.62978376  0.87384401  1
  O  O354  1  0.87471863  0.12663268  0.36238575  1
  O  O355  1  0.86595344  0.12204115  0.86823744  1
  O  O356  1  0.86508181  0.61846682  0.37524161  1
  O  O357  1  0.88363958  0.60659320  0.85955303  1
  O  O358  1  0.13360078  0.38422265  0.12888176  1
  O  O359  1  0.13732714  0.38322728  0.62684363  1
  O  O360  1  0.11184038  0.89049342  0.12742264  1
  O  O361  1  0.15219709  0.88161482  0.60499395  1
  O  O362  1  0.63095763  0.39484653  0.11262298  1
  O  O363  1  0.63004575  0.38709532  0.63425358  1
  O  O364  1  0.63746121  0.87421390  0.13534002  1
  O  O365  1  0.63262647  0.87249173  0.64353728  1
  O  O366  1  0.12258839  0.25787151  0.25969820  1
  O  O367  1  0.11094936  0.24895352  0.73546194  1
  O  O368  1  0.11170733  0.75353714  0.25113290  1
  O  O369  1  0.14192561  0.76445840  0.75198050  1
  O  O370  1  0.61196895  0.24574292  0.24891646  1
  O  O371  1  0.61332073  0.25693496  0.75543638  1
  O  O372  1  0.62196042  0.75119435  0.25139805  1
  O  O373  1  0.61289379  0.75706871  0.75993272  1
  O  O374  1  0.37771375  0.24932129  0.23362096  1
  O  O375  1  0.38199380  0.24152893  0.73986513  1
  O  O376  1  0.38398147  0.74517655  0.23919121  1
  O  O377  1  0.38895938  0.75657706  0.73533976  1
  O  O378  1  0.87005212  0.24866509  0.24381543  1
  O  O379  1  0.86636251  0.23915994  0.74276445  1
  O  O380  1  0.89120512  0.73957741  0.26195466  1
  O  O381  1  0.88567228  0.73588007  0.76490208  1
  O  O382  1  0.37389583  0.50279549  0.48412868  1
  O  O383  1  0.38757934  0.50302145  1.00462132  1
  O  O384  1  0.38357191  0.97301511  0.49610436  1
  O  O385  1  0.37037501  1.00172390  0.98624394  1
  O  O386  1  0.88894365  0.49746260  0.49481252  1
  O  O387  1  0.88202327  0.49572371  0.99312083  1
  O  O388  1  0.88311578  1.00561665  0.48134622  1
  O  O389  1  0.87820413  1.00974974  0.99362432  1
  O  O390  1  0.10723241  0.00864717  0.01107747  1
  O  O391  1  0.11155205  0.00904209  0.49349604  1
  O  O392  1  0.12068375  0.50450322  0.00668496  1
  O  O393  1  0.12032414  0.49722520  0.51109878  1
  O  O394  1  0.61961431  0.01372548  -0.00402864  1
  O  O395  1  0.62704756  0.02663784  0.45814140  1
  O  O396  1  0.61165736  0.51345818  0.00289151  1
  O  O397  1  0.63209144  0.50861899  0.51550692  1
  O  O398  1  0.36117586  0.36975812  0.12772984  1
  O  O399  1  0.36399410  0.36327089  0.62961605  1
  O  O400  1  0.38262668  0.85889859  0.12253191  1
  O  O401  1  0.37393248  0.86109917  0.60987071  1
  O  O402  1  0.87879784  0.36964935  0.11766393  1
  O  O403  1  0.86816624  0.36607814  0.62864027  1
  O  O404  1  0.86211780  0.87158525  0.12513270  1
  O  O405  1  0.85705265  0.87424755  0.63771457  1
  O  O406  1  0.12175846  0.13810480  0.38131269  1
  O  O407  1  0.13512754  0.11584911  0.86769846  1
  O  O408  1  0.14255669  0.63201590  0.36644581  1
  O  O409  1  0.13626088  0.62030123  0.88735412  1
  O  O410  1  0.62815194  0.09023986  0.39888118  1
  O  O411  1  0.62466208  0.13266372  0.88089333  1
  O  O412  1  0.64151293  0.62777179  0.37215316  1
  O  O413  1  0.61352511  0.63942641  0.88048927  1
