# generated using pymatgen
data_V79Zn79O256
_symmetry_space_group_name_H-M   'P 1'
_cell_length_a   16.90492190
_cell_length_b   16.92455270
_cell_length_c   16.90523453
_cell_angle_alpha   89.95994941
_cell_angle_beta   90.20903439
_cell_angle_gamma   90.03593763
_symmetry_Int_Tables_number   1
_chemical_formula_structural   V79Zn79O256
_chemical_formula_sum   'V79 Zn79 O256'
_cell_volume   4836.69260962
_cell_formula_units_Z   1
loop_
 _symmetry_equiv_pos_site_id
 _symmetry_equiv_pos_as_xyz
  1  'x, y, z'
loop_
 _atom_site_type_symbol
 _atom_site_label
 _atom_site_symmetry_multiplicity
 _atom_site_fract_x
 _atom_site_fract_y
 _atom_site_fract_z
 _atom_site_occupancy
  V  V0  1  0.62393772  -0.00600730  0.13073100  1
  V  V1  1  0.85222553  0.50349079  0.38108224  1
  V  V2  1  0.25080731  0.62705175  0.37134467  1
  V  V3  1  0.86471670  0.61610884  0.23835629  1
  V  V4  1  0.88192372  0.01042228  0.85642321  1
  V  V5  1  0.65797965  -0.04370790  0.69639933  1
  V  V6  1  0.11042060  0.50229129  0.12124637  1
  V  V7  1  0.12145140  0.75655088  0.36696521  1
  V  V8  1  -0.00816339  0.74359180  0.23400962  1
  V  V9  1  0.74999552  -0.00414981  0.25090663  1
  V  V10  1  0.58620100  0.11895257  0.49761772  1
  V  V11  1  0.12239391  0.88011755  0.74571613  1
  V  V12  1  0.63036357  0.24857917  0.88021525  1
  V  V13  1  0.64101433  0.63331516  0.49742515  1
  V  V14  1  0.49727044  0.23734954  0.75086080  1
  V  V15  1  0.11010838  0.62053527  -0.00111004  1
  V  V16  1  0.50094429  0.37762489  0.87928424  1
  V  V17  1  0.37686899  0.37239934  0.51093093  1
  V  V18  1  0.12470352  0.12618838  -0.00073713  1
  V  V19  1  0.23511644  0.00855713  0.24487189  1
  V  V20  1  0.62171518  0.37518330  0.75151626  1
  V  V21  1  0.90596172  0.38195800  -0.00690019  1
  V  V22  1  0.12532631  0.75067016  0.86872320  1
  V  V23  1  0.75317058  0.12381067  0.86112884  1
  V  V24  1  0.62798979  0.63638851  0.00389470  1
  V  V25  1  0.62615452  0.24897656  0.37778823  1
  V  V26  1  0.37573599  0.62678396  0.74992783  1
  V  V27  1  0.63879060  0.75209436  0.37201074  1
  V  V28  1  0.37520015  0.24466855  0.13436229  1
  V  V29  1  0.49834258  0.00276371  -0.00303055  1
  V  V30  1  0.24622531  0.25029062  -0.00749870  1
  V  V31  1  0.49633638  0.36613418  0.36663858  1
  V  V32  1  0.24478376  0.75016012  -0.00061038  1
  V  V33  1  0.00027248  0.25467173  0.26782480  1
  V  V34  1  0.37394381  0.23138138  0.63075154  1
  V  V35  1  0.00752433  -0.00787419  0.50289444  1
  V  V36  1  0.75862018  0.12925947  0.38675706  1
  V  V37  1  0.37501720  0.37557258  0.00071196  1
  V  V38  1  0.74976841  0.35711020  0.62166143  1
  V  V39  1  0.50894578  0.86412865  0.87701427  1
  V  V40  1  0.24169027  0.49410860  0.74478900  1
  V  V41  1  0.63808992  0.37699029  0.24631864  1
  V  V42  1  0.37603811  0.50135507  0.87712534  1
  V  V43  1  0.63338521  0.12560328  0.00041976  1
  V  V44  1  0.36862571  0.87652233  -0.00061186  1
  V  V45  1  -0.01562840  0.75040155  0.74050941  1
  V  V46  1  0.25018338  0.37598382  0.12576396  1
  V  V47  1  0.00357824  0.61379612  0.61881440  1
  V  V48  1  0.38062153  0.74705557  0.12471151  1
  V  V49  1  0.49814526  0.62998388  0.62193771  1
  V  V50  1  0.24820899  0.75175895  0.49659007  1
  V  V51  1  0.22661229  0.87482282  0.12968511  1
  V  V52  1  0.25060768  0.62469411  0.87360973  1
  V  V53  1  0.00998278  0.39480196  0.38599716  1
  V  V54  1  0.37286017  0.00377163  0.35768676  1
  V  V55  1  0.87728149  -0.01020100  0.37402485  1
  V  V56  1  0.12265819  0.34671271  0.75607169  1
  V  V57  1  0.25857956  0.00127518  0.74822729  1
  V  V58  1  0.37717220  0.75479470  0.62519326  1
  V  V59  1  0.25059247  0.12408226  0.86992748  1
  V  V60  1  0.76252387  0.87465796  0.10480937  1
  V  V61  1  -0.00133949  0.12487493  0.62235319  1
  V  V62  1  0.38565373  0.62741174  0.24520460  1
  V  V63  1  0.50392494  0.87195743  0.36164053  1
  V  V64  1  0.49232351  0.12548666  0.13763578  1
  V  V65  1  -0.00322239  0.00555065  0.01108409  1
  V  V66  1  0.62653160  0.50308732  0.62492232  1
  V  V67  1  0.74867130  0.64488922  0.87605430  1
  V  V68  1  0.50321632  0.50590638  0.01162556  1
  V  V69  1  0.24599414  0.88107715  0.62253426  1
  V  V70  1  0.13306267  0.14170768  0.48768396  1
  V  V71  1  0.87301298  0.75280441  0.59625766  1
  V  V72  1  0.38406978  0.88232597  0.49567283  1
  V  V73  1  -0.00328058  0.13871098  0.13022254  1
  V  V74  1  -0.01907931  0.23804703  0.75967860  1
  V  V75  1  0.38032855  0.50302324  0.37392352  1
  V  V76  1  -0.01904586  0.86134062  0.89506791  1
  V  V77  1  0.51504143  0.75053638  0.75463030  1
  V  V78  1  0.75358533  0.50516679  0.75829201  1
  Zn  Zn79  1  0.89269908  0.50649733  0.88049058  1
  Zn  Zn80  1  0.85975498  0.22571856  0.61227193  1
  Zn  Zn81  1  0.83136055  0.16889220  0.20482294  1
  Zn  Zn82  1  0.37665436  0.00358652  0.86967121  1
  Zn  Zn83  1  0.63647018  0.50167759  0.13036174  1
  Zn  Zn84  1  0.75114464  0.86095459  0.60721390  1
  Zn  Zn85  1  0.51328802  0.74622863  0.23973179  1
  Zn  Zn86  1  -0.00007986  0.87285886  0.36975588  1
  Zn  Zn87  1  0.12706361  0.37350418  0.25258638  1
  Zn  Zn88  1  0.79734132  0.30586774  0.09122985  1
  Zn  Zn89  1  0.88163865  0.37476372  0.50585249  1
  Zn  Zn90  1  0.25116724  0.49978485  0.24743991  1
  Zn  Zn91  1  0.23659041  0.36998257  0.61357004  1
  Zn  Zn92  1  0.11267212  0.59399102  0.49610339  1
  Zn  Zn93  1  0.49989366  0.50340517  0.49932995  1
  Zn  Zn94  1  0.17962105  0.18856420  0.18553701  1
  Zn  Zn95  1  0.18719786  0.17878588  0.67354841  1
  Zn  Zn96  1  0.18624395  0.68645021  0.18512650  1
  Zn  Zn97  1  0.18671528  0.68617146  0.68269725  1
  Zn  Zn98  1  0.66592240  0.18481797  0.19945455  1
  Zn  Zn99  1  0.69306164  0.14834868  0.66019390  1
  Zn  Zn100  1  0.69651207  0.69223690  0.18243085  1
  Zn  Zn101  1  0.69564220  0.68845269  0.68483592  1
  Zn  Zn102  1  0.30475701  0.30500170  0.31435520  1
  Zn  Zn103  1  0.31365330  0.31312507  0.81162782  1
  Zn  Zn104  1  0.31182237  0.81577740  0.30616101  1
  Zn  Zn105  1  0.31522830  0.81349016  0.80979710  1
  Zn  Zn106  1  0.81957697  0.31471141  0.32168787  1
  Zn  Zn107  1  0.81522453  0.31480740  0.81883569  1
  Zn  Zn108  1  0.81471346  0.81157504  0.30090848  1
  Zn  Zn109  1  0.80037506  0.82860392  0.79937369  1
  Zn  Zn110  1  0.19255921  0.43018005  0.43508685  1
  Zn  Zn111  1  0.17905210  0.43660292  0.93405134  1
  Zn  Zn112  1  0.18864641  0.94349555  0.43215697  1
  Zn  Zn113  1  0.17878006  0.93985751  0.93480790  1
  Zn  Zn114  1  0.68027216  0.43718586  0.44208498  1
  Zn  Zn115  1  0.68776361  0.44144745  0.94188780  1
  Zn  Zn116  1  0.68061254  0.94493640  0.44710084  1
  Zn  Zn117  1  0.68799603  0.94310272  0.91884009  1
  Zn  Zn118  1  0.30671340  0.05920854  0.06565027  1
  Zn  Zn119  1  0.31251399  0.05936062  0.55313159  1
  Zn  Zn120  1  0.30827533  0.56417075  0.06020178  1
  Zn  Zn121  1  0.28261383  0.54358425  0.54458827  1
  Zn  Zn122  1  0.81467028  0.05471874  0.05760067  1
  Zn  Zn123  1  0.80394125  0.03383436  0.55971517  1
  Zn  Zn124  1  0.81626594  0.55511049  0.05209196  1
  Zn  Zn125  1  0.82307629  0.56209515  0.56808910  1
  Zn  Zn126  1  0.43657647  0.43699963  0.18800888  1
  Zn  Zn127  1  0.44034262  0.44405164  0.69246862  1
  Zn  Zn128  1  0.43485630  0.93358015  0.18361465  1
  Zn  Zn129  1  0.45045797  0.93995132  0.68589578  1
  Zn  Zn130  1  0.92697995  0.43400755  0.19283291  1
  Zn  Zn131  1  0.95895035  0.44678736  0.72559872  1
  Zn  Zn132  1  0.93715063  0.93612955  0.19192029  1
  Zn  Zn133  1  0.93522352  0.93493109  0.68049926  1
  Zn  Zn134  1  0.06354665  0.06764813  0.31430423  1
  Zn  Zn135  1  0.06676766  0.06527887  0.81364424  1
  Zn  Zn136  1  0.06444819  0.56669026  0.30384421  1
  Zn  Zn137  1  0.06294407  0.57046746  0.80697365  1
  Zn  Zn138  1  0.56322577  0.05874649  0.31901235  1
  Zn  Zn139  1  0.55728435  0.04644317  0.79864642  1
  Zn  Zn140  1  0.57110983  0.56210839  0.31191519  1
  Zn  Zn141  1  0.56564048  0.56654040  0.81834524  1
  Zn  Zn142  1  0.40558035  0.19506985  0.42579743  1
  Zn  Zn143  1  0.43374615  0.18856895  0.93821255  1
  Zn  Zn144  1  0.43891123  0.69359846  0.43646542  1
  Zn  Zn145  1  0.43779295  0.68581001  0.94290009  1
  Zn  Zn146  1  0.93552626  0.18808531  0.44649681  1
  Zn  Zn147  1  0.92639155  0.19563657  0.94845925  1
  Zn  Zn148  1  0.93796896  0.67554735  0.43208022  1
  Zn  Zn149  1  0.92885700  0.68853741  0.93045029  1
  Zn  Zn150  1  0.06427401  0.31288278  0.06232325  1
  Zn  Zn151  1  0.06064761  0.31186215  0.56998220  1
  Zn  Zn152  1  0.04098885  0.80461144  0.05173809  1
  Zn  Zn153  1  0.06430833  0.80884638  0.55813008  1
  Zn  Zn154  1  0.56121393  0.30997444  0.06559295  1
  Zn  Zn155  1  0.55666759  0.30707088  0.56160043  1
  Zn  Zn156  1  0.56497004  0.81644128  0.06020184  1
  Zn  Zn157  1  0.56470122  0.81682361  0.55956906  1
  O  O158  1  0.10912017  0.12812975  0.11167521  1
  O  O159  1  0.10793654  0.12250234  0.61253263  1
  O  O160  1  0.13088560  0.61184636  0.11399626  1
  O  O161  1  0.11011473  0.63395297  0.61771153  1
  O  O162  1  0.60749952  0.11717385  0.11695967  1
  O  O163  1  0.60175794  0.14063156  0.59656353  1
  O  O164  1  0.64087736  0.61920942  0.10962586  1
  O  O165  1  0.61894247  0.62393636  0.61620787  1
  O  O166  1  0.38548423  0.38378854  0.37997905  1
  O  O167  1  0.38050459  0.38083539  0.88229881  1
  O  O168  1  0.38581104  0.87316597  0.37705595  1
  O  O169  1  0.37596483  0.87350959  0.89000284  1
  O  O170  1  0.88939685  0.39106458  0.37567380  1
  O  O171  1  0.86699896  0.38579853  0.88809563  1
  O  O172  1  0.87217032  0.88787657  0.37303127  1
  O  O173  1  0.88089780  0.89358219  0.86229114  1
  O  O174  1  0.26051893  -0.01066440  0.35491230  1
  O  O175  1  0.25124183  0.00360579  0.86661927  1
  O  O176  1  0.26489578  0.50919709  0.37008809  1
  O  O177  1  0.25626879  0.50497094  0.86664658  1
  O  O178  1  0.75822912  0.00740978  0.36955420  1
  O  O179  1  0.77215677  0.01415003  0.87970432  1
  O  O180  1  0.75340936  0.49162672  0.37316163  1
  O  O181  1  0.74775456  0.49881752  0.86183944  1
  O  O182  1  0.25220344  0.48536857  0.12415133  1
  O  O183  1  0.26759756  0.49345285  0.64603039  1
  O  O184  1  0.24660505  0.98356640  0.13071397  1
  O  O185  1  0.25614386  0.98676485  0.63022971  1
  O  O186  1  0.74592233  0.46827036  0.09439739  1
  O  O187  1  0.73517716  0.50395667  0.63554081  1
  O  O188  1  0.74142068  0.99931493  0.13054983  1
  O  O189  1  0.71483224  1.02969818  0.64833110  1
  O  O190  1  0.00039351  0.36776286  0.26452248  1
  O  O191  1  0.01147668  0.34387395  0.74252145  1
  O  O192  1  -0.01143182  0.85092167  0.25351093  1
  O  O193  1  0.00775489  0.86371099  0.74565687  1
  O  O194  1  0.50201414  0.37974721  0.26440129  1
  O  O195  1  0.50878459  0.37610228  0.75972987  1
  O  O196  1  0.50019133  0.86739638  0.25735278  1
  O  O197  1  0.49332890  0.86348359  0.77019767  1
  O  O198  1  0.50129305  0.11874957  0.23550973  1
  O  O199  1  0.50114676  0.13956920  0.76350093  1
  O  O200  1  0.48945291  0.62652907  0.25279873  1
  O  O201  1  0.49701310  0.63161646  0.74402045  1
  O  O202  1  1.00528652  0.13759389  0.23801394  1
  O  O203  1  1.00739402  0.12959401  0.73550302  1
  O  O204  1  0.98787633  0.63652634  0.25769115  1
  O  O205  1  1.00768458  0.64707517  0.73488264  1
  O  O206  1  0.36629573  0.25608856  0.00833611  1
  O  O207  1  0.39245923  0.26399680  0.52635144  1
  O  O208  1  0.36565467  0.75442242  0.00606262  1
  O  O209  1  0.36790060  0.76303857  0.50318103  1
  O  O210  1  0.86554388  0.27750302  -0.00559336  1
  O  O211  1  0.87371017  0.26122736  0.50411544  1
  O  O212  1  0.94341326  0.79260312  -0.02861863  1
  O  O213  1  0.87988814  0.75260807  0.49719876  1
  O  O214  1  0.12444799  0.24154792  0.50567235  1
  O  O215  1  0.13849249  0.24318594  1.00334879  1
  O  O216  1  0.13929513  0.74995528  0.48835259  1
  O  O217  1  0.12475024  0.74286990  0.98629592  1
  O  O218  1  0.61255988  0.24356917  0.48315154  1
  O  O219  1  0.61590250  0.24012089  0.98917518  1
  O  O220  1  0.62490776  0.74020044  0.49277999  1
  O  O221  1  0.61895366  0.73539411  1.00336170  1
  O  O222  1  0.49146320  0.23184059  0.11787713  1
  O  O223  1  0.49298160  0.25475749  0.64511240  1
  O  O224  1  0.48556244  0.75712959  0.12328483  1
  O  O225  1  0.49752159  0.74714768  0.63359853  1
  O  O226  1  0.99601421  0.24045542  0.12372459  1
  O  O227  1  0.99049287  0.23291337  0.62969286  1
  O  O228  1  0.99990693  0.74152417  0.13534582  1
  O  O229  1  0.99107218  0.74981438  0.62736287  1
  O  O230  1  0.00051048  0.25360924  0.36873493  1
  O  O231  1  -0.00725587  0.22989912  0.85811307  1
  O  O232  1  0.01674133  0.74808704  0.38149684  1
  O  O233  1  0.00910707  0.75015615  0.85149523  1
  O  O234  1  0.49760534  0.26482857  0.37489685  1
  O  O235  1  0.50349619  0.25766921  0.86938215  1
  O  O236  1  0.50576419  0.76063172  0.37036054  1
  O  O237  1  0.49279256  0.75689973  0.87052252  1
  O  O238  1  0.23130512  0.11989259  0.50696199  1
  O  O239  1  0.24318026  0.13055435  0.99669701  1
  O  O240  1  0.26592064  0.64300909  0.48467839  1
  O  O241  1  0.24071359  0.63164495  0.99148733  1
  O  O242  1  0.74522132  0.11590034  0.48631585  1
  O  O243  1  0.73636741  0.11725490  0.99420792  1
  O  O244  1  0.73819816  0.62299789  0.50644352  1
  O  O245  1  0.74049816  0.62337021  0.98697641  1
  O  O246  1  0.25372266  0.36862937  0.00459578  1
  O  O247  1  0.27279372  0.37139399  0.49998706  1
  O  O248  1  0.24980960  0.87209387  0.00638474  1
  O  O249  1  0.25540171  0.87023810  0.50490714  1
  O  O250  1  0.74365290  0.40303621  0.03705202  1
  O  O251  1  0.73315455  0.37429242  0.52208865  1
  O  O252  1  0.74654598  0.89061402  0.00566534  1
  O  O253  1  0.76291173  0.93105467  0.52088070  1
  O  O254  1  0.13197077  0.50143455  0.23273359  1
  O  O255  1  0.14276609  0.50615164  0.74608019  1
  O  O256  1  0.13585500  0.99819788  0.25642079  1
  O  O257  1  0.13289835  0.98415526  0.75630493  1
  O  O258  1  0.62426870  0.48472910  0.24793998  1
  O  O259  1  0.62777445  0.49329801  0.74556494  1
  O  O260  1  0.63209518  1.00584290  0.23954062  1
  O  O261  1  0.65040031  0.98048392  0.80031864  1
  O  O262  1  0.36187909  -0.01289585  0.25225122  1
  O  O263  1  0.36342609  -0.00935569  0.75000824  1
  O  O264  1  0.37439079  0.50979119  0.25582848  1
  O  O265  1  0.37257172  0.50786881  0.76061194  1
  O  O266  1  0.86879400  0.00435416  0.26315662  1
  O  O267  1  0.88584113  0.00875070  0.75703395  1
  O  O268  1  0.87923334  0.50847815  0.26526290  1
  O  O269  1  0.85066980  0.49549949  0.74059558  1
  O  O270  1  0.11525049  0.38010619  0.37083374  1
  O  O271  1  0.12821848  0.37679941  0.85342033  1
  O  O272  1  0.12894646  0.85840207  0.37171568  1
  O  O273  1  0.10972786  0.86424084  0.86974315  1
  O  O274  1  0.61261847  0.37195431  0.37101381  1
  O  O275  1  0.62344391  0.36805514  0.87214056  1
  O  O276  1  0.61231617  0.86529997  0.38449645  1
  O  O277  1  0.60608013  0.86339663  0.89332901  1
  O  O278  1  0.38578748  0.12756172  0.11777166  1
  O  O279  1  0.37462297  0.13289943  0.62079753  1
  O  O280  1  0.36439470  0.63586461  0.13245005  1
  O  O281  1  0.38628046  0.63414221  0.63001931  1
  O  O282  1  0.89260413  0.11755434  0.12027133  1
  O  O283  1  0.88940470  0.11092825  0.61252272  1
  O  O284  1  0.87195250  0.60777690  0.13812584  1
  O  O285  1  0.89056990  0.64140021  0.61871277  1
  O  O286  1  0.25464000  0.25756377  0.11585072  1
  O  O287  1  0.27179781  0.25423317  0.63752074  1
  O  O288  1  0.25358293  0.76001845  0.11910680  1
  O  O289  1  0.25699932  0.75933964  0.61643915  1
  O  O290  1  0.75147683  0.21866287  0.13625679  1
  O  O291  1  0.74459966  0.25370427  0.63623716  1
  O  O292  1  0.74509141  0.77671258  0.12471578  1
  O  O293  1  0.76877254  0.74379875  0.61963505  1
  O  O294  1  0.30395783  0.23687442  0.39813223  1
  O  O295  1  0.25885965  0.24256550  0.88568452  1
  O  O296  1  0.24295215  0.74673684  0.37569237  1
  O  O297  1  0.24110159  0.74750658  0.87723354  1
  O  O298  1  0.74278735  0.23661159  0.37234619  1
  O  O299  1  0.73874087  0.24071651  0.87217668  1
  O  O300  1  0.73661842  0.76498584  0.37512971  1
  O  O301  1  0.75367724  0.74368770  0.86443275  1
  O  O302  1  0.00455224  0.12352873  0.00520984  1
  O  O303  1  0.00967036  0.11872633  0.50556976  1
  O  O304  1  0.01140412  0.62763074  -0.01180305  1
  O  O305  1  0.00228099  0.62035027  0.51123245  1
  O  O306  1  0.50519899  0.11345095  -0.00290245  1
  O  O307  1  0.48795521  0.13185459  0.48077007  1
  O  O308  1  0.51368749  0.61708598  -0.00527509  1
  O  O309  1  0.50259921  0.62884110  0.51269899  1
  O  O310  1  0.49324451  0.38144894  0.48954772  1
  O  O311  1  0.49542028  0.38235455  0.99766206  1
  O  O312  1  0.48920663  0.87144618  0.48941053  1
  O  O313  1  0.48906282  0.88079390  0.99405162  1
  O  O314  1  1.00508032  0.37549178  0.48812919  1
  O  O315  1  1.00559443  0.37049333  0.98447375  1
  O  O316  1  1.00931587  0.88823570  0.49307041  1
  O  O317  1  1.02265518  0.90445321  0.99346390  1
  O  O318  1  0.49160684  0.49766123  0.37620521  1
  O  O319  1  0.49548235  0.49591081  0.88371944  1
  O  O320  1  0.48729818  0.98117224  0.36135265  1
  O  O321  1  0.49517343  0.98483265  0.88235329  1
  O  O322  1  1.00618955  0.49576025  0.37802748  1
  O  O323  1  0.98927391  0.49306143  0.82624838  1
  O  O324  1  0.98925125  0.99687177  0.37024869  1
  O  O325  1  0.99085368  1.00073912  0.87819722  1
  O  O326  1  -0.00103643  0.00705511  0.11475505  1
  O  O327  1  -0.00091593  0.00249930  0.60891627  1
  O  O328  1  0.01367671  0.49527059  0.12890476  1
  O  O329  1  -0.00709932  0.51635302  0.63811882  1
  O  O330  1  0.50198468  0.00639423  0.11733139  1
  O  O331  1  0.55099057  -0.00746449  0.68858490  1
  O  O332  1  0.50054222  0.49757917  0.11422440  1
  O  O333  1  0.51150685  0.51264624  0.62795848  1
  O  O334  1  0.24855898  0.37230966  0.23984516  1
  O  O335  1  0.24353076  0.38368687  0.75168254  1
  O  O336  1  0.24362318  0.87364213  0.23260999  1
  O  O337  1  0.24389211  0.87964955  0.74245628  1
  O  O338  1  0.73726990  0.36771681  0.25646421  1
  O  O339  1  0.73608873  0.38286891  0.74294571  1
  O  O340  1  0.75388521  0.89176330  0.24067539  1
  O  O341  1  0.74195261  0.88853832  0.72530652  1
  O  O342  1  0.24650236  0.10779909  0.23194992  1
  O  O343  1  0.24128947  0.11012813  0.75471055  1
  O  O344  1  0.25993579  0.62778214  0.25974263  1
  O  O345  1  0.25579308  0.61847136  0.75323256  1
  O  O346  1  0.74459761  0.11376753  0.26412289  1
  O  O347  1  0.74490698  0.13020940  0.76362414  1
  O  O348  1  0.76482796  0.62789287  0.24935105  1
  O  O349  1  0.73915276  0.61417387  0.76375333  1
  O  O350  1  0.38294281  0.10065477  0.35979536  1
  O  O351  1  0.35812069  0.12072089  0.88178709  1
  O  O352  1  0.37233825  0.62265752  0.36644849  1
  O  O353  1  0.36948953  0.62213794  0.87141979  1
  O  O354  1  0.86220382  0.12229938  0.37730319  1
  O  O355  1  0.86284204  0.12342457  0.87721692  1
  O  O356  1  0.86983988  0.60702000  0.37405328  1
  O  O357  1  0.85429755  0.62023655  0.88265582  1
  O  O358  1  0.13384642  0.38721821  0.12152725  1
  O  O359  1  0.12796289  0.36693513  0.64640411  1
  O  O360  1  0.12951157  0.86327176  0.11723383  1
  O  O361  1  0.13686998  0.86725253  0.63170021  1
  O  O362  1  0.61831352  0.36713846  0.14478333  1
  O  O363  1  0.62432997  0.38220665  0.63400132  1
  O  O364  1  0.62889538  0.89091936  0.11890183  1
  O  O365  1  0.63148701  0.87886654  0.62411880  1
  O  O366  1  0.10583556  0.25653063  0.24025497  1
  O  O367  1  0.13150905  0.24630454  0.75565905  1
  O  O368  1  0.11215507  0.73789911  0.26075664  1
  O  O369  1  0.12878968  0.76067753  0.75643873  1
  O  O370  1  0.61658702  0.26272878  0.26772798  1
  O  O371  1  0.61053245  0.26028394  0.76204730  1
  O  O372  1  0.62668438  0.73763765  0.26734128  1
  O  O373  1  0.61382969  0.74418071  0.74667017  1
  O  O374  1  0.37134844  0.25121315  0.23271834  1
  O  O375  1  0.38820557  0.25477949  0.74439799  1
  O  O376  1  0.37533477  0.74324622  0.23977070  1
  O  O377  1  0.38139617  0.74515296  0.74362937  1
  O  O378  1  0.89246610  0.25314673  0.25351289  1
  O  O379  1  0.87976775  0.24901734  0.74540991  1
  O  O380  1  0.88317070  0.73268951  0.25494962  1
  O  O381  1  0.88552136  0.75535001  0.75059706  1
  O  O382  1  0.37679162  0.49277524  0.49010719  1
  O  O383  1  0.38172095  0.49748730  0.99589723  1
  O  O384  1  0.36410612  0.98786084  0.47800907  1
  O  O385  1  0.38179720  0.99139913  1.00250805  1
  O  O386  1  0.86567024  0.49190734  0.48839537  1
  O  O387  1  0.88985133  0.48976537  0.99545841  1
  O  O388  1  0.89643597  1.00834632  0.48052829  1
  O  O389  1  0.89442885  1.00653074  0.98807067  1
  O  O390  1  0.11455832  0.01852653  -0.00826949  1
  O  O391  1  0.11051595  0.00916930  0.48488554  1
  O  O392  1  0.12896470  0.50695636  0.01000623  1
  O  O393  1  0.17616882  0.50580907  0.51424410  1
  O  O394  1  0.61368312  0.00748511  0.00498057  1
  O  O395  1  0.60230814  0.01943609  0.48399914  1
  O  O396  1  0.61349043  0.50698389  0.00220027  1
  O  O397  1  0.62053371  0.51512038  0.50764662  1
  O  O398  1  0.36924838  0.36665019  0.11981209  1
  O  O399  1  0.38221750  0.38414313  0.61345067  1
  O  O400  1  0.36752466  0.86612808  0.11237937  1
  O  O401  1  0.37457173  0.87516188  0.61624752  1
  O  O402  1  0.88854654  0.37745608  0.10421440  1
  O  O403  1  0.84946499  0.37638900  0.62801108  1
  O  O404  1  0.86231200  0.88912284  0.11813890  1
  O  O405  1  0.87816370  0.85550820  0.62213801  1
  O  O406  1  0.12084599  0.13315261  0.38645936  1
  O  O407  1  0.13998194  0.12534023  0.88282763  1
  O  O408  1  0.13804510  0.63016452  0.37837961  1
  O  O409  1  0.13024152  0.63357206  0.87737398  1
  O  O410  1  0.62828943  0.13255946  0.38032125  1
  O  O411  1  0.63560902  0.13012048  0.88126404  1
  O  O412  1  0.62171924  0.63550032  0.38948154  1
  O  O413  1  0.63770294  0.62390082  0.88677321  1
