# generated using pymatgen
data_V79Zn79O256
_symmetry_space_group_name_H-M   'P 1'
_cell_length_a   16.90944810
_cell_length_b   16.94961550
_cell_length_c   16.91443090
_cell_angle_alpha   90.00598709
_cell_angle_beta   90.12580407
_cell_angle_gamma   90.01626365
_symmetry_Int_Tables_number   1
_chemical_formula_structural   V79Zn79O256
_chemical_formula_sum   'V79 Zn79 O256'
_cell_volume   4847.81019066
_cell_formula_units_Z   1
loop_
 _symmetry_equiv_pos_site_id
 _symmetry_equiv_pos_as_xyz
  1  'x, y, z'
loop_
 _atom_site_type_symbol
 _atom_site_label
 _atom_site_symmetry_multiplicity
 _atom_site_fract_x
 _atom_site_fract_y
 _atom_site_fract_z
 _atom_site_occupancy
  V  V0  1  0.75274292  0.74881383  0.50344856  1
  V  V1  1  0.62345988  0.12328520  0.51201088  1
  V  V2  1  0.24774792  0.87997803  0.12485340  1
  V  V3  1  0.48803631  0.23914428  0.74672962  1
  V  V4  1  0.62432076  0.62900335  -0.00744674  1
  V  V5  1  0.86263757  0.49975129  0.36935296  1
  V  V6  1  0.73969018  0.12175808  0.36617204  1
  V  V7  1  0.11647393  0.75514999  0.86512297  1
  V  V8  1  0.49661436  0.00155554  -0.00502417  1
  V  V9  1  0.62999236  0.50167271  0.12471768  1
  V  V10  1  0.12153849  0.25688707  0.87060418  1
  V  V11  1  0.24513003  0.74321482  0.00348728  1
  V  V12  1  0.87621202  0.88955534  -0.00533841  1
  V  V13  1  0.87279859  0.75506424  0.12318380  1
  V  V14  1  0.12172894  0.11934329  0.01375640  1
  V  V15  1  0.50519334  0.86017593  0.87567393  1
  V  V16  1  0.61536512  0.62747094  0.49878335  1
  V  V17  1  0.24160532  0.62837078  0.85188679  1
  V  V18  1  0.11549122  0.87906136  0.24971348  1
  V  V19  1  0.62582945  0.00447071  0.12934966  1
  V  V20  1  0.87496384  0.12001697  0.74913693  1
  V  V21  1  -0.00034271  0.89107013  0.86719723  1
  V  V22  1  0.62259655  0.25728104  0.87248421  1
  V  V23  1  0.62578669  0.12868469  -0.00181627  1
  V  V24  1  0.50637063  0.87312430  0.37551481  1
  V  V25  1  0.37376265  0.00644429  0.37573427  1
  V  V26  1  0.39651197  0.62216678  0.73978386  1
  V  V27  1  0.73743294  0.00218194  0.74103891  1
  V  V28  1  0.49352677  0.63334505  0.12138903  1
  V  V29  1  0.12815116  0.62026638  0.48256052  1
  V  V30  1  0.00384462  0.11732870  0.62495272  1
  V  V31  1  -0.00932713  0.75399306  0.26433638  1
  V  V32  1  -0.00496611  0.62966260  0.61904774  1
  V  V33  1  0.74017737  0.24923405  0.49214329  1
  V  V34  1  0.62454771  0.87459088  0.24980739  1
  V  V35  1  0.74424108  0.75633568  -0.00968501  1
  V  V36  1  0.36906423  0.50202724  0.87347246  1
  V  V37  1  0.37057314  0.36902819  -0.00233852  1
  V  V38  1  0.50688277  -0.00148477  0.50789858  1
  V  V39  1  0.14239140  0.75128242  0.37449229  1
  V  V40  1  0.26606846  0.36296833  0.14050891  1
  V  V41  1  0.50160073  0.25467280  0.25501623  1
  V  V42  1  0.75557096  0.11856123  0.87395453  1
  V  V43  1  0.49452499  0.13437935  0.12317473  1
  V  V44  1  0.87116725  0.63758603  0.73959228  1
  V  V45  1  0.63047356  0.37666025  0.25339788  1
  V  V46  1  0.87542053  0.37350889  0.49139007  1
  V  V47  1  -0.00136720  0.26776269  0.25987576  1
  V  V48  1  0.74661636  0.37465025  0.62202258  1
  V  V49  1  0.38028968  0.76088284  0.62524576  1
  V  V50  1  0.35557004  0.87762936  0.49693009  1
  V  V51  1  0.00436301  0.62873838  0.11626346  1
  V  V52  1  0.75645372  0.25927120  -0.00124536  1
  V  V53  1  0.12852500  0.49715956  0.63327210  1
  V  V54  1  0.61540037  0.50220119  0.62283313  1
  V  V55  1  0.75350422  0.62662254  0.87221622  1
  V  V56  1  0.61476792  0.37395053  0.75122987  1
  V  V57  1  0.75298511  0.87266483  0.62202498  1
  V  V58  1  0.12828963  0.12565467  0.48753910  1
  V  V59  1  0.74829465  0.88371742  0.12731432  1
  V  V60  1  0.14544692  0.48093496  0.12887862  1
  V  V61  1  0.50159047  0.49636381  -0.00529599  1
  V  V62  1  0.88043002  0.24813789  0.62369082  1
  V  V63  1  -0.00500431  0.49613490  0.48636378  1
  V  V64  1  0.62135414  0.85719509  0.75050393  1
  V  V65  1  0.86495206  0.62476930  0.24744551  1
  V  V66  1  0.25324101  0.11901438  0.86766830  1
  V  V67  1  0.24591454  0.36934405  0.63770927  1
  V  V68  1  0.88047247  0.11888038  0.24923028  1
  V  V69  1  0.36446130  0.37139626  0.50176450  1
  V  V70  1  0.49441616  0.75126456  0.24363762  1
  V  V71  1  -0.00381812  -0.00567676  0.48993424  1
  V  V72  1  0.12907464  0.26055484  0.37609402  1
  V  V73  1  0.37498985  0.87012538  0.00489769  1
  V  V74  1  0.24693949  0.00413282  0.25145097  1
  V  V75  1  0.73741822  0.63108941  0.37160037  1
  V  V76  1  0.88597021  0.25763850  0.12150378  1
  V  V77  1  0.37321679  0.13002104  0.24803128  1
  V  V78  1  0.75310970  0.50106665  0.75181499  1
  Zn  Zn79  1  0.36664268  0.50668778  0.37169404  1
  Zn  Zn80  1  0.37005214  -0.00269355  0.86850968  1
  Zn  Zn81  1  0.46820862  0.12165829  0.62680790  1
  Zn  Zn82  1  0.50098510  0.37330470  0.38490973  1
  Zn  Zn83  1  0.30450693  0.19450330  0.56049138  1
  Zn  Zn84  1  0.49261703  0.49830839  0.50229401  1
  Zn  Zn85  1  0.35559449  0.62341799  0.23750715  1
  Zn  Zn86  1  0.25006812  0.24511520  0.00472177  1
  Zn  Zn87  1  0.89051364  0.86256635  0.49661481  1
  Zn  Zn88  1  -0.00050103  0.76080119  0.73258495  1
  Zn  Zn89  1  0.00850194  0.00304936  0.03089857  1
  Zn  Zn90  1  0.99223057  0.49422452  1.00512148  1
  Zn  Zn91  1  0.75687547  0.38444224  0.12374153  1
  Zn  Zn92  1  0.86896635  -0.01143996  0.36792050  1
  Zn  Zn93  1  0.01123978  0.37736127  0.88820081  1
  Zn  Zn94  1  0.18452666  0.19177125  0.19421804  1
  Zn  Zn95  1  0.17663623  0.19372353  0.69131003  1
  Zn  Zn96  1  0.18242904  0.70112345  0.18408395  1
  Zn  Zn97  1  0.19499979  0.70007151  0.65595493  1
  Zn  Zn98  1  0.68753479  0.19526996  0.18353560  1
  Zn  Zn99  1  0.68696537  0.19022465  0.68621193  1
  Zn  Zn100  1  0.68221016  0.69222398  0.18271178  1
  Zn  Zn101  1  0.68189856  0.68748018  0.68220987  1
  Zn  Zn102  1  0.31476434  0.30687655  0.32499204  1
  Zn  Zn103  1  0.30373860  0.31244525  0.81842186  1
  Zn  Zn104  1  0.31688520  0.81410908  0.30898320  1
  Zn  Zn105  1  0.32203829  0.81012597  0.81431587  1
  Zn  Zn106  1  0.80968797  0.30852539  0.30854131  1
  Zn  Zn107  1  0.80389257  0.30074898  0.80205671  1
  Zn  Zn108  1  0.80483794  0.81262951  0.31706553  1
  Zn  Zn109  1  0.81473276  0.81858639  0.81031595  1
  Zn  Zn110  1  0.19125638  0.43476254  0.43967594  1
  Zn  Zn111  1  0.15626576  0.46700759  0.92419316  1
  Zn  Zn112  1  0.17864530  0.94548208  0.43012224  1
  Zn  Zn113  1  0.18444125  0.93834178  0.93568165  1
  Zn  Zn114  1  0.68374720  0.44242523  0.43496086  1
  Zn  Zn115  1  0.82395438  0.44385930  0.92486467  1
  Zn  Zn116  1  0.68990912  0.93939443  0.43764017  1
  Zn  Zn117  1  0.68406050  0.94089946  0.93449230  1
  Zn  Zn118  1  0.30809618  0.06140745  0.06162805  1
  Zn  Zn119  1  0.29631911  0.05244083  0.69076426  1
  Zn  Zn120  1  0.31029175  0.56004079  0.05962109  1
  Zn  Zn121  1  0.33462606  0.59167018  0.53322124  1
  Zn  Zn122  1  0.81395353  0.07084915  0.06527333  1
  Zn  Zn123  1  0.81073768  0.05926137  0.56035879  1
  Zn  Zn124  1  0.81410338  0.56498601  0.06059896  1
  Zn  Zn125  1  0.80732430  0.56228823  0.56029720  1
  Zn  Zn126  1  0.43899801  0.44468489  0.18643928  1
  Zn  Zn127  1  0.42768710  0.43426856  0.68520338  1
  Zn  Zn128  1  0.43634588  0.94181551  0.18493132  1
  Zn  Zn129  1  0.44395237  0.92739366  0.68348854  1
  Zn  Zn130  1  0.99864484  0.48217630  0.24342192  1
  Zn  Zn131  1  0.93374374  0.44453832  0.68333103  1
  Zn  Zn132  1  0.93579826  0.93899858  0.18808563  1
  Zn  Zn133  1  0.93135168  0.94034207  0.68348632  1
  Zn  Zn134  1  0.05814198  0.06372611  0.30762348  1
  Zn  Zn135  1  0.06424703  0.07822377  0.81604719  1
  Zn  Zn136  1  0.18885184  0.55738445  0.30189721  1
  Zn  Zn137  1  0.05079030  0.56570207  0.81097777  1
  Zn  Zn138  1  0.56017825  0.06454844  0.31496831  1
  Zn  Zn139  1  0.56333074  0.06511361  0.81194293  1
  Zn  Zn140  1  0.52957967  0.54951512  0.30138648  1
  Zn  Zn141  1  0.56633082  0.55870768  0.81577924  1
  Zn  Zn142  1  0.44206806  0.18991085  0.43764796  1
  Zn  Zn143  1  0.43706143  0.18640134  0.92829835  1
  Zn  Zn144  1  0.43818071  0.69582199  0.42834113  1
  Zn  Zn145  1  0.42932392  0.68413762  0.93595785  1
  Zn  Zn146  1  0.93423211  0.18383868  0.43509315  1
  Zn  Zn147  1  0.94320637  0.18566116  0.93832754  1
  Zn  Zn148  1  0.93047820  0.68063458  0.43813659  1
  Zn  Zn149  1  0.92996982  0.69154697  0.93458343  1
  Zn  Zn150  1  0.06546602  0.30941057  0.05831593  1
  Zn  Zn151  1  0.06381650  0.31183739  0.55934509  1
  Zn  Zn152  1  0.06218981  0.81686762  0.05796615  1
  Zn  Zn153  1  0.08019225  0.81464122  0.56188390  1
  Zn  Zn154  1  0.56424177  0.31696392  0.06143735  1
  Zn  Zn155  1  0.55397898  0.30712905  0.56627491  1
  Zn  Zn156  1  0.56309152  0.81423056  0.06231754  1
  Zn  Zn157  1  0.56413043  0.80891926  0.56461186  1
  O  O158  1  0.13141182  0.13026097  0.11294497  1
  O  O159  1  0.10648752  0.13510906  0.61500811  1
  O  O160  1  0.10282712  0.64519020  0.12465685  1
  O  O161  1  0.11535014  0.61392348  0.60869304  1
  O  O162  1  0.61811521  0.12101698  0.11930238  1
  O  O163  1  0.62905258  0.12380838  0.61282848  1
  O  O164  1  0.61982788  0.62227140  0.11251151  1
  O  O165  1  0.63121446  0.61303344  0.61141900  1
  O  O166  1  0.37265724  0.37670262  0.39269138  1
  O  O167  1  0.36123620  0.39072984  0.88758798  1
  O  O168  1  0.38397820  0.88444372  0.37883214  1
  O  O169  1  0.38696989  0.87884734  0.88725487  1
  O  O170  1  0.85889410  0.38331088  0.38385835  1
  O  O171  1  0.87697002  0.37978264  0.83930038  1
  O  O172  1  0.85986255  0.87824236  0.38671789  1
  O  O173  1  0.88753140  0.87240344  0.88393141  1
  O  O174  1  0.26298647  -0.00470575  0.36337675  1
  O  O175  1  0.24768523  0.01357820  0.87630633  1
  O  O176  1  0.25148432  0.49134265  0.36598129  1
  O  O177  1  0.25176012  0.52319088  0.88107024  1
  O  O178  1  0.75154674  0.01872233  0.37975620  1
  O  O179  1  0.74636867  0.01332533  0.86634128  1
  O  O180  1  0.75644841  0.51167980  0.37618401  1
  O  O181  1  0.74894621  0.51151570  0.86056813  1
  O  O182  1  0.24944341  0.49007316  0.12922318  1
  O  O183  1  0.23036557  0.48925224  0.62249467  1
  O  O184  1  0.25240169  0.98938011  0.13733239  1
  O  O185  1  0.17680073  0.99340774  0.67628641  1
  O  O186  1  0.73597367  0.50192531  0.11702272  1
  O  O187  1  0.74020861  0.49022989  0.62855861  1
  O  O188  1  0.73764268  0.99410303  0.11569116  1
  O  O189  1  0.74797405  0.98965694  0.63043278  1
  O  O190  1  -0.00340916  0.36608720  0.25278250  1
  O  O191  1  -0.05139976  0.38766702  0.78837552  1
  O  O192  1  0.00557603  0.86509337  0.24937943  1
  O  O193  1  -0.01374473  0.87336362  0.76186255  1
  O  O194  1  0.50461232  0.36509556  0.24410271  1
  O  O195  1  0.51064654  0.36477436  0.74171448  1
  O  O196  1  0.50306149  0.87179404  0.25279466  1
  O  O197  1  0.51315520  0.87590225  0.75849608  1
  O  O198  1  0.49571797  0.13266749  0.24170989  1
  O  O199  1  0.49564112  0.13219194  0.74868609  1
  O  O200  1  0.51739797  0.64235663  0.23439416  1
  O  O201  1  0.49432075  0.62864525  0.75881349  1
  O  O202  1  0.98261401  0.13303423  0.25423129  1
  O  O203  1  0.99149297  0.11808307  0.73490359  1
  O  O204  1  0.97797195  0.64273927  0.23396813  1
  O  O205  1  0.98691395  0.62696872  0.73833385  1
  O  O206  1  0.38256664  0.26763173  -0.00960342  1
  O  O207  1  0.37470852  0.25900902  0.49872927  1
  O  O208  1  0.35923815  0.76190710  -0.00953282  1
  O  O209  1  0.38230547  0.77893647  0.49104236  1
  O  O210  1  0.87063591  0.23506392  0.01532820  1
  O  O211  1  0.86399965  0.25627455  0.50425199  1
  O  O212  1  0.86407291  0.76438821  0.00609878  1
  O  O213  1  0.85838768  0.74739850  0.49856229  1
  O  O214  1  0.10857271  0.23670254  0.48499090  1
  O  O215  1  0.12956682  0.23546026  0.99582851  1
  O  O216  1  0.11427285  0.73514517  0.47847735  1
  O  O217  1  0.14006988  0.75927253  0.98705565  1
  O  O218  1  0.63304164  0.24265289  0.50496093  1
  O  O219  1  0.63299535  0.24879635  0.99198151  1
  O  O220  1  0.63152022  0.73265980  0.50510751  1
  O  O221  1  0.63513400  0.74335815  1.00538018  1
  O  O222  1  0.50320009  0.23839134  0.12790180  1
  O  O223  1  0.49893949  0.24003235  0.64148858  1
  O  O224  1  0.50082910  0.74637062  0.12928291  1
  O  O225  1  0.47900272  0.74340294  0.60988929  1
  O  O226  1  0.99077197  0.25219812  0.13765106  1
  O  O227  1  0.98596756  0.24054329  0.61498982  1
  O  O228  1  0.98336352  0.75421396  0.12686082  1
  O  O229  1  1.00545111  0.73334557  0.61726522  1
  O  O230  1  -0.00399976  0.25139384  0.36371643  1
  O  O231  1  0.01602690  0.25431385  0.88356033  1
  O  O232  1  -0.00801336  0.74565519  0.36519206  1
  O  O233  1  0.01055080  0.75358653  0.87647077  1
  O  O234  1  0.50212116  0.25360018  0.35991737  1
  O  O235  1  0.51518167  0.24192007  0.86303603  1
  O  O236  1  0.50343267  0.76644371  0.36452034  1
  O  O237  1  0.49789379  0.76143796  0.88332939  1
  O  O238  1  0.22574683  0.12493357  0.50376971  1
  O  O239  1  0.24360318  0.12565472  0.99261244  1
  O  O240  1  0.22322011  0.61152133  0.49831906  1
  O  O241  1  0.25507997  0.64181119  0.99718181  1
  O  O242  1  0.74320387  0.13168478  0.49316599  1
  O  O243  1  0.74627791  0.13268471  0.99089694  1
  O  O244  1  0.74304263  0.63068430  0.49203897  1
  O  O245  1  0.74433281  0.63677692  0.99069092  1
  O  O246  1  0.26676879  0.37105599  0.01229461  1
  O  O247  1  0.25852443  0.37214329  0.51064756  1
  O  O248  1  0.25660829  0.87410184  0.00540742  1
  O  O249  1  0.25704648  0.88456084  0.49227033  1
  O  O250  1  0.76565099  0.35934260  -0.01584513  1
  O  O251  1  0.75170071  0.36969241  0.50507654  1
  O  O252  1  0.75347151  0.87425700  0.00345434  1
  O  O253  1  0.73482784  0.86361529  0.51023884  1
  O  O254  1  0.11220081  0.50664026  0.22712331  1
  O  O255  1  0.11406341  0.50499089  0.73112085  1
  O  O256  1  0.13592884  0.98933963  0.26615425  1
  O  O257  1  0.13406285  0.98508329  0.73709467  1
  O  O258  1  0.61123730  0.48687163  0.23550662  1
  O  O259  1  0.63119789  0.49363389  0.74311780  1
  O  O260  1  0.61476542  0.99431320  0.23521459  1
  O  O261  1  0.63447942  0.99724375  0.75110620  1
  O  O262  1  0.37003793  0.00718975  0.25649565  1
  O  O263  1  0.35157297  -0.03439344  0.74928645  1
  O  O264  1  0.40750553  0.52486471  0.26018621  1
  O  O265  1  0.38289615  0.50845484  0.76518519  1
  O  O266  1  0.87222069  0.01503272  0.24919505  1
  O  O267  1  0.85991306  0.01377094  0.74344905  1
  O  O268  1  0.88291621  0.51527628  0.25887032  1
  O  O269  1  0.85726560  0.51604376  0.73763994  1
  O  O270  1  0.11945496  0.35930475  0.38670943  1
  O  O271  1  0.14217797  0.35686357  0.88722319  1
  O  O272  1  0.12767991  0.86091327  0.36564072  1
  O  O273  1  0.11052113  0.86776257  0.87612047  1
  O  O274  1  0.62311873  0.38250511  0.35698139  1
  O  O275  1  0.63215772  0.36234234  0.86033307  1
  O  O276  1  0.61834785  0.88915796  0.35882249  1
  O  O277  1  0.61891746  0.87889510  0.86291347  1
  O  O278  1  0.38566364  0.11566097  0.13459449  1
  O  O279  1  0.35487971  0.11236697  0.62004425  1
  O  O280  1  0.39088804  0.62309253  0.11761721  1
  O  O281  1  0.38949935  0.59946808  0.64292138  1
  O  O282  1  0.86158311  0.13871873  0.14403631  1
  O  O283  1  0.88112833  0.13009516  0.62652775  1
  O  O284  1  0.86746885  0.64180717  0.13010514  1
  O  O285  1  0.88183248  0.62035273  0.62687880  1
  O  O286  1  0.25498259  0.26014387  0.12770251  1
  O  O287  1  0.23268808  0.26418540  0.62217929  1
  O  O288  1  0.24783091  0.76215618  0.10865011  1
  O  O289  1  0.29952817  0.70540674  0.59390372  1
  O  O290  1  0.75447270  0.25516707  0.11140050  1
  O  O291  1  0.75537745  0.25858440  0.61494489  1
  O  O292  1  0.75415995  0.76365946  0.11389295  1
  O  O293  1  0.74456508  0.75807635  0.61616486  1
  O  O294  1  0.22845877  0.24672826  0.36710864  1
  O  O295  1  0.24450964  0.23564076  0.88034232  1
  O  O296  1  0.24080445  0.75124080  0.37249482  1
  O  O297  1  0.24318367  0.74455284  0.87664564  1
  O  O298  1  0.75315127  0.24016903  0.38604796  1
  O  O299  1  0.74265694  0.23870664  0.87757514  1
  O  O300  1  0.74295175  0.73876008  0.38446845  1
  O  O301  1  0.75389902  0.74740418  0.88407997  1
  O  O302  1  0.01508385  0.11721485  -0.00466663  1
  O  O303  1  -0.00081995  0.11510878  0.50765795  1
  O  O304  1  -0.01178433  0.63608368  0.01495519  1
  O  O305  1  0.00012997  0.61340911  0.50139556  1
  O  O306  1  0.50282698  0.12050617  0.00408554  1
  O  O307  1  0.50674794  0.11739623  0.50301533  1
  O  O308  1  0.50637133  0.62549997  0.00223042  1
  O  O309  1  0.51508112  0.62546553  0.49559591  1
  O  O310  1  0.48612291  0.37147830  0.50491740  1
  O  O311  1  0.48905053  0.38887293  1.00675803  1
  O  O312  1  0.51304480  0.88387818  0.48874900  1
  O  O313  1  0.49657848  0.88258752  0.99602601  1
  O  O314  1  0.98214980  0.38153853  0.50442182  1
  O  O315  1  0.99759704  0.37770989  1.00264982  1
  O  O316  1  1.00797812  0.89064470  0.51391318  1
  O  O317  1  0.99337357  0.88195005  0.98833522  1
  O  O318  1  0.49178231  0.48969571  0.38730076  1
  O  O319  1  0.48789004  0.50932390  0.88675005  1
  O  O320  1  0.49281013  0.99222470  0.37863059  1
  O  O321  1  0.49897601  0.99737720  0.88588011  1
  O  O322  1  0.97982386  0.49990725  0.38193214  1
  O  O323  1  1.04433092  0.49264119  0.89398054  1
  O  O324  1  0.99336151  1.00203851  0.38653292  1
  O  O325  1  1.00770106  0.99012118  0.86655960  1
  O  O326  1  0.01817789  -0.00859881  0.14021545  1
  O  O327  1  -0.00341879  0.01298084  0.61691891  1
  O  O328  1  -0.00549424  0.52510652  0.12775664  1
  O  O329  1  0.00388471  0.50468291  0.61089240  1
  O  O330  1  0.50704136  0.00915062  0.11461281  1
  O  O331  1  0.49410491  0.00032585  0.61188897  1
  O  O332  1  0.50871657  0.51338029  0.11267266  1
  O  O333  1  0.51336439  0.49075078  0.62610791  1
  O  O334  1  0.27205677  0.37201999  0.23879024  1
  O  O335  1  0.24834592  0.37382456  0.73765790  1
  O  O336  1  0.24484157  0.88057154  0.24263940  1
  O  O337  1  0.29236826  0.90137787  0.74828822  1
  O  O338  1  0.73440974  0.37058339  0.24520794  1
  O  O339  1  0.74026873  0.38080241  0.73814579  1
  O  O340  1  0.74045580  0.87204767  0.23487083  1
  O  O341  1  0.74051562  0.88132985  0.74528585  1
  O  O342  1  0.25966312  0.11425445  0.24169576  1
  O  O343  1  0.24004635  0.12475823  0.76159917  1
  O  O344  1  0.24610795  0.63352339  0.24246087  1
  O  O345  1  0.24960309  0.63281732  0.75182919  1
  O  O346  1  0.74997789  0.13582607  0.26244697  1
  O  O347  1  0.75256185  0.11965229  0.75338187  1
  O  O348  1  0.75528818  0.63702594  0.25517707  1
  O  O349  1  0.75010872  0.62159562  0.75254985  1
  O  O350  1  0.38489041  0.11394345  0.36460678  1
  O  O351  1  0.36019314  0.11913538  0.87587772  1
  O  O352  1  0.36603419  0.61404442  0.42251811  1
  O  O353  1  0.36141191  0.62418725  0.86159307  1
  O  O354  1  0.86167187  0.12659256  0.36236482  1
  O  O355  1  0.86600695  0.13550917  0.86237114  1
  O  O356  1  0.86004051  0.61992359  0.36632300  1
  O  O357  1  0.86099590  0.63223961  0.86072593  1
  O  O358  1  0.14683917  0.37595460  0.12730769  1
  O  O359  1  0.12722355  0.38689388  0.61675000  1
  O  O360  1  0.13496391  0.86517390  0.13888304  1
  O  O361  1  0.16480343  0.80548943  0.63102471  1
  O  O362  1  0.62899581  0.38610691  0.12708411  1
  O  O363  1  0.63215366  0.37885844  0.62913459  1
  O  O364  1  0.62970316  0.88631407  0.12761037  1
  O  O365  1  0.62893835  0.86924608  0.64302191  1
  O  O366  1  0.10680913  0.24374371  0.26229090  1
  O  O367  1  0.12000324  0.24923012  0.76985179  1
  O  O368  1  0.11245211  0.75734700  0.26269739  1
  O  O369  1  0.11905400  0.75095637  0.76449088  1
  O  O370  1  0.61485647  0.26692478  0.23881862  1
  O  O371  1  0.62034462  0.25583682  0.75372702  1
  O  O372  1  0.61557233  0.76877374  0.24092127  1
  O  O373  1  0.62867148  0.75847958  0.75587295  1
  O  O374  1  0.38250670  0.23618974  0.25624294  1
  O  O375  1  0.39190097  0.25810286  0.76377238  1
  O  O376  1  0.39009080  0.74083660  0.25702160  1
  O  O377  1  0.37282272  0.73751840  0.73307340  1
  O  O378  1  0.88282921  0.24610964  0.24333693  1
  O  O379  1  0.86425285  0.23346477  0.73191805  1
  O  O380  1  0.87313856  0.75061581  0.24137429  1
  O  O381  1  0.87404849  0.74156272  0.74577282  1
  O  O382  1  0.37547250  0.47946697  0.51314697  1
  O  O383  1  0.38096244  0.49740851  0.99119736  1
  O  O384  1  0.38895241  0.98512656  0.48853883  1
  O  O385  1  0.38476923  0.99104132  1.00117024  1
  O  O386  1  0.87409375  0.49232357  0.49162209  1
  O  O387  1  0.87950705  0.51280221  0.98936691  1
  O  O388  1  0.88834991  0.99860527  0.49916635  1
  O  O389  1  0.87734985  0.99183578  1.00814978  1
  O  O390  1  0.12769651  0.01360798  -0.00020591  1
  O  O391  1  0.10983432  0.01406340  0.49218077  1
  O  O392  1  0.12287137  0.50626485  0.03270513  1
  O  O393  1  0.10955391  0.50678427  0.49283392  1
  O  O394  1  0.61561907  0.00741577  0.00658445  1
  O  O395  1  0.61521793  0.01055425  0.49349124  1
  O  O396  1  0.61431842  0.51519103  0.00553590  1
  O  O397  1  0.62421805  0.50800250  0.50837310  1
  O  O398  1  0.37143134  0.38299230  0.11305342  1
  O  O399  1  0.35498933  0.37198579  0.62278694  1
  O  O400  1  0.36603198  0.87820743  0.11540713  1
  O  O401  1  0.37165522  0.86862014  0.60980933  1
  O  O402  1  0.87001732  0.35589167  0.12774556  1
  O  O403  1  0.86437573  0.36958207  0.61608002  1
  O  O404  1  0.86473385  0.87273197  0.11825643  1
  O  O405  1  0.85851224  0.87637771  0.61810324  1
  O  O406  1  0.11642881  0.13179565  0.38322296  1
  O  O407  1  0.13543180  0.13395566  0.88357762  1
  O  O408  1  0.12352724  0.63410200  0.37552888  1
  O  O409  1  0.13635212  0.63889309  0.86931491  1
  O  O410  1  0.63471919  0.12528029  0.38122259  1
  O  O411  1  0.63451365  0.13342215  0.87952098  1
  O  O412  1  0.63201337  0.61309746  0.38767611  1
  O  O413  1  0.63724149  0.62292309  0.88371610  1
