# generated using pymatgen
data_V79Zn79O256
_symmetry_space_group_name_H-M   'P 1'
_cell_length_a   16.92343652
_cell_length_b   16.92311590
_cell_length_c   16.89060091
_cell_angle_alpha   90.07171875
_cell_angle_beta   89.74106624
_cell_angle_gamma   89.79384881
_symmetry_Int_Tables_number   1
_chemical_formula_structural   V79Zn79O256
_chemical_formula_sum   'V79 Zn79 O256'
_cell_volume   4837.33751882
_cell_formula_units_Z   1
loop_
 _symmetry_equiv_pos_site_id
 _symmetry_equiv_pos_as_xyz
  1  'x, y, z'
loop_
 _atom_site_type_symbol
 _atom_site_label
 _atom_site_symmetry_multiplicity
 _atom_site_fract_x
 _atom_site_fract_y
 _atom_site_fract_z
 _atom_site_occupancy
  V  V0  1  0.62569403  0.87032586  0.25291555  1
  V  V1  1  0.86972015  0.25451922  0.12692549  1
  V  V2  1  0.39837539  0.51228276  0.87782532  1
  V  V3  1  0.12404895  0.37933400  0.25573649  1
  V  V4  1  0.25451656  0.25289150  -0.00092522  1
  V  V5  1  0.64407192  0.63468399  -0.00076204  1
  V  V6  1  0.01571989  0.62313784  0.12304272  1
  V  V7  1  0.75106914  0.25271475  0.00191824  1
  V  V8  1  0.87407126  0.37938279  0.00510669  1
  V  V9  1  0.12416653  0.86816864  0.25885355  1
  V  V10  1  0.25136963  0.00315302  0.74425442  1
  V  V11  1  0.37190744  0.86854976  0.51950655  1
  V  V12  1  -0.01464918  0.74544847  0.75225352  1
  V  V13  1  0.87695427  0.12536022  0.25226636  1
  V  V14  1  0.25600064  0.25435133  0.51228310  1
  V  V15  1  0.37498386  0.37106328  0.51226603  1
  V  V16  1  0.75262962  -0.00067609  0.25516814  1
  V  V17  1  0.37351599  -0.01059217  0.87853367  1
  V  V18  1  -0.01401289  0.62455452  0.62925329  1
  V  V19  1  0.49105862  0.50513732  0.50818126  1
  V  V20  1  0.37530208  0.74297413  0.12690208  1
  V  V21  1  0.25240237  0.87076412  0.11946321  1
  V  V22  1  0.62888583  0.25776916  0.35650768  1
  V  V23  1  0.62185973  0.36416216  0.77668518  1
  V  V24  1  0.25538111  0.50121515  0.76372805  1
  V  V25  1  0.74376325  0.25368460  0.50951385  1
  V  V26  1  0.75673432  0.62294832  0.36467696  1
  V  V27  1  0.87697501  0.49494288  0.37102170  1
  V  V28  1  0.00130586  0.37714908  0.87319874  1
  V  V29  1  0.75509876  0.49982308  0.75513010  1
  V  V30  1  0.73504300  0.00367321  0.74640930  1
  V  V31  1  0.76286964  0.87178226  0.11792798  1
  V  V32  1  0.50126014  0.37220594  0.36021289  1
  V  V33  1  0.12290516  0.25497185  0.87007281  1
  V  V34  1  0.00034473  0.49450921  0.49522594  1
  V  V35  1  0.87374427  0.87274505  0.51340485  1
  V  V36  1  0.25321719  0.00169487  0.24793870  1
  V  V37  1  0.75148802  0.13158119  0.88107158  1
  V  V38  1  0.74989963  0.48280596  0.24526265  1
  V  V39  1  0.38660887  0.37924473  -0.00848593  1
  V  V40  1  0.13282089  0.63707703  0.50602278  1
  V  V41  1  0.88096692  -0.00337374  0.87616293  1
  V  V42  1  0.12541472  -0.00222929  0.12331926  1
  V  V43  1  0.50466718  0.62285758  0.11671328  1
  V  V44  1  0.75149466  0.74590489  0.51337120  1
  V  V45  1  0.25147564  0.12621532  0.87057671  1
  V  V46  1  0.62526688  0.74437890  0.37463930  1
  V  V47  1  -0.00279997  -0.00779420  -0.00040220  1
  V  V48  1  0.37552395  -0.00863051  0.38001916  1
  V  V49  1  0.13204600  0.48491560  0.62837735  1
  V  V50  1  0.87690767  0.74410349  0.11660653  1
  V  V51  1  0.25346497  0.12810477  0.37040516  1
  V  V52  1  0.24648950  0.50397464  0.24726555  1
  V  V53  1  0.01390413  0.50329669  0.00459690  1
  V  V54  1  0.62430079  0.62000532  0.50220149  1
  V  V55  1  0.63081978  0.77906678  0.87465556  1
  V  V56  1  0.00500683  0.25554525  0.25454567  1
  V  V57  1  0.87655532  0.13015993  0.74450042  1
  V  V58  1  0.37406048  0.50124965  0.36851280  1
  V  V59  1  0.12874924  0.73467861  0.87830539  1
  V  V60  1  0.87245483  0.36988285  0.51127432  1
  V  V61  1  0.49954256  0.73963920  0.25124880  1
  V  V62  1  0.11898402  0.12268009  0.49996137  1
  V  V63  1  0.13719608  0.86044950  0.73921062  1
  V  V64  1  -0.00445656  0.74441922  0.26169173  1
  V  V65  1  0.74678207  0.12550941  0.38069356  1
  V  V66  1  0.62707542  0.48948689  0.12338496  1
  V  V67  1  0.88332466  -0.00390931  0.38119590  1
  V  V68  1  0.50128788  0.76674543  0.75332061  1
  V  V69  1  0.25049511  0.63619120  0.37738279  1
  V  V70  1  0.61653535  -0.00306351  0.12723756  1
  V  V71  1  0.24846751  0.37928314  0.12281540  1
  V  V72  1  0.00210481  0.12582914  0.12550575  1
  V  V73  1  -0.00469353  0.25256315  0.74462630  1
  V  V74  1  0.12430248  0.12552878  0.00007513  1
  V  V75  1  0.61370455  0.12647009  0.00680492  1
  V  V76  1  0.11423596  -0.00076710  0.62376582  1
  V  V77  1  0.24835738  0.73584532  -0.00560692  1
  V  V78  1  0.63151360  0.47910113  0.62336069  1
  Zn  Zn79  1  0.72053929  0.86831014  0.63934375  1
  Zn  Zn80  1  0.00497212  0.87259566  0.38580094  1
  Zn  Zn81  1  0.53905759  -0.05081807  -0.05763606  1
  Zn  Zn82  1  0.49876757  0.87005719  0.38007877  1
  Zn  Zn83  1  0.48264857  0.63084109  0.65146644  1
  Zn  Zn84  1  -0.00665592  0.12758064  0.61824742  1
  Zn  Zn85  1  0.39105898  0.22976599  0.14434210  1
  Zn  Zn86  1  0.00146814  0.87037251  0.87563622  1
  Zn  Zn87  1  0.76029053  0.64031742  -0.13518102  1
  Zn  Zn88  1  0.48020975  0.24913748  0.73148922  1
  Zn  Zn89  1  0.12417987  0.25435319  0.37879914  1
  Zn  Zn90  1  0.24014433  0.78793847  0.57157845  1
  Zn  Zn91  1  0.38381517  0.86954325  -0.00403276  1
  Zn  Zn92  1  0.87770160  0.51092119  0.87650722  1
  Zn  Zn93  1  0.59671671  0.01086057  0.56465715  1
  Zn  Zn94  1  0.19336050  0.19097123  0.18478160  1
  Zn  Zn95  1  0.18218717  0.18844086  0.68674679  1
  Zn  Zn96  1  0.18757510  0.68845542  0.19179131  1
  Zn  Zn97  1  0.18127507  0.67027647  0.69853512  1
  Zn  Zn98  1  0.57061102  0.18192114  0.19088794  1
  Zn  Zn99  1  0.68331745  0.18541182  0.69088901  1
  Zn  Zn100  1  0.69366637  0.68402581  0.18525929  1
  Zn  Zn101  1  0.65628588  0.67865402  0.69986807  1
  Zn  Zn102  1  0.30891062  0.31678200  0.31546325  1
  Zn  Zn103  1  0.31016816  0.32794193  0.80390997  1
  Zn  Zn104  1  0.31447713  0.81348427  0.30780935  1
  Zn  Zn105  1  0.30217029  0.79197112  0.78033096  1
  Zn  Zn106  1  0.81762427  0.31323405  0.31630400  1
  Zn  Zn107  1  0.81135382  0.31910461  0.81258042  1
  Zn  Zn108  1  0.81576016  0.81160476  0.31671875  1
  Zn  Zn109  1  0.80670880  0.82007679  0.81380331  1
  Zn  Zn110  1  0.18941582  0.44087668  0.43998627  1
  Zn  Zn111  1  0.19079589  0.43991841  0.93374035  1
  Zn  Zn112  1  0.19022923  0.93541572  0.44007173  1
  Zn  Zn113  1  0.18517938  0.92890092  0.93045542  1
  Zn  Zn114  1  0.68845635  0.43431604  0.43508643  1
  Zn  Zn115  1  0.68807732  0.44240726  0.94153306  1
  Zn  Zn116  1  0.68232151  0.92766923  0.45282201  1
  Zn  Zn117  1  0.70735993  0.94855436  0.94452353  1
  Zn  Zn118  1  0.31473788  0.06294798  0.05669295  1
  Zn  Zn119  1  0.29932085  0.05362393  0.55175706  1
  Zn  Zn120  1  0.31638954  0.56105555  0.06003936  1
  Zn  Zn121  1  0.30297472  0.57232683  0.59589938  1
  Zn  Zn122  1  0.81422267  0.06343833  0.06789703  1
  Zn  Zn123  1  0.81026478  0.06168051  0.56361106  1
  Zn  Zn124  1  0.81885030  0.56292679  0.06846716  1
  Zn  Zn125  1  0.80757669  0.55743881  0.56081963  1
  Zn  Zn126  1  0.43515512  0.43716451  0.17914789  1
  Zn  Zn127  1  0.44292618  0.43449833  0.69741723  1
  Zn  Zn128  1  0.43995043  1.05411329  0.19630861  1
  Zn  Zn129  1  0.43978832  0.94434067  0.70218158  1
  Zn  Zn130  1  0.93932651  0.44124495  0.18841393  1
  Zn  Zn131  1  0.93883342  0.43703910  0.68524166  1
  Zn  Zn132  1  0.94158570  0.93488903  0.19205539  1
  Zn  Zn133  1  0.93548362  0.93564238  0.69293797  1
  Zn  Zn134  1  0.06660925  0.06262554  0.31249222  1
  Zn  Zn135  1  0.06485727  0.06332702  0.80968992  1
  Zn  Zn136  1  0.06726392  0.56781411  0.31654783  1
  Zn  Zn137  1  0.06123056  0.55805290  0.80992467  1
  Zn  Zn138  1  0.57262388  0.05269511  0.34913614  1
  Zn  Zn139  1  0.55631948  0.08537683  0.81908284  1
  Zn  Zn140  1  0.56570983  0.55744305  0.31193781  1
  Zn  Zn141  1  0.57381367  0.56293044  0.81549146  1
  Zn  Zn142  1  0.43674242  0.18559531  0.32145272  1
  Zn  Zn143  1  0.42258758  0.20838314  0.88627377  1
  Zn  Zn144  1  0.41156429  0.67259126  0.48251581  1
  Zn  Zn145  1  0.44697381  0.69568984  0.93588090  1
  Zn  Zn146  1  0.93414330  0.19022963  0.43546274  1
  Zn  Zn147  1  0.93685566  0.18668747  0.93697609  1
  Zn  Zn148  1  0.93387127  0.68326824  0.44498304  1
  Zn  Zn149  1  0.93682327  0.68604133  0.94006878  1
  Zn  Zn150  1  0.06370555  0.31585002  0.06483963  1
  Zn  Zn151  1  0.06160809  0.31060135  0.55843698  1
  Zn  Zn152  1  0.06471217  0.80896431  0.06553421  1
  Zn  Zn153  1  0.05332440  0.81128635  0.56983822  1
  Zn  Zn154  1  0.56112287  0.30853555  0.06073909  1
  Zn  Zn155  1  0.55749066  0.30393077  0.55449689  1
  Zn  Zn156  1  0.56717319  0.81121866  0.06656617  1
  Zn  Zn157  1  0.55641553  0.81651467  0.56478027  1
  O  O158  1  0.12258749  0.11933966  0.11932995  1
  O  O159  1  0.11969722  0.11803202  0.61722924  1
  O  O160  1  0.11454130  0.63036236  0.12347459  1
  O  O161  1  0.11833373  0.61162432  0.61421595  1
  O  O162  1  0.62906447  0.11082844  0.11598850  1
  O  O163  1  0.60296221  0.11728354  0.63320995  1
  O  O164  1  0.62316091  0.62539883  0.11630091  1
  O  O165  1  0.62184802  0.61291837  0.60644153  1
  O  O166  1  0.38714322  0.37953647  0.37890719  1
  O  O167  1  0.36721953  0.39181844  0.88778245  1
  O  O168  1  0.36809022  0.88161619  0.38110955  1
  O  O169  1  0.36504867  0.88936836  0.86744100  1
  O  O170  1  0.87426674  0.38917922  0.38402111  1
  O  O171  1  0.88649605  0.37829014  0.88808622  1
  O  O172  1  0.87933526  0.88237136  0.38301093  1
  O  O173  1  0.88066805  0.89207787  0.86884132  1
  O  O174  1  0.25319769  0.00561278  0.36693407  1
  O  O175  1  0.24878031  0.00803104  0.86745959  1
  O  O176  1  0.25682419  0.50360987  0.36713887  1
  O  O177  1  0.24580337  0.51335288  0.86490188  1
  O  O178  1  0.76093955  0.00576080  0.37019218  1
  O  O179  1  0.76417864  0.01119158  0.86893930  1
  O  O180  1  0.75404354  0.50300286  0.36424992  1
  O  O181  1  0.75333621  0.50161785  0.86417383  1
  O  O182  1  0.25866767  0.49534940  0.13747683  1
  O  O183  1  0.23041854  0.48437267  0.60565998  1
  O  O184  1  0.24454254  0.98980580  0.12879754  1
  O  O185  1  0.24051593  1.01032423  0.63963309  1
  O  O186  1  0.74579832  0.50244419  0.13862687  1
  O  O187  1  0.73642876  0.50015956  0.63157550  1
  O  O188  1  0.75114009  0.98887649  0.13633825  1
  O  O189  1  0.73883716  1.01593860  0.64250651  1
  O  O190  1  0.01309355  0.36840556  0.24017586  1
  O  O191  1  -0.01036212  0.36848076  0.76415352  1
  O  O192  1  0.00829993  0.86258678  0.25288099  1
  O  O193  1  0.00865896  0.85589870  0.74410073  1
  O  O194  1  0.49653354  0.38162364  0.26193821  1
  O  O195  1  0.51920062  0.36746658  0.74930612  1
  O  O196  1  0.52042887  0.85821800  0.25409601  1
  O  O197  1  0.50431921  0.86816996  0.75345645  1
  O  O198  1  0.51160773  0.11491883  0.26671368  1
  O  O199  1  0.53460070  0.09617941  0.67772054  1
  O  O200  1  0.51186844  0.63426169  0.24042664  1
  O  O201  1  0.54029949  0.64385995  0.74561337  1
  O  O202  1  0.99795643  0.13276040  0.24472587  1
  O  O203  1  0.99210266  0.13553113  0.75256552  1
  O  O204  1  1.00860201  0.63703410  0.24139077  1
  O  O205  1  0.99887625  0.62957144  0.73893654  1
  O  O206  1  0.36262814  0.26290927  -0.01970721  1
  O  O207  1  0.36298021  0.26347692  0.49960572  1
  O  O208  1  0.36637769  0.75098638  0.00561241  1
  O  O209  1  0.35498670  0.76310833  0.52139378  1
  O  O210  1  0.87418277  0.25770886  0.00809582  1
  O  O211  1  0.86690405  0.26392693  0.49319701  1
  O  O212  1  0.88587855  0.75708723  0.01814594  1
  O  O213  1  0.86337265  0.75731442  0.50002581  1
  O  O214  1  0.13584743  0.24540786  0.49829208  1
  O  O215  1  0.13184292  0.24642392  0.99337132  1
  O  O216  1  0.13451729  0.73960786  0.51969948  1
  O  O217  1  0.12906041  0.75398566  0.98460731  1
  O  O218  1  0.64157628  0.25948847  0.48728144  1
  O  O219  1  0.64096949  0.23655214  1.01265723  1
  O  O220  1  0.63041517  0.73868597  0.48995694  1
  O  O221  1  0.62749119  0.74166956  0.99111509  1
  O  O222  1  0.50175877  0.25224140  0.13567453  1
  O  O223  1  0.49054710  0.25188125  0.62230637  1
  O  O224  1  0.49529265  0.74223256  0.13236585  1
  O  O225  1  0.51284661  0.75027628  0.64483242  1
  O  O226  1  0.99506855  0.24472467  0.13270408  1
  O  O227  1  1.00469560  0.25066316  0.64108777  1
  O  O228  1  0.99463710  0.74156032  0.13184574  1
  O  O229  1  1.00146401  0.73378359  0.63865982  1
  O  O230  1  0.00201050  0.24738129  0.35848904  1
  O  O231  1  0.00553650  0.25766350  0.87189299  1
  O  O232  1  -0.00474323  0.74430803  0.36466105  1
  O  O233  1  0.00629665  0.74852422  0.86728090  1
  O  O234  1  0.51476369  0.26204606  0.37313345  1
  O  O235  1  0.51517029  0.18882754  0.82332521  1
  O  O236  1  0.51574003  0.74378295  0.36621158  1
  O  O237  1  0.52449083  0.75013848  0.86973385  1
  O  O238  1  0.24244199  0.13624747  0.49283730  1
  O  O239  1  0.24228129  0.13517483  0.99344149  1
  O  O240  1  0.23814606  0.62095550  0.49917730  1
  O  O241  1  0.24889612  0.63688156  1.00581903  1
  O  O242  1  0.76149790  0.13997636  0.48896639  1
  O  O243  1  0.75717283  0.13479720  0.99696984  1
  O  O244  1  0.74279272  0.62772613  0.49199623  1
  O  O245  1  0.74495695  0.63083183  1.00952196  1
  O  O246  1  0.25141070  0.37033248  0.00513715  1
  O  O247  1  0.25985343  0.36380495  0.49313180  1
  O  O248  1  0.24524487  0.86242592  0.00813185  1
  O  O249  1  0.26071950  0.88025690  0.50804797  1
  O  O250  1  0.76333492  0.36579510  -0.00603675  1
  O  O251  1  0.76126038  0.36629161  0.49641052  1
  O  O252  1  0.75691144  0.87857244  0.01918006  1
  O  O253  1  0.76282555  0.85996190  0.49621036  1
  O  O254  1  0.13543789  0.49409063  0.25581153  1
  O  O255  1  0.13810347  0.51018998  0.73601872  1
  O  O256  1  0.13068153  0.98997321  0.24277864  1
  O  O257  1  0.12927678  0.98940958  0.74257627  1
  O  O258  1  0.64040687  0.50267839  0.23990069  1
  O  O259  1  0.62727724  0.48240712  0.73730434  1
  O  O260  1  0.63759044  0.98920991  0.24987531  1
  O  O261  1  0.63853471  1.01364443  0.76942993  1
  O  O262  1  0.35785382  -0.00837664  0.25875959  1
  O  O263  1  0.35638724  0.00558567  0.75748943  1
  O  O264  1  0.36624333  0.49641143  0.26059492  1
  O  O265  1  0.37240201  0.49558710  0.76914614  1
  O  O266  1  0.87079620  0.00296849  0.25805768  1
  O  O267  1  0.87275091  0.01209499  0.75867115  1
  O  O268  1  0.86307447  0.49505422  0.25734482  1
  O  O269  1  0.85797804  0.49474575  0.74617526  1
  O  O270  1  0.13305587  0.37341125  0.36085281  1
  O  O271  1  0.11354353  0.36624362  0.88146570  1
  O  O272  1  0.12163973  0.88181870  0.36510747  1
  O  O273  1  0.12120886  0.86321497  0.85729350  1
  O  O274  1  0.61294241  0.36975624  0.37574207  1
  O  O275  1  0.62158794  0.37552377  0.87679734  1
  O  O276  1  0.62887835  0.85878713  0.36943195  1
  O  O277  1  0.62894593  0.88037321  0.89129003  1
  O  O278  1  0.37592952  0.11745700  0.12911232  1
  O  O279  1  0.40234021  0.12575694  0.57928370  1
  O  O280  1  0.38666639  0.63499466  0.11900127  1
  O  O281  1  0.40833090  0.59925169  0.57649714  1
  O  O282  1  0.88236667  0.13294716  0.13355717  1
  O  O283  1  0.87663955  0.12089091  0.63874319  1
  O  O284  1  0.88252561  0.64039542  0.12786991  1
  O  O285  1  0.88788255  0.61934822  0.61712879  1
  O  O286  1  0.25647964  0.25797613  0.11171587  1
  O  O287  1  0.24817209  0.24552875  0.61186468  1
  O  O288  1  0.25514300  0.75040777  0.11970425  1
  O  O289  1  0.23193053  0.77213078  0.68264205  1
  O  O290  1  0.76833970  0.24875030  0.11681774  1
  O  O291  1  0.74273218  0.24049617  0.60786692  1
  O  O292  1  0.76596892  0.76112101  0.13474279  1
  O  O293  1  0.73119923  0.74912203  0.61499672  1
  O  O294  1  0.24785349  0.23970359  0.38315568  1
  O  O295  1  0.23795721  0.24720421  0.87962062  1
  O  O296  1  0.25542799  0.73471932  0.37196022  1
  O  O297  1  0.23649849  0.74927772  0.87612519  1
  O  O298  1  0.74462860  0.24665093  0.37729747  1
  O  O299  1  0.76141899  0.24120612  0.88880620  1
  O  O300  1  0.74464281  0.73959573  0.37990450  1
  O  O301  1  0.73606723  0.75568234  0.87542289  1
  O  O302  1  0.00647693  0.11893401  0.00587414  1
  O  O303  1  0.01358098  0.13734573  0.49945752  1
  O  O304  1  -0.00071328  0.61879792  0.01482526  1
  O  O305  1  0.01044791  0.62135715  0.51091410  1
  O  O306  1  0.51878899  0.13369870  -0.00577839  1
  O  O307  1  0.45564731  0.12857885  0.52842209  1
  O  O308  1  0.51515244  0.63041983  0.01290339  1
  O  O309  1  0.51586166  0.61090491  0.47739908  1
  O  O310  1  0.48900547  0.38355599  0.49202712  1
  O  O311  1  0.48465422  0.36686624  0.99655223  1
  O  O312  1  0.47708211  0.86152504  0.49294138  1
  O  O313  1  0.49598980  0.87145606  1.00652312  1
  O  O314  1  0.98817038  0.38387360  0.50114501  1
  O  O315  1  0.99468184  0.38212839  0.99564851  1
  O  O316  1  0.98062996  0.86270387  0.50063450  1
  O  O317  1  1.00784128  0.88901001  1.00008273  1
  O  O318  1  0.49517773  0.49044789  0.38008200  1
  O  O319  1  0.49686954  0.50050460  0.87322090  1
  O  O320  1  0.47668386  0.98916226  0.36506556  1
  O  O321  1  0.47898337  1.00782019  0.86462388  1
  O  O322  1  0.99198012  0.51147827  0.38648998  1
  O  O323  1  0.99985163  0.49316574  0.88311093  1
  O  O324  1  0.98703055  1.00108409  0.37183664  1
  O  O325  1  0.99716396  1.00100982  0.88256039  1
  O  O326  1  0.00432529  0.00490329  0.11975984  1
  O  O327  1  0.01044091  0.00339461  0.63157188  1
  O  O328  1  -0.00241853  0.51668885  0.12290947  1
  O  O329  1  0.00526484  0.50985232  0.61918773  1
  O  O330  1  0.51890353  -0.01149843  0.13782215  1
  O  O331  1  0.50940418  0.02190088  0.64582352  1
  O  O332  1  0.51711152  0.51016963  0.13617430  1
  O  O333  1  0.51478694  0.49339093  0.61752424  1
  O  O334  1  0.24466233  0.38419401  0.24234407  1
  O  O335  1  0.24996613  0.40088185  0.74585365  1
  O  O336  1  0.24117184  0.87824600  0.24212373  1
  O  O337  1  0.24285689  0.89594030  0.75893690  1
  O  O338  1  0.75017281  0.38403899  0.25234047  1
  O  O339  1  0.73664599  0.38817169  0.75785639  1
  O  O340  1  0.74593168  0.88128671  0.25007322  1
  O  O341  1  0.75340533  0.89779027  0.74611834  1
  O  O342  1  0.23763872  0.11210850  0.25786975  1
  O  O343  1  0.23492794  0.11416498  0.76017585  1
  O  O344  1  0.24021497  0.61790545  0.26793489  1
  O  O345  1  0.26822304  0.59531054  0.70962313  1
  O  O346  1  0.75927420  0.11111473  0.26219420  1
  O  O347  1  0.75711351  0.12257894  0.76132292  1
  O  O348  1  0.75227286  0.61892244  0.26111625  1
  O  O349  1  0.73086933  0.60444638  0.75156043  1
  O  O350  1  0.36165596  0.10717117  0.37690576  1
  O  O351  1  0.35373077  0.11167747  0.88365959  1
  O  O352  1  0.35815605  0.61412224  0.39132237  1
  O  O353  1  0.38488132  0.61157776  0.88717702  1
  O  O354  1  0.86859767  0.11826070  0.37152865  1
  O  O355  1  0.87041746  0.11870730  0.86808037  1
  O  O356  1  0.86481100  0.60921638  0.38699521  1
  O  O357  1  0.87025364  0.62351423  0.87860343  1
  O  O358  1  0.14076867  0.37256819  0.13319910  1
  O  O359  1  0.10908288  0.38791974  0.62830677  1
  O  O360  1  0.13302214  0.87712166  0.13326960  1
  O  O361  1  0.12192979  0.88242230  0.63072142  1
  O  O362  1  0.62380153  0.39171456  0.11438272  1
  O  O363  1  0.62974493  0.38079587  0.61454050  1
  O  O364  1  0.64283802  0.87571147  0.13471034  1
  O  O365  1  0.63061656  0.90022476  0.57891589  1
  O  O366  1  0.12036659  0.25861083  0.24907474  1
  O  O367  1  0.11390897  0.24602955  0.76315283  1
  O  O368  1  0.11339377  0.75945578  0.24716801  1
  O  O369  1  0.11116636  0.74642867  0.76276526  1
  O  O370  1  0.63365185  0.25774681  0.25822282  1
  O  O371  1  0.64080502  0.26622977  0.75684110  1
  O  O372  1  0.62615752  0.75131987  0.25593152  1
  O  O373  1  0.62906799  0.77115159  0.76804989  1
  O  O374  1  0.36588842  0.24230119  0.25549187  1
  O  O375  1  0.37770509  0.24588126  0.78336650  1
  O  O376  1  0.38766449  0.75253696  0.24025442  1
  O  O377  1  0.40303883  0.74417631  0.76706024  1
  O  O378  1  0.88410033  0.24806123  0.24510038  1
  O  O379  1  0.88287124  0.24207757  0.75954975  1
  O  O380  1  0.89197830  0.75540059  0.24389682  1
  O  O381  1  0.88692655  0.75534990  0.75783724  1
  O  O382  1  0.37845563  0.48364504  0.48415231  1
  O  O383  1  0.37594402  0.49074021  0.99123207  1
  O  O384  1  0.36750075  0.98890709  0.48598728  1
  O  O385  1  0.36321311  0.98957033  0.98329359  1
  O  O386  1  0.87932805  0.48920812  0.49527961  1
  O  O387  1  0.88487383  0.49124381  1.00447115  1
  O  O388  1  0.86447488  0.98478469  0.49395260  1
  O  O389  1  0.88712648  1.00956756  0.99143460  1
  O  O390  1  0.11921289  0.00524123  0.00301675  1
  O  O391  1  0.13452064  0.01128672  0.51133254  1
  O  O392  1  0.11296006  0.49435545  0.00060893  1
  O  O393  1  0.11377160  0.50204993  0.50652211  1
  O  O394  1  0.62595036  0.00778703  0.00862537  1
  O  O395  1  0.61507654  0.01692429  0.45384088  1
  O  O396  1  0.63766087  0.51450387  0.01831693  1
  O  O397  1  0.61924910  0.49949964  0.50597034  1
  O  O398  1  0.36469446  0.37732172  0.10844316  1
  O  O399  1  0.37793874  0.38728024  0.61032011  1
  O  O400  1  0.35809856  0.85898385  0.12358824  1
  O  O401  1  0.38139350  0.89459832  0.61618069  1
  O  O402  1  0.88464114  0.36717318  0.11565248  1
  O  O403  1  0.87432134  0.37660531  0.61071754  1
  O  O404  1  0.86769900  0.86836757  0.13328241  1
  O  O405  1  0.86696881  0.88164241  0.61463373  1
  O  O406  1  0.13477672  0.12372754  0.38388441  1
  O  O407  1  0.12928316  0.13385960  0.88173816  1
  O  O408  1  0.13619119  0.62271913  0.39526780  1
  O  O409  1  0.12026285  0.63581368  0.87200714  1
  O  O410  1  0.63890100  0.14753367  0.37075505  1
  O  O411  1  0.64506841  0.11598030  0.89776262  1
  O  O412  1  0.63776497  0.62632649  0.37924790  1
  O  O413  1  0.63759765  0.61920204  0.89532766  1
