# generated using pymatgen
data_V79Zn79O256
_symmetry_space_group_name_H-M   'P 1'
_cell_length_a   16.89383389
_cell_length_b   16.88058650
_cell_length_c   16.87622527
_cell_angle_alpha   90.10814418
_cell_angle_beta   90.00305532
_cell_angle_gamma   89.79327635
_symmetry_Int_Tables_number   1
_chemical_formula_structural   V79Zn79O256
_chemical_formula_sum   'V79 Zn79 O256'
_cell_volume   4812.68530145
_cell_formula_units_Z   1
loop_
 _symmetry_equiv_pos_site_id
 _symmetry_equiv_pos_as_xyz
  1  'x, y, z'
loop_
 _atom_site_type_symbol
 _atom_site_label
 _atom_site_symmetry_multiplicity
 _atom_site_fract_x
 _atom_site_fract_y
 _atom_site_fract_z
 _atom_site_occupancy
  V  V0  1  0.62573081  0.00299933  0.62418781  1
  V  V1  1  0.00002626  0.49819215  0.50004722  1
  V  V2  1  0.74389887  0.74872907  0.49786029  1
  V  V3  1  0.37182349  0.87329493  0.01548434  1
  V  V4  1  0.37161864  0.49448527  0.89314712  1
  V  V5  1  0.63174767  0.13705647  0.50136388  1
  V  V6  1  0.24567752  -0.01384780  0.25069890  1
  V  V7  1  0.25309070  0.48982331  0.74271885  1
  V  V8  1  0.37766887  0.48958064  0.36611005  1
  V  V9  1  0.74254556  0.62813029  0.37802333  1
  V  V10  1  0.49978799  0.86401050  0.37560499  1
  V  V11  1  0.37531175  0.12309355  0.74897393  1
  V  V12  1  0.36551228  0.25439147  0.12033060  1
  V  V13  1  0.74706215  0.13933339  0.88037866  1
  V  V14  1  0.50124666  0.25314878  0.75382814  1
  V  V15  1  0.87916349  0.24894887  0.12121416  1
  V  V16  1  0.11752049  0.11985886  -0.00158777  1
  V  V17  1  0.49768788  0.37331847  0.89042875  1
  V  V18  1  0.87842506  0.12739906  0.74293078  1
  V  V19  1  0.36983390  0.12058385  0.25469310  1
  V  V20  1  0.62715054  0.86954460  0.25652342  1
  V  V21  1  0.36233398  0.37041672  0.50368557  1
  V  V22  1  0.87862671  0.00144800  0.87865759  1
  V  V23  1  0.62570814  0.14124869  -0.00110095  1
  V  V24  1  0.75261768  0.62965730  0.87899423  1
  V  V25  1  0.75380201  0.00103286  0.25121292  1
  V  V26  1  0.63027669  -0.00397620  0.12518926  1
  V  V27  1  0.12444793  -0.01554657  0.12402331  1
  V  V28  1  0.87342600  0.87619876  0.01218101  1
  V  V29  1  0.87797492  0.50645793  0.37042642  1
  V  V30  1  0.62839621  0.37479911  0.74933737  1
  V  V31  1  0.75246706  0.00104586  0.75126145  1
  V  V32  1  0.61321626  0.87415112  0.75420391  1
  V  V33  1  0.36187201  0.25172939  0.62184080  1
  V  V34  1  0.49876366  0.49602861  0.50962705  1
  V  V35  1  0.87908781  0.12241781  0.25313943  1
  V  V36  1  -0.03238344  0.73869313  0.22488133  1
  V  V37  1  -0.00983692  0.62172422  0.62909955  1
  V  V38  1  0.49978124  0.12686989  0.62479642  1
  V  V39  1  0.87512500  0.37233695  -0.00502770  1
  V  V40  1  0.87385454  0.87771165  0.48907050  1
  V  V41  1  0.62101579  0.25593780  0.36645104  1
  V  V42  1  0.24926737  0.75725457  0.01279715  1
  V  V43  1  0.49589176  0.12540868  0.12684806  1
  V  V44  1  -0.00633106  0.74452548  0.74883021  1
  V  V45  1  0.74888856  0.50742224  0.24325817  1
  V  V46  1  0.11827489  0.75222076  0.36969817  1
  V  V47  1  0.12471516  -0.00333619  0.61843281  1
  V  V48  1  0.61493346  0.75516541  0.87624922  1
  V  V49  1  0.75102902  0.50600018  0.74932879  1
  V  V50  1  0.00789474  0.36912121  0.37665810  1
  V  V51  1  0.75476446  0.87439609  0.62605564  1
  V  V52  1  0.12718979  0.62921338  0.50606683  1
  V  V53  1  -0.00170164  -0.00322578  0.49129231  1
  V  V54  1  -0.00032655  0.87800926  0.87813134  1
  V  V55  1  0.25104556  0.62355174  0.38584473  1
  V  V56  1  0.50085616  -0.00734799  -0.00394984  1
  V  V57  1  0.24753419  0.25270669  -0.00529456  1
  V  V58  1  0.86370053  0.26243160  0.62379476  1
  V  V59  1  0.01502651  0.37251675  0.86940315  1
  V  V60  1  0.12442580  0.37070727  0.23660215  1
  V  V61  1  0.24354069  0.13937019  0.37554952  1
  V  V62  1  0.74720173  0.37250766  0.12162701  1
  V  V63  1  0.39449892  0.62763499  0.74923172  1
  V  V64  1  0.75190098  0.75274543  0.00994382  1
  V  V65  1  0.37833134  -0.00982960  0.87388894  1
  V  V66  1  0.48559171  0.62241695  0.10795305  1
  V  V67  1  0.75542845  0.13109963  0.37739745  1
  V  V68  1  0.49322063  0.00248766  0.48859008  1
  V  V69  1  0.23787718  0.51175300  0.24603505  1
  V  V70  1  0.01165465  0.25037202  0.74603445  1
  V  V71  1  0.13176453  0.87271293  0.74444079  1
  V  V72  1  0.12224243  0.13445353  0.49732544  1
  V  V73  1  0.24729138  0.12160570  0.87338584  1
  V  V74  1  0.13008444  0.48739840  0.62922769  1
  V  V75  1  0.38065603  0.74947950  0.60397529  1
  V  V76  1  0.12762410  0.74539863  0.87265935  1
  V  V77  1  0.12255590  0.62248981  0.01764957  1
  V  V78  1  0.87916882  0.50677558  0.87215948  1
  Zn  Zn79  1  0.00685531  0.24258300  0.25256944  1
  Zn  Zn80  1  0.61858698  0.38044432  0.24688117  1
  Zn  Zn81  1  0.60267569  0.63778234  0.50714829  1
  Zn  Zn82  1  0.25472223  0.85874815  0.58370817  1
  Zn  Zn83  1  -0.00303514  0.11562742  0.12123465  1
  Zn  Zn84  1  0.84708019  0.36013268  0.48892108  1
  Zn  Zn85  1  0.24604311  0.39400185  0.11011478  1
  Zn  Zn86  1  0.48435590  0.26756698  0.25767058  1
  Zn  Zn87  1  0.00040002  0.87118336  0.36418783  1
  Zn  Zn88  1  0.87007978  0.73946572  0.62750524  1
  Zn  Zn89  1  0.25333458  0.62584045  0.87373569  1
  Zn  Zn90  1  0.00819964  0.50299695  0.00634729  1
  Zn  Zn91  1  0.41617540  0.75702087  0.19524285  1
  Zn  Zn92  1  0.60700906  0.51444363  0.64357028  1
  Zn  Zn93  1  0.25506734  -0.00538870  0.73916117  1
  Zn  Zn94  1  0.18521811  0.18263156  0.18248918  1
  Zn  Zn95  1  0.18652778  0.18040216  0.68326711  1
  Zn  Zn96  1  0.24328440  0.74301336  0.22789741  1
  Zn  Zn97  1  0.19967247  0.67978701  0.68586604  1
  Zn  Zn98  1  0.69030355  0.18699560  0.18368548  1
  Zn  Zn99  1  0.68899113  0.19009675  0.69177610  1
  Zn  Zn100  1  0.67841750  0.68522504  0.18835206  1
  Zn  Zn101  1  0.67964690  0.68655899  0.68847378  1
  Zn  Zn102  1  0.30498164  0.31475092  0.30820107  1
  Zn  Zn103  1  0.31408274  0.31102417  0.81452897  1
  Zn  Zn104  1  0.31275999  0.82173693  0.38081111  1
  Zn  Zn105  1  0.31643302  0.80770566  0.81274505  1
  Zn  Zn106  1  0.81438817  0.31347454  0.30852991  1
  Zn  Zn107  1  0.81742247  0.31628022  0.80957521  1
  Zn  Zn108  1  0.81056369  0.80878978  0.30431363  1
  Zn  Zn109  1  0.81142970  0.81377246  0.81476581  1
  Zn  Zn110  1  0.18461792  0.43706238  0.43649380  1
  Zn  Zn111  1  0.18921966  0.44347174  0.93465626  1
  Zn  Zn112  1  0.18867435  0.94452358  0.42914632  1
  Zn  Zn113  1  0.18867349  0.93753054  0.93566223  1
  Zn  Zn114  1  0.68312361  0.43835503  0.43389367  1
  Zn  Zn115  1  0.68450865  0.43629720  0.93805808  1
  Zn  Zn116  1  0.68658423  0.94486493  0.43655148  1
  Zn  Zn117  1  0.69115209  0.94009116  0.93871334  1
  Zn  Zn118  1  0.30710426  0.06019539  0.06433934  1
  Zn  Zn119  1  0.30768118  0.06002065  0.55869252  1
  Zn  Zn120  1  0.31324283  0.58258117  0.07280061  1
  Zn  Zn121  1  0.32173486  0.56396828  0.56773296  1
  Zn  Zn122  1  0.81050487  0.06337602  0.06111579  1
  Zn  Zn123  1  0.81532364  0.06318063  0.56126426  1
  Zn  Zn124  1  0.81741041  0.56086572  0.05738516  1
  Zn  Zn125  1  0.79135369  0.53199136  0.54556076  1
  Zn  Zn126  1  0.43108152  0.44212101  0.18006698  1
  Zn  Zn127  1  0.43247247  0.43401337  0.69147158  1
  Zn  Zn128  1  0.43980685  0.94120169  0.19418013  1
  Zn  Zn129  1  0.43395038  0.93386507  0.67657356  1
  Zn  Zn130  1  0.93316602  0.43605612  0.19107009  1
  Zn  Zn131  1  0.93870982  0.43690665  0.68922325  1
  Zn  Zn132  1  0.94640637  0.93392315  0.19346427  1
  Zn  Zn133  1  0.94230388  0.93789701  0.68533268  1
  Zn  Zn134  1  0.06647295  0.05818285  0.31261950  1
  Zn  Zn135  1  0.06319235  0.06113956  0.80797918  1
  Zn  Zn136  1  0.06128307  0.56876108  0.30669003  1
  Zn  Zn137  1  0.06658217  0.56068709  0.81072111  1
  Zn  Zn138  1  0.56766681  0.06964262  0.31003958  1
  Zn  Zn139  1  0.56484763  0.06434475  0.81514779  1
  Zn  Zn140  1  0.56559480  0.55834034  0.31660087  1
  Zn  Zn141  1  0.56929340  0.55537813  0.85062909  1
  Zn  Zn142  1  0.43762970  0.18777976  0.43629704  1
  Zn  Zn143  1  0.43598765  0.18351946  0.93862813  1
  Zn  Zn144  1  0.43523742  0.68184562  0.42756492  1
  Zn  Zn145  1  0.43299930  0.68811482  0.93572209  1
  Zn  Zn146  1  0.93919013  0.18688785  0.44164762  1
  Zn  Zn147  1  0.93780594  0.19075507  0.93031969  1
  Zn  Zn148  1  0.93399007  0.68621154  0.44109955  1
  Zn  Zn149  1  0.93882134  0.69109661  0.94401343  1
  Zn  Zn150  1  0.06243287  0.30806188  0.05679866  1
  Zn  Zn151  1  0.05607953  0.31025765  0.56687108  1
  Zn  Zn152  1  0.05867606  0.80581864  0.06536068  1
  Zn  Zn153  1  0.05936416  0.81094907  0.56204853  1
  Zn  Zn154  1  0.54695758  0.32640319  0.08708823  1
  Zn  Zn155  1  0.55549730  0.32078476  0.56285231  1
  Zn  Zn156  1  0.56228820  0.80913016  0.06390496  1
  Zn  Zn157  1  0.55911872  0.81651035  0.56493794  1
  O  O158  1  0.12025576  0.11918107  0.11024309  1
  O  O159  1  0.13443107  0.11061897  0.60677305  1
  O  O160  1  0.12555857  0.63018024  0.11330779  1
  O  O161  1  0.11936368  0.61376407  0.62008310  1
  O  O162  1  0.61687758  0.11800139  0.11974996  1
  O  O163  1  0.62190703  0.12487699  0.62045627  1
  O  O164  1  0.58971863  0.61272014  0.16443877  1
  O  O165  1  0.63311818  0.61879041  0.61447526  1
  O  O166  1  0.36755484  0.38194126  0.38326220  1
  O  O167  1  0.38138290  0.38356051  0.87620009  1
  O  O168  1  0.40426537  0.89112030  0.37145583  1
  O  O169  1  0.37124173  0.88678926  0.88184607  1
  O  O170  1  0.88505497  0.38372517  0.37572546  1
  O  O171  1  0.88044560  0.38246494  0.88149364  1
  O  O172  1  0.86987753  0.86970690  0.38682322  1
  O  O173  1  0.88233249  0.88469604  0.87616697  1
  O  O174  1  0.23989019  0.01711590  0.35425278  1
  O  O175  1  0.26028442  0.00682968  0.87235973  1
  O  O176  1  0.25171003  0.50395278  0.36635648  1
  O  O177  1  0.26016916  0.49879575  0.86370248  1
  O  O178  1  0.74465621  0.01787555  0.36366822  1
  O  O179  1  0.76168386  0.00562324  0.86913615  1
  O  O180  1  0.75872320  0.51091111  0.36709048  1
  O  O181  1  0.76115134  0.51034873  0.87302629  1
  O  O182  1  0.25744520  0.50639332  0.14208255  1
  O  O183  1  0.24589004  0.50313183  0.63453767  1
  O  O184  1  0.23749518  1.00295407  0.13583611  1
  O  O185  1  0.23976058  0.98814753  0.61949163  1
  O  O186  1  0.75816719  0.49602600  0.13637784  1
  O  O187  1  0.75231291  0.50617783  0.65035075  1
  O  O188  1  0.73976047  1.00784268  0.13520187  1
  O  O189  1  0.74567903  0.99447500  0.62992409  1
  O  O190  1  0.00993178  0.37936503  0.25760086  1
  O  O191  1  -0.00072313  0.36482615  0.75973673  1
  O  O192  1  -0.01304045  0.84577394  0.25275836  1
  O  O193  1  0.01025529  0.86709749  0.75527999  1
  O  O194  1  0.51316874  0.36525745  0.20473154  1
  O  O195  1  0.50434977  0.36848607  0.75744128  1
  O  O196  1  0.51450462  0.88292558  0.26169303  1
  O  O197  1  0.51514477  0.88158189  0.74562260  1
  O  O198  1  0.48853018  0.12166827  0.23980086  1
  O  O199  1  0.49712565  0.13317739  0.74624056  1
  O  O200  1  0.53060120  0.62404920  0.22762313  1
  O  O201  1  0.49182485  0.60644094  0.76466793  1
  O  O202  1  0.99107091  0.12390426  0.25119890  1
  O  O203  1  0.98952639  0.13940050  0.76256761  1
  O  O204  1  0.99917791  0.64565682  0.25555394  1
  O  O205  1  1.00613663  0.63332275  0.74203014  1
  O  O206  1  0.35850517  0.23944401  0.00702898  1
  O  O207  1  0.38055142  0.26171338  0.50573587  1
  O  O208  1  0.35765522  0.76019165  -0.00965779  1
  O  O209  1  0.37055099  0.74107152  0.50331312  1
  O  O210  1  0.88159024  0.26101751  0.00604437  1
  O  O211  1  0.88081803  0.25108651  0.51708968  1
  O  O212  1  0.86428073  0.76372912  -0.00157171  1
  O  O213  1  0.86325215  0.75857899  0.50513272  1
  O  O214  1  0.11808723  0.23317922  0.50795500  1
  O  O215  1  0.13685542  0.23357597  1.00147254  1
  O  O216  1  0.12132868  0.73350448  0.49882144  1
  O  O217  1  0.13241309  0.74641676  0.99288993  1
  O  O218  1  0.61743731  0.24326513  0.49210894  1
  O  O219  1  0.61492897  0.23801636  1.01250885  1
  O  O220  1  0.63995964  0.75411585  0.50339741  1
  O  O221  1  0.64183809  0.77053652  0.98452286  1
  O  O222  1  0.48319215  0.23356076  0.11882812  1
  O  O223  1  0.49215732  0.24614838  0.63488036  1
  O  O224  1  0.50455670  0.74188727  0.13020600  1
  O  O225  1  0.48439137  0.75065766  0.61613589  1
  O  O226  1  0.98988614  0.24666621  0.12658045  1
  O  O227  1  0.98883454  0.25379744  0.64150898  1
  O  O228  1  0.98786170  0.74460890  0.12522301  1
  O  O229  1  0.99816857  0.73949563  0.63213683  1
  O  O230  1  -0.00537657  0.26643606  0.37294213  1
  O  O231  1  -0.00322607  0.26443607  0.86375700  1
  O  O232  1  0.01144437  0.74463392  0.37844528  1
  O  O233  1  0.00692601  0.75776889  0.86754324  1
  O  O234  1  0.51416742  0.24357567  0.36852650  1
  O  O235  1  0.48574309  0.25954694  0.86397039  1
  O  O236  1  0.50079240  0.76334492  0.38162841  1
  O  O237  1  0.51667415  0.75344773  0.88362214  1
  O  O238  1  0.23912919  0.11891209  0.48372815  1
  O  O239  1  0.24199087  0.12892786  0.99085564  1
  O  O240  1  0.24037457  0.60720810  0.49287520  1
  O  O241  1  0.24089701  0.64085515  0.99673788  1
  O  O242  1  0.74308567  0.12212116  0.49181568  1
  O  O243  1  0.73928462  0.12191310  0.99231453  1
  O  O244  1  0.75342794  0.63007607  0.48901264  1
  O  O245  1  0.75916508  0.64001057  0.99340599  1
  O  O246  1  0.23827092  0.35734643  -0.00236933  1
  O  O247  1  0.26237690  0.37907258  0.49862562  1
  O  O248  1  0.25557943  0.86628535  -0.00128054  1
  O  O249  1  0.26503480  0.87551325  0.47162182  1
  O  O250  1  0.76277907  0.38719371  0.01029477  1
  O  O251  1  0.75922940  0.42340250  0.51195590  1
  O  O252  1  0.76341040  0.86776234  -0.00285785  1
  O  O253  1  0.75308339  0.87238259  0.50603781  1
  O  O254  1  0.13257914  0.49354611  0.25100320  1
  O  O255  1  0.14229120  0.50397194  0.74352415  1
  O  O256  1  0.13389550  1.00363412  0.23542476  1
  O  O257  1  0.12375955  0.99137666  0.73662786  1
  O  O258  1  0.64597153  0.49135994  0.26253584  1
  O  O259  1  0.63465123  0.49341461  0.76065498  1
  O  O260  1  0.63446980  1.00211185  0.24211751  1
  O  O261  1  0.63110310  0.99275518  0.74629049  1
  O  O262  1  0.35858054  0.01113476  0.23991756  1
  O  O263  1  0.37680914  0.00369891  0.75515040  1
  O  O264  1  0.35712724  0.48757313  0.26234036  1
  O  O265  1  0.36607499  0.50703356  0.75168277  1
  O  O266  1  0.86728227  0.01133572  0.24154865  1
  O  O267  1  0.87422045  0.00807724  0.75538484  1
  O  O268  1  0.86142531  0.49473004  0.26112852  1
  O  O269  1  0.86184301  0.48898503  0.76173343  1
  O  O270  1  0.11251917  0.37888857  0.36429004  1
  O  O271  1  0.11345345  0.37707368  0.87604564  1
  O  O272  1  0.12284852  0.85416379  0.38564930  1
  O  O273  1  0.11583815  0.87005943  0.86954780  1
  O  O274  1  0.63057098  0.35905833  0.37120224  1
  O  O275  1  0.60542024  0.37654826  0.86557267  1
  O  O276  1  0.61904596  0.88544567  0.36345764  1
  O  O277  1  0.63153312  0.87345266  0.86110167  1
  O  O278  1  0.37691848  0.12900972  0.13180337  1
  O  O279  1  0.37942416  0.13061406  0.62834109  1
  O  O280  1  0.38364119  0.65029699  0.13008417  1
  O  O281  1  0.37921045  0.63518560  0.63915676  1
  O  O282  1  0.87611237  0.13209615  0.12947461  1
  O  O283  1  0.87186480  0.13157095  0.63812708  1
  O  O284  1  0.91349992  0.58521615  0.12334764  1
  O  O285  1  0.88923128  0.61801152  0.61884874  1
  O  O286  1  0.25264740  0.24386691  0.10966816  1
  O  O287  1  0.26265420  0.24430434  0.62740609  1
  O  O288  1  0.24370036  0.75315707  0.11137658  1
  O  O289  1  0.26747421  0.74839154  0.62712997  1
  O  O290  1  0.76259080  0.26387170  0.12857022  1
  O  O291  1  0.76352569  0.25175843  0.63149513  1
  O  O292  1  0.73738881  0.74207820  0.10814330  1
  O  O293  1  0.75133261  0.75920147  0.62019756  1
  O  O294  1  0.24548480  0.23940121  0.37230590  1
  O  O295  1  0.25686301  0.23707919  0.88485876  1
  O  O296  1  0.23638788  0.72731421  0.38601397  1
  O  O297  1  0.23714575  0.75219263  0.88110855  1
  O  O298  1  0.74077843  0.24173408  0.37004156  1
  O  O299  1  0.75766609  0.23823005  0.87167268  1
  O  O300  1  0.75548344  0.73505318  0.38061900  1
  O  O301  1  0.75071195  0.74440094  0.88241621  1
  O  O302  1  0.01461089  0.12814288  -0.00770252  1
  O  O303  1  0.01383624  0.11317471  0.48984733  1
  O  O304  1  0.01801351  0.62568617  -0.00807416  1
  O  O305  1  0.00832129  0.61639556  0.50890156  1
  O  O306  1  0.50522371  0.11431279  0.00629936  1
  O  O307  1  0.50986628  0.12064133  0.50506730  1
  O  O308  1  0.50276020  0.63532434  0.00841790  1
  O  O309  1  0.49327613  0.60272029  0.48600786  1
  O  O310  1  0.48469109  0.38691819  0.49666365  1
  O  O311  1  0.50101151  0.36436759  0.98901753  1
  O  O312  1  0.51678404  0.89386511  0.48718279  1
  O  O313  1  0.49197077  0.88689362  1.00418383  1
  O  O314  1  1.00635847  0.38185550  0.48660267  1
  O  O315  1  0.99652071  0.37831089  0.98728964  1
  O  O316  1  0.98830787  0.87761213  0.49786447  1
  O  O317  1  0.98624405  0.86544220  0.98670921  1
  O  O318  1  0.48010613  0.49896628  0.36641211  1
  O  O319  1  0.48082953  0.48358534  0.87833032  1
  O  O320  1  0.50709387  1.01109072  0.38747424  1
  O  O321  1  0.49058445  1.00785462  0.88561425  1
  O  O322  1  0.99624507  0.49462188  0.37954538  1
  O  O323  1  0.99473840  0.48741844  0.86664716  1
  O  O324  1  1.00886169  0.98831936  0.38478388  1
  O  O325  1  0.99056269  0.99045355  0.86816092  1
  O  O326  1  0.01712221  -0.00021076  0.13019882  1
  O  O327  1  0.01417727  -0.00814005  0.61106587  1
  O  O328  1  -0.03099976  0.52519828  0.12235878  1
  O  O329  1  0.00766096  0.50309921  0.62181757  1
  O  O330  1  0.50536806  0.00930662  0.11773086  1
  O  O331  1  0.50738007  0.00644700  0.61575401  1
  O  O332  1  0.47052903  0.52083119  0.11317084  1
  O  O333  1  0.49176446  0.49894171  0.61371626  1
  O  O334  1  0.23307057  0.38471313  0.24730225  1
  O  O335  1  0.25886703  0.38952213  0.75087874  1
  O  O336  1  0.24746025  0.88919673  0.26035830  1
  O  O337  1  0.23524797  0.87509985  0.75898131  1
  O  O338  1  0.75236120  0.38356117  0.23510851  1
  O  O339  1  0.73435542  0.38471746  0.76423640  1
  O  O340  1  0.73976280  0.89034874  0.25919050  1
  O  O341  1  0.74849781  0.88204016  0.74131700  1
  O  O342  1  0.25332388  0.12692234  0.25778693  1
  O  O343  1  0.25520845  0.12057745  0.75739535  1
  O  O344  1  0.24138592  0.61392234  0.26637782  1
  O  O345  1  0.26390989  0.61311069  0.75572387  1
  O  O346  1  0.75945896  0.12168275  0.25501314  1
  O  O347  1  0.75703139  0.11997153  0.75917526  1
  O  O348  1  0.74365137  0.61510146  0.25897223  1
  O  O349  1  0.74606540  0.61467220  0.76341616  1
  O  O350  1  0.36214144  0.13171748  0.36489364  1
  O  O351  1  0.36747332  0.11424138  0.86950064  1
  O  O352  1  0.35742808  0.60709501  0.38028493  1
  O  O353  1  0.37615032  0.60788336  0.87094685  1
  O  O354  1  0.86821431  0.13462419  0.36490137  1
  O  O355  1  0.86853009  0.11801017  0.87024372  1
  O  O356  1  0.86607749  0.61335764  0.38003523  1
  O  O357  1  0.87113869  0.61629391  0.88016875  1
  O  O358  1  0.12165768  0.37939432  0.13205907  1
  O  O359  1  0.12160990  0.38804815  0.62017365  1
  O  O360  1  0.12466494  0.88513715  0.11562332  1
  O  O361  1  0.13046621  0.87549399  0.62922935  1
  O  O362  1  0.64698295  0.37569221  0.11530361  1
  O  O363  1  0.61460019  0.38652007  0.64583264  1
  O  O364  1  0.61742180  0.88968379  0.13945902  1
  O  O365  1  0.63471788  0.88036765  0.63544140  1
  O  O366  1  0.12391684  0.26521238  0.24225365  1
  O  O367  1  0.11099200  0.24138791  0.74348616  1
  O  O368  1  0.13428457  0.74532563  0.27007623  1
  O  O369  1  0.11793627  0.75539601  0.75486886  1
  O  O370  1  0.62407807  0.24877890  0.25891864  1
  O  O371  1  0.61507503  0.26302187  0.74715180  1
  O  O372  1  0.63679107  0.77126876  0.25186712  1
  O  O373  1  0.63040231  0.76646052  0.75949913  1
  O  O374  1  0.37039618  0.24107860  0.24042356  1
  O  O375  1  0.38143047  0.24456942  0.74190831  1
  O  O376  1  0.34389355  0.76283178  0.27714219  1
  O  O377  1  0.38343428  0.72936119  0.76634977  1
  O  O378  1  0.87888963  0.24110169  0.23967680  1
  O  O379  1  0.88028302  0.24523174  0.74188016  1
  O  O380  1  0.86589977  0.73826040  0.23630267  1
  O  O381  1  0.88936498  0.75663796  0.74843199  1
  O  O382  1  0.37830105  0.48889267  0.49171120  1
  O  O383  1  0.35419080  0.50344602  0.99037191  1
  O  O384  1  0.39453076  1.00863222  0.50250803  1
  O  O385  1  0.37957564  0.99286329  0.99593890  1
  O  O386  1  0.89436990  0.50124701  0.49246093  1
  O  O387  1  0.88328766  0.49074338  0.98696472  1
  O  O388  1  0.88629122  0.99227801  0.50479843  1
  O  O389  1  0.86959739  0.98915892  0.98938497  1
  O  O390  1  0.13312862  0.00951405  0.01050594  1
  O  O391  1  0.11720527  0.00196192  0.50229011  1
  O  O392  1  0.12850181  0.51537546  -0.00022363  1
  O  O393  1  0.11607641  0.50504772  0.50680871  1
  O  O394  1  0.61809900  0.00083720  0.00755131  1
  O  O395  1  0.62167533  0.01633043  0.50623890  1
  O  O396  1  0.61612539  0.52190430  -0.04714413  1
  O  O397  1  0.60137195  0.49301776  0.49552850  1
  O  O398  1  0.36112954  0.35853735  0.12908636  1
  O  O399  1  0.37562757  0.36683758  0.61307366  1
  O  O400  1  0.38024745  0.87337754  0.11689747  1
  O  O401  1  0.37000913  0.85712206  0.62625937  1
  O  O402  1  0.87272629  0.36896680  0.11566430  1
  O  O403  1  0.87563330  0.36463542  0.62581659  1
  O  O404  1  0.87848685  0.88559937  0.10976545  1
  O  O405  1  0.86362883  0.87697509  0.61820351  1
  O  O406  1  0.13200634  0.12735719  0.38302047  1
  O  O407  1  0.13556927  0.11145972  0.88492085  1
  O  O408  1  0.13107435  0.62398632  0.38769129  1
  O  O409  1  0.12733446  0.63756257  0.87449400  1
  O  O410  1  0.63450808  0.13736204  0.38154547  1
  O  O411  1  0.63457475  0.12187275  0.88492000  1
  O  O412  1  0.63929546  0.61896893  0.38507301  1
  O  O413  1  0.63752480  0.65073239  0.86882175  1
