# generated using pymatgen
data_V79Zn79O256
_symmetry_space_group_name_H-M   'P 1'
_cell_length_a   16.98374430
_cell_length_b   16.89090628
_cell_length_c   16.99348880
_cell_angle_alpha   90.02853076
_cell_angle_beta   89.76001266
_cell_angle_gamma   90.25143563
_symmetry_Int_Tables_number   1
_chemical_formula_structural   V79Zn79O256
_chemical_formula_sum   'V79 Zn79 O256'
_cell_volume   4874.84602803
_cell_formula_units_Z   1
loop_
 _symmetry_equiv_pos_site_id
 _symmetry_equiv_pos_as_xyz
  1  'x, y, z'
loop_
 _atom_site_type_symbol
 _atom_site_label
 _atom_site_symmetry_multiplicity
 _atom_site_fract_x
 _atom_site_fract_y
 _atom_site_fract_z
 _atom_site_occupancy
  V  V0  1  0.87538381  0.38165335  0.49593203  1
  V  V1  1  0.24991965  0.63147512  0.36295923  1
  V  V2  1  0.50193683  0.12415864  0.62604052  1
  V  V3  1  0.50628597  0.25266697  0.75066652  1
  V  V4  1  0.12837256  0.38956030  0.25185491  1
  V  V5  1  0.74605432  0.87181904  0.64273159  1
  V  V6  1  0.13201940  0.63090398  0.50577218  1
  V  V7  1  0.11576002  0.75140289  0.86920529  1
  V  V8  1  0.62351307  0.24736798  0.35193317  1
  V  V9  1  0.25304606  0.25556370  0.50129391  1
  V  V10  1  0.61480113  0.61669642  0.50392060  1
  V  V11  1  0.64142178  0.87663183  0.24753063  1
  V  V12  1  0.89399820  -0.00343608  0.38451383  1
  V  V13  1  0.75711785  0.11774883  0.37494396  1
  V  V14  1  -0.00042667  0.38762081  0.37627606  1
  V  V15  1  0.37995362  -0.00055867  0.37234242  1
  V  V16  1  0.25179173  -0.01013299  0.24471124  1
  V  V17  1  0.12839743  0.25812668  0.86815365  1
  V  V18  1  0.37965815  0.37970302  0.00142631  1
  V  V19  1  0.87491347  0.49562360  0.88558823  1
  V  V20  1  0.74867306  0.63431506  0.87884473  1
  V  V21  1  0.39255182  -0.00481710  0.87879744  1
  V  V22  1  0.12388002  0.11191938  0.50076278  1
  V  V23  1  -0.00245439  -0.00709025  0.00250981  1
  V  V24  1  0.24842282  0.11518194  0.87287636  1
  V  V25  1  0.49561989  0.74976013  0.23901470  1
  V  V26  1  0.62997124  -0.00461804  0.63395522  1
  V  V27  1  0.87658982  0.24599681  0.62737731  1
  V  V28  1  0.37091197  0.11881136  0.75024280  1
  V  V29  1  0.38582943  0.87831938  0.01526611  1
  V  V30  1  0.74402006  0.75095323  0.49326958  1
  V  V31  1  0.25331491  0.12697424  0.37433052  1
  V  V32  1  0.60166205  0.77408478  0.87127305  1
  V  V33  1  0.38593547  0.13002063  0.24963127  1
  V  V34  1  0.36175965  0.49383015  0.38301472  1
  V  V35  1  0.74644885  0.61508352  0.37538552  1
  V  V36  1  -0.00597369  0.62903893  0.12790676  1
  V  V37  1  0.00274999  0.25294752  0.25419408  1
  V  V38  1  0.37453210  0.50191024  0.87023301  1
  V  V39  1  0.12091443  0.49681464  0.63332522  1
  V  V40  1  0.86775503  0.75462231  0.13599415  1
  V  V41  1  0.12717756  0.25132721  0.37783329  1
  V  V42  1  0.25048555  0.76092972  0.01164281  1
  V  V43  1  0.87949328  0.11943811  0.25420863  1
  V  V44  1  0.50575437  0.37379607  0.87392320  1
  V  V45  1  0.25389449  0.62529078  0.87256247  1
  V  V46  1  0.75933305  0.12627115  0.85211073  1
  V  V47  1  0.64758451  0.12647656  -0.00330106  1
  V  V48  1  0.00448656  0.12582515  0.12781496  1
  V  V49  1  -0.00077410  0.50828704  0.50420013  1
  V  V50  1  0.74807946  0.25196254  0.49837819  1
  V  V51  1  0.50399580  0.38167014  0.37522847  1
  V  V52  1  0.87513971  0.74134371  0.62604630  1
  V  V53  1  0.87993372  0.61723675  0.74459922  1
  V  V54  1  0.87857385  0.25839822  0.11404993  1
  V  V55  1  0.74482700  0.37739014  0.62998072  1
  V  V56  1  0.38472949  0.25011567  0.12742519  1
  V  V57  1  0.37228610  0.86944072  0.50170497  1
  V  V58  1  0.86069442  0.87779222  0.00767934  1
  V  V59  1  0.06414448  0.80724030  0.31609103  1
  V  V60  1  0.24935679  0.25075558  0.00185505  1
  V  V61  1  0.24469753  0.87875184  0.63647017  1
  V  V62  1  -0.00124670  0.11481072  0.62191757  1
  V  V63  1  0.74012931  0.36519083  0.11560017  1
  V  V64  1  0.61140659  0.49689429  0.63110885  1
  V  V65  1  0.87350673  0.61706433  0.25634413  1
  V  V66  1  0.00013796  0.37575380  0.87782717  1
  V  V67  1  0.50285003  0.00023073  0.49554172  1
  V  V68  1  0.73663240  0.48793892  0.24654773  1
  V  V69  1  0.00335041  0.25327761  0.74562749  1
  V  V70  1  0.37546386  0.25384710  0.62231793  1
  V  V71  1  0.49963570  0.11403626  0.10926319  1
  V  V72  1  0.87346665  -0.00202173  0.86372336  1
  V  V73  1  0.12954247  -0.01385260  0.12931848  1
  V  V74  1  0.24894994  0.38208798  0.13015425  1
  V  V75  1  0.12098814  0.62373592  0.00200142  1
  V  V76  1  0.12465681  0.12590730  0.00270282  1
  V  V77  1  0.62782926  0.12399428  0.49845466  1
  V  V78  1  0.24579259  0.37180766  0.63559807  1
  Zn  Zn79  1  0.64640006  0.98918837  0.11923914  1
  Zn  Zn80  1  0.05296905  0.91218715  0.80965103  1
  Zn  Zn81  1  0.74283595  0.74361775  0.00632753  1
  Zn  Zn82  1  0.25451550  0.74989566  0.49921985  1
  Zn  Zn83  1  0.53645526  0.58993086  0.13160054  1
  Zn  Zn84  1  0.13817364  0.00296577  0.65873958  1
  Zn  Zn85  1  0.64025805  0.25560459  0.87082038  1
  Zn  Zn86  1  0.12404799  0.50564769  0.13081061  1
  Zn  Zn87  1  0.24855391  0.50015504  0.75097809  1
  Zn  Zn88  1  0.74145067  0.49675486  0.75200484  1
  Zn  Zn89  1  0.38200354  0.61962160  0.23508262  1
  Zn  Zn90  1  -0.00408626  0.49352233  0.00764689  1
  Zn  Zn91  1  0.01388468  0.74814599  0.73250437  1
  Zn  Zn92  1  0.51765878  0.85087254  0.37880134  1
  Zn  Zn93  1  0.88215226  0.88319574  0.50239049  1
  Zn  Zn94  1  0.19237624  0.18466954  0.19069876  1
  Zn  Zn95  1  0.18550853  0.18314579  0.68659636  1
  Zn  Zn96  1  0.18424820  0.69149951  0.18891239  1
  Zn  Zn97  1  0.20686341  0.68798420  0.68094848  1
  Zn  Zn98  1  0.69925689  0.16530518  0.17570160  1
  Zn  Zn99  1  0.68827001  0.18633703  0.68479458  1
  Zn  Zn100  1  0.68317043  0.69330510  0.19390651  1
  Zn  Zn101  1  0.68207204  0.68247836  0.69728785  1
  Zn  Zn102  1  0.31621542  0.31592911  0.31108948  1
  Zn  Zn103  1  0.31766271  0.31006596  0.81189049  1
  Zn  Zn104  1  0.32202003  0.80637790  0.30914561  1
  Zn  Zn105  1  0.28815540  0.83192023  0.83478145  1
  Zn  Zn106  1  0.81396406  0.31114722  0.31195238  1
  Zn  Zn107  1  0.81779503  0.31316941  0.80949966  1
  Zn  Zn108  1  0.81381049  0.81390384  0.31591748  1
  Zn  Zn109  1  0.83277501  0.81483009  0.81373705  1
  Zn  Zn110  1  0.18482268  0.43979849  0.44270891  1
  Zn  Zn111  1  0.18824484  0.43882565  0.93997378  1
  Zn  Zn112  1  0.19106236  0.93410357  0.42500724  1
  Zn  Zn113  1  0.18386546  0.93827047  0.94252170  1
  Zn  Zn114  1  0.68243807  0.43657387  0.43525702  1
  Zn  Zn115  1  0.69981494  0.42490351  0.93634552  1
  Zn  Zn116  1  0.69125129  0.93544736  0.43414590  1
  Zn  Zn117  1  0.68098990  0.94385856  0.93009876  1
  Zn  Zn118  1  0.31405403  0.05974810  0.06177233  1
  Zn  Zn119  1  0.31118772  0.06177677  0.56082439  1
  Zn  Zn120  1  0.30726249  0.56149486  0.05363055  1
  Zn  Zn121  1  0.31327504  0.55459445  0.55883303  1
  Zn  Zn122  1  0.81512372  0.06808444  0.06425418  1
  Zn  Zn123  1  0.81265722  0.05963502  0.56388171  1
  Zn  Zn124  1  0.70480433  0.55834632  0.06042985  1
  Zn  Zn125  1  0.80504945  0.56106622  0.55994815  1
  Zn  Zn126  1  0.43962599  0.43439089  0.20727278  1
  Zn  Zn127  1  0.43589121  0.43643733  0.69077977  1
  Zn  Zn128  1  0.44786175  0.93490290  0.18982500  1
  Zn  Zn129  1  0.43175628  0.94011346  0.68200374  1
  Zn  Zn130  1  0.93501227  0.44329374  0.18900426  1
  Zn  Zn131  1  0.93821883  0.43162434  0.68782051  1
  Zn  Zn132  1  0.94494102  0.93314876  0.19359516  1
  Zn  Zn133  1  0.93492465  0.92755468  0.68311492  1
  Zn  Zn134  1  0.06918512  0.05971710  0.31213910  1
  Zn  Zn135  1  0.05258540  0.07959545  0.81563898  1
  Zn  Zn136  1  0.04421614  0.60953502  0.33684484  1
  Zn  Zn137  1  0.05977448  0.56769657  0.81353246  1
  Zn  Zn138  1  0.56929172  0.06060493  0.30622438  1
  Zn  Zn139  1  0.56598532  0.06536120  0.81476102  1
  Zn  Zn140  1  0.56009064  0.56822343  0.31604211  1
  Zn  Zn141  1  0.57575415  0.54635652  0.91167655  1
  Zn  Zn142  1  0.44372708  0.19570393  0.43910666  1
  Zn  Zn143  1  0.43609286  0.19144932  0.93696397  1
  Zn  Zn144  1  0.43754621  0.68240757  0.42949966  1
  Zn  Zn145  1  0.43344655  0.68961539  0.95311272  1
  Zn  Zn146  1  0.94120875  0.18982348  0.44186218  1
  Zn  Zn147  1  0.93951766  0.18330918  0.93465160  1
  Zn  Zn148  1  0.96182201  0.72484030  0.46104091  1
  Zn  Zn149  1  0.93006308  0.68643407  0.94456071  1
  Zn  Zn150  1  0.06431240  0.31432220  0.06334441  1
  Zn  Zn151  1  0.06503605  0.31289055  0.56006838  1
  Zn  Zn152  1  0.05748520  0.80815315  0.06196536  1
  Zn  Zn153  1  0.07202584  0.83969450  0.54505340  1
  Zn  Zn154  1  0.56481237  0.41747776  0.06438660  1
  Zn  Zn155  1  0.55857063  0.31762736  0.55434330  1
  Zn  Zn156  1  0.57343567  0.80907874  0.06057443  1
  Zn  Zn157  1  0.56608141  0.81401954  0.56142697  1
  O  O158  1  0.12096902  0.12296462  0.12001106  1
  O  O159  1  0.11853932  0.11681724  0.61901112  1
  O  O160  1  0.11469111  0.62715162  0.11945893  1
  O  O161  1  0.13713031  0.60981333  0.61473308  1
  O  O162  1  0.60435930  0.13911782  0.10598686  1
  O  O163  1  0.62282840  0.11648785  0.61706748  1
  O  O164  1  0.63785765  0.63260818  0.11159182  1
  O  O165  1  0.62980336  0.61112758  0.61557260  1
  O  O166  1  0.37449558  0.38840518  0.37744392  1
  O  O167  1  0.37932577  0.37899102  0.88303114  1
  O  O168  1  0.37860752  0.88968593  0.38346846  1
  O  O169  1  0.37528445  0.89201514  0.87358843  1
  O  O170  1  0.88634812  0.37010477  0.38685874  1
  O  O171  1  0.88464563  0.38694157  0.86754438  1
  O  O172  1  0.86931184  0.89602124  0.37325475  1
  O  O173  1  0.87156986  0.89164355  0.89094249  1
  O  O174  1  0.26211500  0.00784401  0.36694476  1
  O  O175  1  0.25013512  0.01320509  0.87996481  1
  O  O176  1  0.25681878  0.50481530  0.38065027  1
  O  O177  1  0.25519517  0.50634244  0.87474235  1
  O  O178  1  0.76167726  0.01493084  0.38287424  1
  O  O179  1  0.76660505  0.01080755  0.87818673  1
  O  O180  1  0.74938657  0.50447080  0.36521836  1
  O  O181  1  0.76510898  0.49672108  0.86973726  1
  O  O182  1  0.24689215  0.48600735  0.11934055  1
  O  O183  1  0.24155232  0.48779389  0.62656849  1
  O  O184  1  0.24080523  1.00749024  0.13277111  1
  O  O185  1  0.25156045  0.98880704  0.62353467  1
  O  O186  1  0.74749943  0.47907711  0.13642689  1
  O  O187  1  0.74432851  0.48820401  0.62440631  1
  O  O188  1  0.73377514  1.05984766  0.13827277  1
  O  O189  1  0.74510096  0.98273362  0.61786755  1
  O  O190  1  0.00676134  0.37220505  0.25915901  1
  O  O191  1  0.00076924  0.36345988  0.76004897  1
  O  O192  1  0.00164639  0.86784932  0.26468875  1
  O  O193  1  -0.02414338  0.85298248  0.75674668  1
  O  O194  1  0.48508125  0.35556373  0.27888946  1
  O  O195  1  0.49258904  0.36418016  0.76301277  1
  O  O196  1  0.49865928  0.86179377  0.25764257  1
  O  O197  1  0.48808903  0.83681334  0.71254257  1
  O  O198  1  0.48916373  0.12121589  0.23853446  1
  O  O199  1  0.49111586  0.13188881  0.74614568  1
  O  O200  1  0.50663367  0.63292289  0.24017185  1
  O  O201  1  0.45911922  0.63345474  0.67339990  1
  O  O202  1  0.99960120  0.13524941  0.24892323  1
  O  O203  1  0.99978610  0.14350298  0.73616261  1
  O  O204  1  0.98183060  0.61376289  0.24281281  1
  O  O205  1  0.98353117  0.63136015  0.75244112  1
  O  O206  1  0.36462629  0.25828561  0.00582777  1
  O  O207  1  0.36359793  0.23563375  0.51308249  1
  O  O208  1  0.35798334  0.76813457  -0.00599991  1
  O  O209  1  0.38190775  0.76776461  0.49279723  1
  O  O210  1  0.88674822  0.24622966  0.01615987  1
  O  O211  1  0.86726954  0.26001932  0.50519176  1
  O  O212  1  0.87125772  0.76190581  0.00972507  1
  O  O213  1  0.85498051  0.73258574  0.51718117  1
  O  O214  1  0.13553920  0.24271794  0.49654377  1
  O  O215  1  0.13317755  0.24727015  0.99313826  1
  O  O216  1  0.12172502  0.73108784  0.51049069  1
  O  O217  1  0.13143504  0.74320214  0.99418731  1
  O  O218  1  0.63805071  0.24286633  0.49960570  1
  O  O219  1  0.60847864  0.21831957  0.97469069  1
  O  O220  1  0.63793089  0.73699250  0.51038149  1
  O  O221  1  0.63455696  0.75964689  0.97581162  1
  O  O222  1  0.48251479  0.24125129  0.12200062  1
  O  O223  1  0.49373589  0.24652173  0.63008231  1
  O  O224  1  0.50696510  0.75448726  0.13840848  1
  O  O225  1  0.49383218  0.78542192  0.65497002  1
  O  O226  1  0.99674445  0.24871615  0.13534987  1
  O  O227  1  0.99519465  0.24966526  0.62845894  1
  O  O228  1  0.98785262  0.73844403  0.12158234  1
  O  O229  1  0.97519722  0.74636718  0.62019475  1
  O  O230  1  0.00706728  0.26204291  0.37186465  1
  O  O231  1  0.00744263  0.25397009  0.86716919  1
  O  O232  1  0.01293671  0.72373323  0.35951410  1
  O  O233  1  0.01602671  0.74074355  0.88235617  1
  O  O234  1  0.52491667  0.22728541  0.36466986  1
  O  O235  1  0.49164006  0.25953475  0.86446117  1
  O  O236  1  0.49863464  0.74113019  0.35594225  1
  O  O237  1  0.50573441  0.73963518  0.88286845  1
  O  O238  1  0.24288175  0.13314229  0.49536289  1
  O  O239  1  0.24694178  0.13416157  0.99278970  1
  O  O240  1  0.24120320  0.62717249  0.49631552  1
  O  O241  1  0.23915973  0.63580850  0.99362844  1
  O  O242  1  0.74928634  0.13456950  0.49437632  1
  O  O243  1  0.74825524  0.13779916  0.99210382  1
  O  O244  1  0.74230019  0.62901927  0.49265548  1
  O  O245  1  0.76327673  0.62166607  0.98154295  1
  O  O246  1  0.25454825  0.36654328  0.00760907  1
  O  O247  1  0.24420047  0.36105413  0.51155284  1
  O  O248  1  0.25093976  0.86524280  -0.00192906  1
  O  O249  1  0.26547090  0.87581050  0.49427498  1
  O  O250  1  0.75760445  0.37047723  0.01693081  1
  O  O251  1  0.75761927  0.36934663  0.50290455  1
  O  O252  1  0.76008958  0.88358187  0.00316976  1
  O  O253  1  0.75397333  0.85747688  0.49860345  1
  O  O254  1  0.12259735  0.48905124  0.25250375  1
  O  O255  1  0.12380420  0.50768028  0.73571178  1
  O  O256  1  0.13837985  1.00457786  0.24140576  1
  O  O257  1  0.11130897  0.99814393  0.76715255  1
  O  O258  1  0.63871383  0.50148001  0.25456602  1
  O  O259  1  0.62585215  0.49920895  0.73014615  1
  O  O260  1  0.61790582  0.98455261  0.24086403  1
  O  O261  1  0.61560872  1.00341485  0.73176000  1
  O  O262  1  0.37355253  0.00935517  0.25746965  1
  O  O263  1  0.38392930  0.00973695  0.76184279  1
  O  O264  1  0.38318368  0.51002389  0.27386270  1
  O  O265  1  0.36960565  0.49426530  0.76527702  1
  O  O266  1  0.88666620  0.01452505  0.26078592  1
  O  O267  1  0.88145836  -0.00592048  0.76615760  1
  O  O268  1  0.85968162  0.51228638  0.24492396  1
  O  O269  1  0.87645923  0.50917354  0.74913401  1
  O  O270  1  0.11906964  0.37164334  0.37086732  1
  O  O271  1  0.12153945  0.36481766  0.87726415  1
  O  O272  1  0.11988845  0.85927226  0.38485460  1
  O  O273  1  0.12918170  0.85784582  0.87822683  1
  O  O274  1  0.61699800  0.35742364  0.37566232  1
  O  O275  1  0.61007035  0.37121432  0.87881826  1
  O  O276  1  0.62496767  0.88431019  0.36024255  1
  O  O277  1  0.61265998  0.87640417  0.86997289  1
  O  O278  1  0.37974899  0.12931063  0.13049900  1
  O  O279  1  0.38019150  0.12908108  0.63329426  1
  O  O280  1  0.38131720  0.63047381  0.10558967  1
  O  O281  1  0.32954200  0.64301675  0.63317620  1
  O  O282  1  0.88688310  0.13870856  0.13755279  1
  O  O283  1  0.88322252  0.13918806  0.61207944  1
  O  O284  1  0.88117338  0.63821328  0.13681338  1
  O  O285  1  0.86340986  0.62850497  0.63633903  1
  O  O286  1  0.25233385  0.25516445  0.11424316  1
  O  O287  1  0.25514442  0.25210924  0.62076835  1
  O  O288  1  0.24551566  0.74733750  0.10926538  1
  O  O289  1  0.24249892  0.77354643  0.61318771  1
  O  O290  1  0.77128205  0.25625761  0.13540943  1
  O  O291  1  0.75621204  0.25498402  0.61621599  1
  O  O292  1  0.76616044  0.74541988  0.12219351  1
  O  O293  1  0.74928092  0.75865531  0.62169297  1
  O  O294  1  0.24872024  0.24795214  0.38369713  1
  O  O295  1  0.24645372  0.24525618  0.88339940  1
  O  O296  1  0.25628614  0.73553134  0.37854587  1
  O  O297  1  0.23935540  0.74282859  0.88554665  1
  O  O298  1  0.74431510  0.24682602  0.38452791  1
  O  O299  1  0.75509772  0.23455858  0.86267170  1
  O  O300  1  0.75590860  0.73920948  0.38983989  1
  O  O301  1  0.76618189  0.73671858  0.87598202  1
  O  O302  1  0.00556771  0.11700570  0.00785059  1
  O  O303  1  0.01376990  0.13564237  0.51134896  1
  O  O304  1  0.00570895  0.62300014  0.00880139  1
  O  O305  1  0.01383771  0.61555620  0.49208145  1
  O  O306  1  0.48234634  0.11982864  0.01023224  1
  O  O307  1  0.50681137  0.11867683  0.50703032  1
  O  O308  1  0.45133660  0.63024165  0.05548146  1
  O  O309  1  0.51725470  0.63235487  0.49690565  1
  O  O310  1  0.48786529  0.33690952  0.46963208  1
  O  O311  1  0.48766586  0.36683729  0.98605241  1
  O  O312  1  0.49379454  0.88355614  0.49697600  1
  O  O313  1  0.48301392  0.86703115  1.00538449  1
  O  O314  1  0.99528821  0.38343311  0.49434276  1
  O  O315  1  1.00651733  0.37552707  0.98368651  1
  O  O316  1  0.98170629  0.83577845  0.48639678  1
  O  O317  1  0.99171334  0.88871675  1.00514934  1
  O  O318  1  0.50553982  0.48443118  0.37929726  1
  O  O319  1  0.49012711  0.48458722  0.87395904  1
  O  O320  1  0.49414109  1.00996936  0.38544576  1
  O  O321  1  0.49034979  1.00739797  0.87991120  1
  O  O322  1  1.00588928  0.49266643  0.38574312  1
  O  O323  1  0.99129641  0.49296864  0.87221045  1
  O  O324  1  0.99317127  1.00493161  0.37769536  1
  O  O325  1  0.98695349  1.00804792  0.88881167  1
  O  O326  1  0.00935595  0.00647522  0.12303074  1
  O  O327  1  -0.01011266  0.01383086  0.62886210  1
  O  O328  1  0.00087151  0.51107465  0.12296159  1
  O  O329  1  0.01284013  0.49326475  0.61845081  1
  O  O330  1  0.50164245  0.01405384  0.12474578  1
  O  O331  1  0.50669937  0.00286312  0.61351237  1
  O  O332  1  0.49977221  0.48233415  0.12773761  1
  O  O333  1  0.51184139  0.48476473  0.62293796  1
  O  O334  1  0.23944297  0.36572675  0.23964576  1
  O  O335  1  0.25031580  0.37140885  0.73926155  1
  O  O336  1  0.26403376  0.89128789  0.25613405  1
  O  O337  1  0.25770097  0.87061765  0.73504697  1
  O  O338  1  0.75490049  0.38390056  0.24813422  1
  O  O339  1  0.75320128  0.37336839  0.73383911  1
  O  O340  1  0.74109369  0.87259966  0.25099756  1
  O  O341  1  0.75627255  0.87083876  0.73994229  1
  O  O342  1  0.26169763  0.11774990  0.25654286  1
  O  O343  1  0.26134024  0.13229460  0.75967544  1
  O  O344  1  0.24910862  0.62715419  0.26047722  1
  O  O345  1  0.24506619  0.62461359  0.77015237  1
  O  O346  1  0.77239438  0.14095536  0.26902003  1
  O  O347  1  0.75459828  0.12097923  0.75278896  1
  O  O348  1  0.75342345  0.61561525  0.25642411  1
  O  O349  1  0.76218241  0.61714762  0.76220928  1
  O  O350  1  0.37418628  0.12113854  0.36915070  1
  O  O351  1  0.36759336  0.11587408  0.86990776  1
  O  O352  1  0.35733196  0.61706015  0.37758783  1
  O  O353  1  0.36562977  0.61281128  0.89140053  1
  O  O354  1  0.87703306  0.11871733  0.37430078  1
  O  O355  1  0.86759054  0.11491527  0.87648590  1
  O  O356  1  0.86399144  0.62840596  0.35792100  1
  O  O357  1  0.87268577  0.61227259  0.86502011  1
  O  O358  1  0.13109950  0.37700148  0.13432670  1
  O  O359  1  0.13167043  0.38631750  0.62237557  1
  O  O360  1  0.12037444  0.88748985  0.11920871  1
  O  O361  1  0.13663030  0.88774352  0.62043725  1
  O  O362  1  0.64206830  0.35325070  0.12112395  1
  O  O363  1  0.63426860  0.38398365  0.61051520  1
  O  O364  1  0.62705324  0.87681473  0.13639136  1
  O  O365  1  0.63950658  0.87972784  0.62201095  1
  O  O366  1  0.11593954  0.25468560  0.25670809  1
  O  O367  1  0.11985483  0.24553092  0.76001313  1
  O  O368  1  0.12613801  0.76357407  0.25013417  1
  O  O369  1  0.12630852  0.73840805  0.76513836  1
  O  O370  1  0.64095951  0.23671668  0.25611324  1
  O  O371  1  0.61037954  0.24021850  0.75301014  1
  O  O372  1  0.61684361  0.76662728  0.25054604  1
  O  O373  1  0.63183051  0.74581791  0.77709111  1
  O  O374  1  0.36452503  0.23871819  0.23977273  1
  O  O375  1  0.38286387  0.23924030  0.74153346  1
  O  O376  1  0.38722411  0.73958177  0.24435492  1
  O  O377  1  0.39027405  0.65016230  0.69488480  1
  O  O378  1  0.89285509  0.24520245  0.25343366  1
  O  O379  1  0.88574318  0.25650125  0.73370663  1
  O  O380  1  0.86680777  0.74094198  0.24151467  1
  O  O381  1  0.86598517  0.73388079  0.73686089  1
  O  O382  1  0.38099592  0.50814597  0.48307923  1
  O  O383  1  0.36677540  0.48442136  0.98923935  1
  O  O384  1  0.38515454  0.99776771  0.49126676  1
  O  O385  1  0.36794773  0.98915009  0.98681319  1
  O  O386  1  0.88562789  0.49143148  0.51010727  1
  O  O387  1  0.87795475  0.50088681  0.98311844  1
  O  O388  1  0.87839127  1.00124632  0.48929013  1
  O  O389  1  0.88302029  0.99586087  1.00807229  1
  O  O390  1  0.11713504  0.00610268  0.00786138  1
  O  O391  1  0.13151364  0.01277905  0.49040011  1
  O  O392  1  0.12307795  0.51357813  0.00168848  1
  O  O393  1  0.11735769  0.50584376  0.51167027  1
  O  O394  1  0.63101194  0.01872517  0.00278607  1
  O  O395  1  0.61887545  0.00358981  0.50440054  1
  O  O396  1  0.62822202  0.49262559  -0.00263457  1
  O  O397  1  0.62807685  0.50996393  0.50767140  1
  O  O398  1  0.36598266  0.36724947  0.12077479  1
  O  O399  1  0.36654206  0.35991308  0.63002436  1
  O  O400  1  0.37307299  0.88986852  0.11292705  1
  O  O401  1  0.36375207  0.88371437  0.60683469  1
  O  O402  1  0.87951982  0.36097184  0.13054322  1
  O  O403  1  0.86838137  0.36698306  0.61391308  1
  O  O404  1  0.88219193  0.86206323  0.12439522  1
  O  O405  1  0.85968331  0.86147586  0.62031627  1
  O  O406  1  0.13264734  0.13236943  0.38113679  1
  O  O407  1  0.13158963  0.13822328  0.88307372  1
  O  O408  1  0.14279382  0.61361229  0.39136581  1
  O  O409  1  0.13059954  0.63083914  0.88521230  1
  O  O410  1  0.64002310  0.12948542  0.37740448  1
  O  O411  1  0.65022033  0.11165021  0.87682119  1
  O  O412  1  0.63632167  0.61843998  0.39036978  1
  O  O413  1  0.64695905  0.62224677  0.87302011  1
