# generated using pymatgen
data_V79Zn79O256
_symmetry_space_group_name_H-M   'P 1'
_cell_length_a   16.88869475
_cell_length_b   16.87619349
_cell_length_c   16.86713079
_cell_angle_alpha   89.95059531
_cell_angle_beta   90.04835830
_cell_angle_gamma   89.82940341
_symmetry_Int_Tables_number   1
_chemical_formula_structural   V79Zn79O256
_chemical_formula_sum   'V79 Zn79 O256'
_cell_volume   4807.39217903
_cell_formula_units_Z   1
loop_
 _symmetry_equiv_pos_site_id
 _symmetry_equiv_pos_as_xyz
  1  'x, y, z'
loop_
 _atom_site_type_symbol
 _atom_site_label
 _atom_site_symmetry_multiplicity
 _atom_site_fract_x
 _atom_site_fract_y
 _atom_site_fract_z
 _atom_site_occupancy
  V  V0  1  0.74430234  0.75822565  0.00241152  1
  V  V1  1  0.62355236  0.24839847  0.38852061  1
  V  V2  1  0.25099483  0.75870973  0.50285473  1
  V  V3  1  0.62377020  0.62005599  0.51179420  1
  V  V4  1  0.62522798  0.00599002  0.61493400  1
  V  V5  1  0.00826501  0.49244416  0.00275338  1
  V  V6  1  0.13709334  0.62240539  0.50955124  1
  V  V7  1  0.39150932  -0.00188776  0.37464905  1
  V  V8  1  0.49347394  0.38436780  0.36934103  1
  V  V9  1  0.12858195  0.11661223  0.00564272  1
  V  V10  1  0.61951477  0.13389358  -0.01938132  1
  V  V11  1  0.74989970  0.49736572  0.24958981  1
  V  V12  1  0.37800106  0.74450634  0.63098972  1
  V  V13  1  0.13386486  0.73793232  0.37432267  1
  V  V14  1  0.49646941  0.24066019  0.23962194  1
  V  V15  1  0.49215441  0.62664868  0.12592256  1
  V  V16  1  0.63161213  0.01197811  0.12378032  1
  V  V17  1  0.25121002  0.75197915  -0.00679446  1
  V  V18  1  0.74962789  0.75215198  0.49938771  1
  V  V19  1  0.74343502  0.62989585  0.87551006  1
  V  V20  1  0.49394752  0.36909789  0.86997913  1
  V  V21  1  0.75484087  0.88585620  0.63110921  1
  V  V22  1  0.62403997  0.49920728  0.12466840  1
  V  V23  1  0.11935642  0.26141515  0.37255697  1
  V  V24  1  0.49887975  0.00812300  0.00066525  1
  V  V25  1  0.12772025  0.12636429  0.49048136  1
  V  V26  1  0.63241367  0.87496367  0.23812546  1
  V  V27  1  0.74761579  0.36373348  0.12314281  1
  V  V28  1  0.25250810  0.49290862  0.24704483  1
  V  V29  1  0.74985261  0.62206344  0.37397116  1
  V  V30  1  0.86863676  0.75370135  0.12786715  1
  V  V31  1  0.87013896  0.13216682  0.24060439  1
  V  V32  1  0.37504866  0.87852414  0.00134417  1
  V  V33  1  0.49929968  0.76189934  0.25240799  1
  V  V34  1  0.74666770  0.12841023  0.38707877  1
  V  V35  1  0.24102946  0.00284683  0.26645277  1
  V  V36  1  0.74368856  0.24919742  -0.02221853  1
  V  V37  1  0.12936329  -0.01283031  0.61871683  1
  V  V38  1  0.88600627  0.87898731  -0.00492952  1
  V  V39  1  -0.00027156  0.74963163  0.25737084  1
  V  V40  1  0.87017249  0.49748475  0.87308878  1
  V  V41  1  0.25145497  0.25267081  0.01897118  1
  V  V42  1  0.88277643  0.87383805  0.49286630  1
  V  V43  1  0.00065179  0.00017913  0.49800667  1
  V  V44  1  0.49918396  0.50378280  0.50865668  1
  V  V45  1  0.86341436  0.36741635  0.50775329  1
  V  V46  1  0.88182338  0.49022145  0.37778026  1
  V  V47  1  0.11965537  0.38158318  0.23075198  1
  V  V48  1  0.24988672  0.24912866  0.48908089  1
  V  V49  1  0.00601903  0.61759564  0.12418881  1
  V  V50  1  0.09858992  0.66081625  -0.02356852  1
  V  V51  1  0.50971788  0.87801447  0.86999427  1
  V  V52  1  0.12014557  0.87197387  0.25511984  1
  V  V53  1  0.36624866  0.00526233  0.87096703  1
  V  V54  1  0.26717375  0.61628958  0.87578703  1
  V  V55  1  0.62218623  0.63003835  -0.00667127  1
  V  V56  1  0.00836420  0.49270311  0.50951118  1
  V  V57  1  -0.00294993  0.25308301  0.24337137  1
  V  V58  1  0.24301874  0.88214394  0.12713710  1
  V  V59  1  0.51140154  0.74887718  0.74709643  1
  V  V60  1  0.87928653  0.74384068  0.62763181  1
  V  V61  1  0.39693822  0.87838117  0.49947207  1
  V  V62  1  0.87642615  0.62111523  0.25137576  1
  V  V63  1  0.86960921  0.24116123  0.63107644  1
  V  V64  1  0.25119229  -0.01848593  0.73722341  1
  V  V65  1  0.36295788  0.12643600  0.74672686  1
  V  V66  1  0.49967429  0.11966426  0.60343546  1
  V  V67  1  0.36924211  0.25022666  0.61717401  1
  V  V68  1  0.13735107  0.24421532  0.86791632  1
  V  V69  1  0.49130858  0.50046685  -0.00732601  1
  V  V70  1  0.12936680  0.39529487  0.74821002  1
  V  V71  1  0.50819014  0.24094089  0.75441599  1
  V  V72  1  0.36725995  0.62503228  0.26652047  1
  V  V73  1  0.36983651  0.37583854  0.01289049  1
  V  V74  1  -0.00028278  0.11260241  0.11895213  1
  V  V75  1  0.62072232  0.75727919  0.37308608  1
  V  V76  1  0.86928510  0.37001189  0.00045049  1
  V  V77  1  0.87814183  -0.00089645  0.37087432  1
  V  V78  1  0.72885854  0.49823998  0.74009583  1
  Zn  Zn79  1  0.23652294  0.39277525  0.61451485  1
  Zn  Zn80  1  0.29426688  0.50776012  0.75547211  1
  Zn  Zn81  1  0.05748820  0.79162098  0.83183650  1
  Zn  Zn82  1  0.36502081  0.13413862  0.24537556  1
  Zn  Zn83  1  0.87713758  0.62075010  0.74846247  1
  Zn  Zn84  1  0.00324794  0.12181955  0.63408956  1
  Zn  Zn85  1  0.37426774  0.75530319  0.12991731  1
  Zn  Zn86  1  0.63988915  0.88618114  0.75630884  1
  Zn  Zn87  1  0.01291391  0.62547831  0.63509017  1
  Zn  Zn88  1  0.62559559  0.37079035  0.25062503  1
  Zn  Zn89  1  -0.00026875  0.37039152  0.87549653  1
  Zn  Zn90  1  0.62079313  0.37418660  0.73867374  1
  Zn  Zn91  1  0.75533202  -0.00198913  0.24090535  1
  Zn  Zn92  1  -0.00347245  0.25251680  0.75339189  1
  Zn  Zn93  1  0.36195807  0.39477078  0.48934637  1
  Zn  Zn94  1  0.18220292  0.18603034  0.19019521  1
  Zn  Zn95  1  0.18857904  0.18522907  0.67456169  1
  Zn  Zn96  1  0.18797540  0.68693874  0.17590896  1
  Zn  Zn97  1  0.19373267  0.69137858  0.69577421  1
  Zn  Zn98  1  0.67874272  0.18688159  0.19107621  1
  Zn  Zn99  1  0.65972361  0.22802177  0.62413863  1
  Zn  Zn100  1  0.68522292  0.68415141  0.18549449  1
  Zn  Zn101  1  0.68780113  0.69199420  0.69317746  1
  Zn  Zn102  1  0.31027121  0.31481069  0.30701974  1
  Zn  Zn103  1  0.31300428  0.31510891  0.81359348  1
  Zn  Zn104  1  0.31297218  0.81509188  0.31712652  1
  Zn  Zn105  1  0.31665033  0.80924116  0.81264667  1
  Zn  Zn106  1  0.81104661  0.31188149  0.31558862  1
  Zn  Zn107  1  0.80756670  0.31596845  0.80416613  1
  Zn  Zn108  1  0.80992400  0.81227465  0.31127481  1
  Zn  Zn109  1  0.82387096  0.81201338  0.81400996  1
  Zn  Zn110  1  0.18810395  0.44149839  0.42545778  1
  Zn  Zn111  1  0.19309857  0.43250913  0.92938703  1
  Zn  Zn112  1  0.18240349  0.92686462  0.43575136  1
  Zn  Zn113  1  0.18956772  0.93685613  0.93412621  1
  Zn  Zn114  1  0.68628626  0.43354404  0.44064317  1
  Zn  Zn115  1  0.67704078  0.43785964  0.92881108  1
  Zn  Zn116  1  0.68831035  0.93977463  0.43380680  1
  Zn  Zn117  1  0.69722477  0.95039892  0.93978177  1
  Zn  Zn118  1  0.30773484  0.06882926  0.06910878  1
  Zn  Zn119  1  0.31219196  0.06123843  0.55372421  1
  Zn  Zn120  1  0.30260809  0.56182190  0.06514665  1
  Zn  Zn121  1  0.31973640  0.56803843  0.56751397  1
  Zn  Zn122  1  0.81452893  0.07126535  0.04920647  1
  Zn  Zn123  1  0.81760369  0.06470835  0.56519432  1
  Zn  Zn124  1  0.81264149  0.56247621  0.06198936  1
  Zn  Zn125  1  0.81106554  0.55686947  0.55988111  1
  Zn  Zn126  1  0.43528436  0.43882770  0.18846349  1
  Zn  Zn127  1  0.42326185  0.43384740  0.67491082  1
  Zn  Zn128  1  0.41861582  0.97844718  0.17172192  1
  Zn  Zn129  1  0.43814218  0.93668675  0.68010099  1
  Zn  Zn130  1  0.93358581  0.43358361  0.18391109  1
  Zn  Zn131  1  0.93773347  0.43397826  0.68981739  1
  Zn  Zn132  1  0.93790952  0.93706103  0.18421278  1
  Zn  Zn133  1  0.94966885  0.94206213  0.81266402  1
  Zn  Zn134  1  0.06024207  0.06745513  0.31105055  1
  Zn  Zn135  1  0.08802442  0.05645546  0.81853268  1
  Zn  Zn136  1  0.06403149  0.55837541  0.31701520  1
  Zn  Zn137  1  0.05695541  0.56951752  0.81612335  1
  Zn  Zn138  1  0.56575370  0.06245677  0.31270562  1
  Zn  Zn139  1  0.56233391  0.06097967  0.80016582  1
  Zn  Zn140  1  0.56288847  0.56942394  0.31238540  1
  Zn  Zn141  1  0.51518327  0.53976134  0.77823511  1
  Zn  Zn142  1  0.43135445  0.18786515  0.42210847  1
  Zn  Zn143  1  0.42780122  0.18802864  0.93778221  1
  Zn  Zn144  1  0.43918104  0.68935650  0.44133250  1
  Zn  Zn145  1  0.44171676  0.69471101  0.93455323  1
  Zn  Zn146  1  0.93924559  0.18756961  0.43327863  1
  Zn  Zn147  1  0.93839687  0.18649863  0.93360616  1
  Zn  Zn148  1  0.94373885  0.67940070  0.44316928  1
  Zn  Zn149  1  0.92370239  0.68421521  0.94074002  1
  Zn  Zn150  1  0.05969048  0.30511770  0.05982726  1
  Zn  Zn151  1  0.05780605  0.30930869  0.56971736  1
  Zn  Zn152  1  0.05990570  0.81441482  0.07097395  1
  Zn  Zn153  1  0.05238666  0.82134872  0.67557705  1
  Zn  Zn154  1  0.55946068  0.31275004  0.05926105  1
  Zn  Zn155  1  0.54232704  0.32295761  0.56467941  1
  Zn  Zn156  1  0.56088399  0.81716223  0.06443255  1
  Zn  Zn157  1  0.56915399  0.81405795  0.56593669  1
  O  O158  1  0.11270315  0.12998841  0.11589877  1
  O  O159  1  0.12282366  0.11720988  0.60777896  1
  O  O160  1  0.10834977  0.64040597  0.10062966  1
  O  O161  1  0.13152854  0.62775521  0.61312987  1
  O  O162  1  0.61890006  0.11473395  0.11936336  1
  O  O163  1  0.60702648  0.12449448  0.61973515  1
  O  O164  1  0.61352762  0.61686894  0.11882060  1
  O  O165  1  0.62808228  0.63266382  0.61004525  1
  O  O166  1  0.38942769  0.37296966  0.37514497  1
  O  O167  1  0.38495957  0.36926988  0.88740643  1
  O  O168  1  0.37295251  0.88050158  0.39078022  1
  O  O169  1  0.38069252  0.88641706  0.88295487  1
  O  O170  1  0.87152797  0.38169901  0.38737236  1
  O  O171  1  0.87043187  0.38119298  0.88404657  1
  O  O172  1  0.86453449  0.88858651  0.37942762  1
  O  O173  1  0.87724203  0.87967363  0.88846177  1
  O  O174  1  0.24837044  -0.00387595  0.36871681  1
  O  O175  1  0.25660066  -0.00648870  0.85426347  1
  O  O176  1  0.23945428  0.50874413  0.34895439  1
  O  O177  1  0.25785715  0.51162706  0.87844290  1
  O  O178  1  0.75580415  0.01437944  0.36966552  1
  O  O179  1  0.77107117  0.01198461  0.86485456  1
  O  O180  1  0.75764668  0.50184729  0.37050232  1
  O  O181  1  0.75113243  0.50956823  0.87220720  1
  O  O182  1  0.23696815  0.52021012  0.14702906  1
  O  O183  1  0.29256949  0.48746922  0.64017247  1
  O  O184  1  0.24977241  0.98604967  0.13852333  1
  O  O185  1  0.24316293  0.99876904  0.62599789  1
  O  O186  1  0.74064641  0.49392576  0.12704885  1
  O  O187  1  0.74978572  0.50631124  0.64213493  1
  O  O188  1  0.73469733  1.00770244  0.11925024  1
  O  O189  1  0.75004183  0.99047746  0.62090775  1
  O  O190  1  0.00906181  0.36813805  0.24153210  1
  O  O191  1  0.01557551  0.37531969  0.75503279  1
  O  O192  1  0.00714718  0.86069178  0.24186589  1
  O  O193  1  -0.01933330  0.84760591  0.76173708  1
  O  O194  1  0.50092629  0.37044909  0.25931429  1
  O  O195  1  0.49651915  0.35233311  0.75054760  1
  O  O196  1  0.51003417  0.86313801  0.24376241  1
  O  O197  1  0.49826507  0.87862177  0.76307585  1
  O  O198  1  0.50178903  0.13906800  0.25489393  1
  O  O199  1  0.48274807  0.13040503  0.74456754  1
  O  O200  1  0.48947217  0.63085463  0.24289584  1
  O  O201  1  0.51226162  0.65110879  0.75860918  1
  O  O202  1  0.99280026  0.13008263  0.23797938  1
  O  O203  1  0.99352737  0.09771076  0.75896817  1
  O  O204  1  0.99734309  0.62690964  0.24265261  1
  O  O205  1  0.99139336  0.62538328  0.74630468  1
  O  O206  1  0.35974193  0.25588646  0.00076590  1
  O  O207  1  0.36198865  0.24308524  0.49895550  1
  O  O208  1  0.37158691  0.76532312  0.00112927  1
  O  O209  1  0.37360030  0.76119403  0.50431551  1
  O  O210  1  0.85494312  0.25693062  -0.00957618  1
  O  O211  1  0.88664705  0.26295072  0.50452790  1
  O  O212  1  0.86426912  0.75780158  0.00880373  1
  O  O213  1  0.86660818  0.75399011  0.49814784  1
  O  O214  1  0.12762466  0.24677620  0.49214895  1
  O  O215  1  0.13738558  0.24956376  0.99249340  1
  O  O216  1  0.13581073  0.73415342  0.49270776  1
  O  O217  1  0.14155450  0.76068337  1.00407880  1
  O  O218  1  0.61660944  0.24837484  0.48775125  1
  O  O219  1  0.62628582  0.24223500  0.99474061  1
  O  O220  1  0.63011406  0.74246581  0.49225369  1
  O  O221  1  0.63000275  0.74042110  1.00945895  1
  O  O222  1  0.50469524  0.25486339  0.14043261  1
  O  O223  1  0.48910071  0.23389253  0.63185186  1
  O  O224  1  0.49808274  0.74278150  0.13269557  1
  O  O225  1  0.49550383  0.76368185  0.63889299  1
  O  O226  1  1.00100837  0.24002475  0.13671888  1
  O  O227  1  0.99511647  0.24091568  0.63625002  1
  O  O228  1  0.98906912  0.73799460  0.13476013  1
  O  O229  1  0.98060967  0.74958937  0.61595571  1
  O  O230  1  0.00820511  0.24326244  0.35697771  1
  O  O231  1  0.01070290  0.24967486  0.87179130  1
  O  O232  1  0.00552609  0.74015538  0.36199514  1
  O  O233  1  0.02615951  0.72444377  0.91731680  1
  O  O234  1  0.50967196  0.25965475  0.37014127  1
  O  O235  1  0.48942972  0.25059607  0.86065864  1
  O  O236  1  0.51137587  0.74292995  0.36482110  1
  O  O237  1  0.49645017  0.77001911  0.86493978  1
  O  O238  1  0.23964042  0.13662371  0.50109243  1
  O  O239  1  0.23981960  0.13988320  1.00959119  1
  O  O240  1  0.24218955  0.62648266  0.50250116  1
  O  O241  1  0.24855269  0.63803130  0.99386270  1
  O  O242  1  0.75539769  0.12591724  0.48556780  1
  O  O243  1  0.73259634  0.14189716  1.00240038  1
  O  O244  1  0.74020711  0.63056268  0.49478491  1
  O  O245  1  0.74147465  0.63155967  0.99574582  1
  O  O246  1  0.26075573  0.36693898  -0.00065802  1
  O  O247  1  0.24799398  0.36975987  0.49717693  1
  O  O248  1  0.25665527  0.87416931  0.00454289  1
  O  O249  1  0.25025145  0.86107072  0.50233213  1
  O  O250  1  0.74621828  0.36471515  0.00088085  1
  O  O251  1  0.76382314  0.37563271  0.50382938  1
  O  O252  1  0.75076975  0.86196928  -0.00812862  1
  O  O253  1  0.75710066  0.86721902  0.50119629  1
  O  O254  1  0.12316663  0.48561915  0.24891084  1
  O  O255  1  0.12539846  0.49439670  0.75579622  1
  O  O256  1  0.13148075  0.98756270  0.26215799  1
  O  O257  1  0.14105549  1.00137030  0.73082935  1
  O  O258  1  0.62919895  0.50136861  0.23879441  1
  O  O259  1  0.62484653  0.50248808  0.74855011  1
  O  O260  1  0.62405573  0.99569668  0.23557898  1
  O  O261  1  0.62244980  0.99817004  0.72799079  1
  O  O262  1  0.35630989  -0.01976087  0.26933053  1
  O  O263  1  0.36574239  0.00390606  0.74898614  1
  O  O264  1  0.36405987  0.51205291  0.24613174  1
  O  O265  1  0.41068219  0.49908901  0.76136778  1
  O  O266  1  0.87518778  0.00910065  0.25399336  1
  O  O267  1  0.92684953  0.04832757  0.76890483  1
  O  O268  1  0.87147581  0.50049323  0.25845346  1
  O  O269  1  0.86364718  0.49608915  0.76174194  1
  O  O270  1  0.12222113  0.36543081  0.36384005  1
  O  O271  1  0.12511126  0.36069974  0.86357015  1
  O  O272  1  0.12392140  0.85586604  0.36395581  1
  O  O273  1  0.10210291  0.90018304  0.87129136  1
  O  O274  1  0.61984509  0.36288689  0.37412675  1
  O  O275  1  0.60102732  0.37653051  0.86842001  1
  O  O276  1  0.63054792  0.86319079  0.36463056  1
  O  O277  1  0.61330753  0.89230969  0.87584354  1
  O  O278  1  0.38623018  0.08730442  0.14430682  1
  O  O279  1  0.38074857  0.12913906  0.62536505  1
  O  O280  1  0.38524980  0.62726503  0.12687003  1
  O  O281  1  0.39187594  0.64654137  0.61554126  1
  O  O282  1  0.88606107  0.12269007  0.12850952  1
  O  O283  1  0.88630909  0.13603231  0.61783111  1
  O  O284  1  0.88268301  0.63020912  0.13018135  1
  O  O285  1  0.87010464  0.63871157  0.61569010  1
  O  O286  1  0.24607844  0.25317293  0.11839688  1
  O  O287  1  0.25669191  0.25662666  0.61115365  1
  O  O288  1  0.25677196  0.76304295  0.11558762  1
  O  O289  1  0.26939405  0.74421622  0.61820728  1
  O  O290  1  0.73668092  0.26183894  0.11968117  1
  O  O291  1  0.77102336  0.23620960  0.62043482  1
  O  O292  1  0.75787190  0.73957322  0.11598454  1
  O  O293  1  0.75060500  0.75757068  0.61154980  1
  O  O294  1  0.23934389  0.25570950  0.38096408  1
  O  O295  1  0.24000960  0.24949812  0.88228446  1
  O  O296  1  0.24307602  0.74923400  0.38538481  1
  O  O297  1  0.25572860  0.74476421  0.88579773  1
  O  O298  1  0.73676198  0.24036857  0.37102353  1
  O  O299  1  0.74172996  0.25261069  0.87905255  1
  O  O300  1  0.74372652  0.74433825  0.38250920  1
  O  O301  1  0.75697749  0.73757503  0.88379044  1
  O  O302  1  0.01006190  0.12976418  0.01121668  1
  O  O303  1  0.00820201  0.11358527  0.49504060  1
  O  O304  1  -0.00310395  0.60977616  0.00627202  1
  O  O305  1  0.01367601  0.61509721  0.50774664  1
  O  O306  1  0.50834240  0.12095681  -0.00777559  1
  O  O307  1  0.49160832  0.12879943  0.50549496  1
  O  O308  1  0.50278335  0.62151305  0.00571303  1
  O  O309  1  0.51467717  0.61622070  0.49316086  1
  O  O310  1  0.50171899  0.38990378  0.48388718  1
  O  O311  1  0.48834554  0.37889821  0.99419303  1
  O  O312  1  0.49619708  0.87171075  0.49598750  1
  O  O313  1  0.49422201  0.88311159  0.98836100  1
  O  O314  1  1.00225292  0.38924827  0.50269324  1
  O  O315  1  0.98431317  0.37457181  1.00180033  1
  O  O316  1  0.98616595  0.88660931  0.49700338  1
  O  O317  1  0.98530622  0.86988850  1.00770545  1
  O  O318  1  0.50939404  0.48756940  0.37420873  1
  O  O319  1  0.50130828  0.49446499  0.89108476  1
  O  O320  1  0.49057032  0.99331804  0.36482517  1
  O  O321  1  0.48964017  0.99445903  0.87965613  1
  O  O322  1  0.98778941  0.50629689  0.38906923  1
  O  O323  1  0.98542560  0.49690290  0.88555512  1
  O  O324  1  0.98618835  1.00687018  0.37952694  1
  O  O325  1  1.04580511  0.96620901  0.88045441  1
  O  O326  1  0.00372868  0.01307328  0.12774438  1
  O  O327  1  0.01753463  0.00300941  0.60956132  1
  O  O328  1  -0.00869453  0.50853376  0.11720673  1
  O  O329  1  -0.00634437  0.50348870  0.61215613  1
  O  O330  1  0.51377272  -0.00910007  0.10457545  1
  O  O331  1  0.50341292  0.01412047  0.62163372  1
  O  O332  1  0.50484955  0.50666947  0.11800681  1
  O  O333  1  0.50789561  0.48898304  0.60652773  1
  O  O334  1  0.24021580  0.38499904  0.24516775  1
  O  O335  1  0.23827319  0.38282791  0.75529944  1
  O  O336  1  0.23971902  0.87832244  0.24662764  1
  O  O337  1  0.25884892  0.88297451  0.74124563  1
  O  O338  1  0.74903267  0.37915367  0.24024419  1
  O  O339  1  0.73753934  0.39433319  0.76031882  1
  O  O340  1  0.73823248  0.87877533  0.24946213  1
  O  O341  1  0.75848397  0.87290397  0.73455554  1
  O  O342  1  0.24371874  0.10575723  0.24692829  1
  O  O343  1  0.25996412  0.11499452  0.73811784  1
  O  O344  1  0.26593369  0.63419532  0.24772632  1
  O  O345  1  0.25123431  0.62490333  0.77147336  1
  O  O346  1  0.75928652  0.12491399  0.25033058  1
  O  O347  1  0.80254943  0.08510072  0.86809820  1
  O  O348  1  0.75596218  0.61746018  0.25347751  1
  O  O349  1  0.74628898  0.61574966  0.75984594  1
  O  O350  1  0.37589547  0.10346573  0.36644120  1
  O  O351  1  0.37480918  0.11332156  0.86394363  1
  O  O352  1  0.37852210  0.62635661  0.36505271  1
  O  O353  1  0.36701359  0.62649296  0.88384674  1
  O  O354  1  0.86382861  0.12105302  0.36526082  1
  O  O355  1  0.86614050  0.09138803  0.92361586  1
  O  O356  1  0.86914058  0.61432791  0.37260285  1
  O  O357  1  0.86076714  0.61386606  0.87644019  1
  O  O358  1  0.12354032  0.37240257  0.13209712  1
  O  O359  1  0.12613689  0.37006783  0.64403656  1
  O  O360  1  0.13257435  0.86824462  0.14090576  1
  O  O361  1  0.12310222  0.88876195  0.61288374  1
  O  O362  1  0.62904807  0.38610428  0.12269740  1
  O  O363  1  0.62911275  0.33805300  0.63113177  1
  O  O364  1  0.62480953  0.88708601  0.12968829  1
  O  O365  1  0.64433251  0.88233640  0.62141108  1
  O  O366  1  0.11987059  0.26119339  0.25293129  1
  O  O367  1  0.12861369  0.23615518  0.76310834  1
  O  O368  1  0.11917480  0.74844873  0.25440062  1
  O  O369  1  0.12504611  0.76371036  0.74390592  1
  O  O370  1  0.61228054  0.25214329  0.26037197  1
  O  O371  1  0.60610339  0.23084578  0.75132383  1
  O  O372  1  0.62050857  0.75502093  0.25255711  1
  O  O373  1  0.61588033  0.76819465  0.74438272  1
  O  O374  1  0.38876266  0.24805527  0.25858756  1
  O  O375  1  0.37033191  0.24263934  0.73653931  1
  O  O376  1  0.38274354  0.74298109  0.25198649  1
  O  O377  1  0.38702854  0.75787559  0.73713702  1
  O  O378  1  0.88181179  0.24127165  0.25520869  1
  O  O379  1  0.87598469  0.25512706  0.73751469  1
  O  O380  1  0.87963990  0.74220880  0.24800862  1
  O  O381  1  0.85824133  0.74139757  0.72972435  1
  O  O382  1  0.39518081  0.50915238  0.49569752  1
  O  O383  1  0.37827761  0.48759217  1.00895273  1
  O  O384  1  0.37434949  0.98870750  0.48810591  1
  O  O385  1  0.37807930  0.99888210  0.99038574  1
  O  O386  1  0.88292559  0.48794463  0.49730168  1
  O  O387  1  0.87425107  0.48927298  0.99210451  1
  O  O388  1  0.88072056  0.99539092  0.49146612  1
  O  O389  1  0.86524896  0.97270286  1.02295501  1
  O  O390  1  0.14080102  0.01878474  0.00187062  1
  O  O391  1  0.12292723  0.00451034  0.49979160  1
  O  O392  1  0.10699120  0.48070999  -0.00630742  1
  O  O393  1  0.11774619  0.50896410  0.49428282  1
  O  O394  1  0.62179513  0.01493649  0.00358385  1
  O  O395  1  0.63048043  -0.00213667  0.51273617  1
  O  O396  1  0.61522349  0.50759466  0.00840746  1
  O  O397  1  0.62207781  0.51433915  0.49496764  1
  O  O398  1  0.37951880  0.37112420  0.11251988  1
  O  O399  1  0.38982872  0.35376419  0.60276910  1
  O  O400  1  0.36946452  0.88297040  0.11196986  1
  O  O401  1  0.37963033  0.86979522  0.60653936  1
  O  O402  1  0.85950522  0.37924784  0.11138663  1
  O  O403  1  0.88089656  0.36330936  0.61412659  1
  O  O404  1  0.87524055  0.85745258  0.12615750  1
  O  O405  1  0.86078153  0.86162967  0.60982826  1
  O  O406  1  0.12198515  0.13704576  0.38255303  1
  O  O407  1  0.12271817  0.13568257  0.89346430  1
  O  O408  1  0.12195608  0.63178818  0.38450183  1
  O  O409  1  0.13715860  0.61428896  0.89254875  1
  O  O410  1  0.63697227  0.13286204  0.37231887  1
  O  O411  1  0.62275012  0.11935311  0.88259923  1
  O  O412  1  0.63278469  0.63671809  0.37775985  1
  O  O413  1  0.63029768  0.62130814  0.88966254  1
