# generated using pymatgen
data_V79Zn79O256
_symmetry_space_group_name_H-M   'P 1'
_cell_length_a   16.83787956
_cell_length_b   16.84972210
_cell_length_c   16.83549489
_cell_angle_alpha   89.90648633
_cell_angle_beta   89.99126040
_cell_angle_gamma   90.02039576
_symmetry_Int_Tables_number   1
_chemical_formula_structural   V79Zn79O256
_chemical_formula_sum   'V79 Zn79 O256'
_cell_volume   4776.45199880
_cell_formula_units_Z   1
loop_
 _symmetry_equiv_pos_site_id
 _symmetry_equiv_pos_as_xyz
  1  'x, y, z'
loop_
 _atom_site_type_symbol
 _atom_site_label
 _atom_site_symmetry_multiplicity
 _atom_site_fract_x
 _atom_site_fract_y
 _atom_site_fract_z
 _atom_site_occupancy
  V  V0  1  0.11483724  0.13115422  0.49915127  1
  V  V1  1  0.63232055  0.26051734  0.38385234  1
  V  V2  1  0.50309554  0.50091827  0.00046351  1
  V  V3  1  0.25213193  0.87334626  0.62694780  1
  V  V4  1  0.50487948  0.75231893  0.25439842  1
  V  V5  1  -0.00419538  0.24193347  0.74597066  1
  V  V6  1  0.26364362  0.25126908  0.50865673  1
  V  V7  1  0.38187334  -0.00392904  0.88428899  1
  V  V8  1  0.50904432  0.00820486  0.51025478  1
  V  V9  1  0.00581063  0.24743575  0.25299877  1
  V  V10  1  0.87258686  0.50137218  0.36864444  1
  V  V11  1  0.11129495  0.74507733  0.87109795  1
  V  V12  1  0.25235308  0.75155991  -0.00285619  1
  V  V13  1  0.48171730  0.37957038  0.37828553  1
  V  V14  1  0.50102679  -0.00956370  0.00941297  1
  V  V15  1  0.74593367  0.11863751  0.38587652  1
  V  V16  1  -0.00974294  0.87883161  0.36504051  1
  V  V17  1  0.24121203  0.61510111  0.37283118  1
  V  V18  1  0.25372132  0.87496792  0.11862104  1
  V  V19  1  0.25380473  0.50210707  0.74541184  1
  V  V20  1  0.88123387  0.75215902  0.12794094  1
  V  V21  1  0.37319002  0.61691136  0.25597590  1
  V  V22  1  0.73927659  0.74323676  0.48822320  1
  V  V23  1  0.11899641  -0.00091510  0.61879570  1
  V  V24  1  0.88389920  0.74533652  0.61603592  1
  V  V25  1  0.49162441  0.63014253  0.63313329  1
  V  V26  1  0.37653593  -0.00132232  0.37763956  1
  V  V27  1  0.87356549  0.12634929  0.25502360  1
  V  V28  1  0.24489181  0.62378087  0.88002984  1
  V  V29  1  0.24876857  0.39170552  0.12849648  1
  V  V30  1  0.00779771  0.51053191  0.49977755  1
  V  V31  1  0.62872083  0.50901868  0.61241905  1
  V  V32  1  -0.00946843  0.89353857  0.87267547  1
  V  V33  1  0.61905190  0.13233091  -0.00998099  1
  V  V34  1  -0.00175588  0.37480644  0.87189970  1
  V  V35  1  0.73521286  0.64811476  0.85469546  1
  V  V36  1  0.77620802  0.11926166  0.88422903  1
  V  V37  1  0.39629592  0.13039403  0.74368096  1
  V  V38  1  0.36744849  0.25283282  0.12534287  1
  V  V39  1  0.12154991  0.00279059  0.12209577  1
  V  V40  1  0.13854346  0.24774883  0.87621203  1
  V  V41  1  0.51482201  0.87480137  0.37428690  1
  V  V42  1  0.50430899  0.36262838  0.87623156  1
  V  V43  1  0.74139722  0.00137399  0.23796209  1
  V  V44  1  0.37725612  0.50616789  0.87353122  1
  V  V45  1  0.37023309  0.37031932  0.00051916  1
  V  V46  1  0.12813547  0.38808322  0.24682412  1
  V  V47  1  0.48015150  0.50608148  0.49486616  1
  V  V48  1  0.50771382  0.12813169  0.12673306  1
  V  V49  1  0.24534354  0.12965061  0.37883739  1
  V  V50  1  0.87687788  0.88943806  0.49539250  1
  V  V51  1  0.74437958  0.25735907  -0.00220800  1
  V  V52  1  0.75169724  0.37475136  0.14151624  1
  V  V53  1  0.01349686  0.62095075  0.12526342  1
  V  V54  1  0.14263551  0.12808826  -0.00184447  1
  V  V55  1  0.50605391  0.25776240  0.25318665  1
  V  V56  1  0.24859789  -0.00079918  0.25070892  1
  V  V57  1  0.73449690  0.86444191  0.63122777  1
  V  V58  1  0.50067590  0.63058133  0.12474508  1
  V  V59  1  0.88407142  0.62600046  0.74264392  1
  V  V60  1  0.01437942  0.50205907  0.00308871  1
  V  V61  1  0.63174788  0.49570605  0.13835628  1
  V  V62  1  0.11615227  0.86290590  0.25254814  1
  V  V63  1  0.23905157  0.75013354  0.48844594  1
  V  V64  1  -0.00752678  0.13262512  0.11652583  1
  V  V65  1  0.87460012  0.62304411  0.24668271  1
  V  V66  1  0.86851140  0.37416947  0.49949622  1
  V  V67  1  0.37683196  0.86919873  0.50136143  1
  V  V68  1  0.86879325  0.24788851  0.62353529  1
  V  V69  1  0.75225899  0.49804241  0.74897827  1
  V  V70  1  0.73653750  0.62465116  0.36880181  1
  V  V71  1  0.62654092  0.87915504  0.22525197  1
  V  V72  1  0.87370711  0.37494328  0.00425272  1
  V  V73  1  0.62047831  0.36958139  0.75402962  1
  V  V74  1  0.24943842  0.00882755  0.75884879  1
  V  V75  1  0.00482684  0.36940553  0.37572471  1
  V  V76  1  0.75220762  0.76110480  0.00912743  1
  V  V77  1  0.37568622  0.12702767  0.25261137  1
  V  V78  1  0.63035341  0.62611075  -0.00378443  1
  Zn  Zn79  1  0.25674534  0.36945505  0.62198485  1
  Zn  Zn80  1  0.38036939  0.75571647  0.11170515  1
  Zn  Zn81  1  0.74230013  0.37141215  0.61825604  1
  Zn  Zn82  1  0.12995775  0.37047634  0.74174159  1
  Zn  Zn83  1  0.68454220  0.18696042  0.54694066  1
  Zn  Zn84  1  0.58306386  0.79701008  0.80872411  1
  Zn  Zn85  1  0.37947335  0.74873215  0.65714447  1
  Zn  Zn86  1  -0.01701456  0.10722357  0.62609566  1
  Zn  Zn87  1  0.87276528  0.89722361  -0.01296118  1
  Zn  Zn88  1  0.02145340  0.63438629  0.62373402  1
  Zn  Zn89  1  0.61640027  0.01493756  0.64736248  1
  Zn  Zn90  1  0.75517735  -0.00579831  0.76924874  1
  Zn  Zn91  1  0.11174542  0.86888439  0.74379318  1
  Zn  Zn92  1  0.87368127  0.50820948  0.87544915  1
  Zn  Zn93  1  0.13232902  0.50084288  0.61734792  1
  Zn  Zn94  1  0.18470639  0.19128709  0.19072154  1
  Zn  Zn95  1  0.18708673  0.18569923  0.68641996  1
  Zn  Zn96  1  0.19127609  0.68700347  0.18686973  1
  Zn  Zn97  1  0.19066952  0.68594087  0.68885987  1
  Zn  Zn98  1  0.68917975  0.19373331  0.19068680  1
  Zn  Zn99  1  0.68821000  0.18302127  0.71495963  1
  Zn  Zn100  1  0.68758220  0.68890016  0.18672031  1
  Zn  Zn101  1  0.68881954  0.68825093  0.67882978  1
  Zn  Zn102  1  0.30706455  0.31192751  0.31275928  1
  Zn  Zn103  1  0.32214306  0.31323908  0.80606125  1
  Zn  Zn104  1  0.31542785  0.81032301  0.30552990  1
  Zn  Zn105  1  0.30382418  0.82195385  0.81586026  1
  Zn  Zn106  1  0.81902853  0.30589694  0.31508124  1
  Zn  Zn107  1  0.81228404  0.31112051  0.81308707  1
  Zn  Zn108  1  0.81104979  0.81477573  0.30688635  1
  Zn  Zn109  1  0.81388000  0.80745902  0.80972431  1
  Zn  Zn110  1  0.19131174  0.43184574  0.43393798  1
  Zn  Zn111  1  0.19056629  0.43162269  0.93483005  1
  Zn  Zn112  1  0.18332383  0.93700047  0.43545450  1
  Zn  Zn113  1  0.17587540  0.93435563  0.93584738  1
  Zn  Zn114  1  0.68592322  0.44002807  0.42939378  1
  Zn  Zn115  1  0.68954700  0.44408803  0.93525854  1
  Zn  Zn116  1  0.69480928  0.93976577  0.44342687  1
  Zn  Zn117  1  0.68424365  0.94243170  0.94331218  1
  Zn  Zn118  1  0.31425470  0.06431129  0.06649635  1
  Zn  Zn119  1  0.31421983  0.06398644  0.56707413  1
  Zn  Zn120  1  0.31471123  0.56761311  0.05995483  1
  Zn  Zn121  1  0.30927735  0.57267311  0.56140850  1
  Zn  Zn122  1  0.80835192  0.06663830  0.06046643  1
  Zn  Zn123  1  0.79546039  0.05466919  0.60560346  1
  Zn  Zn124  1  0.81399859  0.56141454  0.05933259  1
  Zn  Zn125  1  0.81500047  0.56256538  0.55487626  1
  Zn  Zn126  1  0.43944120  0.43833706  0.18865612  1
  Zn  Zn127  1  0.44351599  0.44608551  0.68946255  1
  Zn  Zn128  1  0.43861053  0.93781997  0.18730076  1
  Zn  Zn129  1  0.44291282  0.93018566  0.69835949  1
  Zn  Zn130  1  0.93950903  0.43725780  0.18659600  1
  Zn  Zn131  1  0.93975183  0.43511604  0.68330434  1
  Zn  Zn132  1  0.91795068  0.95972753  0.15800379  1
  Zn  Zn133  1  0.92425572  0.93339429  0.69534101  1
  Zn  Zn134  1  0.05861205  0.05570269  0.31394626  1
  Zn  Zn135  1  0.06410109  0.06479185  0.81091008  1
  Zn  Zn136  1  0.06001711  0.56502246  0.31238222  1
  Zn  Zn137  1  0.06642498  0.55906427  0.81072759  1
  Zn  Zn138  1  0.56706817  0.06642447  0.31847982  1
  Zn  Zn139  1  0.56662442  0.04924296  0.81802802  1
  Zn  Zn140  1  0.55680525  0.56046326  0.31310753  1
  Zn  Zn141  1  0.56320959  0.55867266  0.80947175  1
  Zn  Zn142  1  0.44311676  0.18748743  0.44064668  1
  Zn  Zn143  1  0.42745698  0.17991357  0.93247340  1
  Zn  Zn144  1  0.43858480  0.68811168  0.43752083  1
  Zn  Zn145  1  0.41981296  0.71550044  0.87775150  1
  Zn  Zn146  1  0.93132474  0.18505087  0.43991565  1
  Zn  Zn147  1  0.94198712  0.19834618  0.94352636  1
  Zn  Zn148  1  0.94077324  0.69437359  0.42870188  1
  Zn  Zn149  1  0.92889124  0.68365690  0.93856202  1
  Zn  Zn150  1  0.06679950  0.31163527  0.06278505  1
  Zn  Zn151  1  0.06423888  0.31647394  0.56293810  1
  Zn  Zn152  1  0.06152076  0.81150402  0.05278227  1
  Zn  Zn153  1  0.05943318  0.81935576  0.55248648  1
  Zn  Zn154  1  0.56351680  0.31427571  0.06506228  1
  Zn  Zn155  1  0.55120109  0.32506921  0.56486364  1
  Zn  Zn156  1  0.55885013  0.81087615  -0.02935593  1
  Zn  Zn157  1  0.55998069  0.80965986  0.55805861  1
  O  O158  1  0.12392100  0.12440973  0.11447893  1
  O  O159  1  0.12373058  0.11298188  0.61505692  1
  O  O160  1  0.11277071  0.62466622  0.12939495  1
  O  O161  1  0.13196468  0.61436873  0.62553223  1
  O  O162  1  0.61187158  0.13731093  0.12046472  1
  O  O163  1  0.68006179  0.11042622  0.62936336  1
  O  O164  1  0.62214043  0.61302848  0.11962008  1
  O  O165  1  0.61670828  0.61351262  0.62319725  1
  O  O166  1  0.38261188  0.37316345  0.37595803  1
  O  O167  1  0.38329356  0.38252889  0.88421942  1
  O  O168  1  0.38113759  0.88459485  0.37893767  1
  O  O169  1  0.36202814  0.89706784  0.88308574  1
  O  O170  1  0.88202275  0.38213619  0.37832430  1
  O  O171  1  0.88533001  0.37695755  0.88135522  1
  O  O172  1  0.87782529  0.87726149  0.38150251  1
  O  O173  1  0.88282568  0.87663373  0.87159294  1
  O  O174  1  0.25931679  0.00607296  0.37363858  1
  O  O175  1  0.24602277  -0.00235163  0.86265377  1
  O  O176  1  0.25204086  0.51590377  0.38311434  1
  O  O177  1  0.25779524  0.50290536  0.87092203  1
  O  O178  1  0.74270492  0.01573438  0.36657321  1
  O  O179  1  0.75735124  0.01437938  0.89206155  1
  O  O180  1  0.76022004  0.51468222  0.38028924  1
  O  O181  1  0.74997679  0.51251430  0.85953698  1
  O  O182  1  0.25500281  0.49143756  0.12495710  1
  O  O183  1  0.26283965  0.49722556  0.63722963  1
  O  O184  1  0.24272373  0.99549676  0.12891349  1
  O  O185  1  0.24289288  0.99051255  0.63045131  1
  O  O186  1  0.73905730  0.49270594  0.12329929  1
  O  O187  1  0.74028023  0.50069326  0.62598822  1
  O  O188  1  0.73644703  1.01604076  0.13988624  1
  O  O189  1  0.72079176  0.96124161  0.59769134  1
  O  O190  1  0.00728086  0.36855432  0.25297167  1
  O  O191  1  0.00382390  0.36977331  0.75875099  1
  O  O192  1  0.00892660  0.88142842  0.25356680  1
  O  O193  1  -0.00447556  0.87515342  0.76276605  1
  O  O194  1  0.49576293  0.37001345  0.26421716  1
  O  O195  1  0.51311773  0.38617030  0.76113219  1
  O  O196  1  0.50837115  0.87271213  0.25399053  1
  O  O197  1  0.49732498  0.84217590  0.74464278  1
  O  O198  1  0.49592033  0.13432361  0.24733356  1
  O  O199  1  0.49691202  0.11484350  0.75263613  1
  O  O200  1  0.49417351  0.63270512  0.24632138  1
  O  O201  1  0.50312809  0.61849553  0.73365112  1
  O  O202  1  0.99432340  0.13058356  0.25023367  1
  O  O203  1  1.00187752  0.13672416  0.74373617  1
  O  O204  1  0.99130404  0.61651941  0.23356670  1
  O  O205  1  0.98797052  0.61247594  0.74336339  1
  O  O206  1  0.38312022  0.26117255  0.01121750  1
  O  O207  1  0.36304920  0.24245770  0.49908324  1
  O  O208  1  0.35726262  0.75027198  -0.00938592  1
  O  O209  1  0.36935425  0.76334691  0.49688995  1
  O  O210  1  0.86797907  0.26749131  0.00471757  1
  O  O211  1  0.88228468  0.26340932  0.51079248  1
  O  O212  1  0.86688922  0.74505962  0.01513441  1
  O  O213  1  0.86857903  0.74962140  0.50559282  1
  O  O214  1  0.13183756  0.23382258  0.50452026  1
  O  O215  1  0.12333509  0.24111705  0.98845759  1
  O  O216  1  0.14002790  0.75613567  0.50069818  1
  O  O217  1  0.13547485  0.75234806  0.98210667  1
  O  O218  1  0.61496752  0.25674617  0.49292985  1
  O  O219  1  0.63332452  0.24798608  1.00183277  1
  O  O220  1  0.64018624  0.75059178  0.49349731  1
  O  O221  1  0.64491356  0.73781727  1.01512628  1
  O  O222  1  0.49212522  0.25005464  0.13545418  1
  O  O223  1  0.44817984  0.29694983  0.62137767  1
  O  O224  1  0.50142017  0.73570915  0.12854603  1
  O  O225  1  0.49827677  0.73245822  0.61521335  1
  O  O226  1  1.00794026  0.23842842  0.13505843  1
  O  O227  1  0.99082572  0.25461546  0.63300680  1
  O  O228  1  0.99197692  0.72963613  0.11167802  1
  O  O229  1  0.98863842  0.74915454  0.61435183  1
  O  O230  1  -0.00714916  0.26203258  0.37023867  1
  O  O231  1  0.00308182  0.25788312  0.86564042  1
  O  O232  1  -0.00115803  0.77455196  0.37554091  1
  O  O233  1  0.01020788  0.73806392  0.87583084  1
  O  O234  1  0.50522885  0.26203957  0.37386350  1
  O  O235  1  0.49652853  0.26410442  0.88407003  1
  O  O236  1  0.49602702  0.76159920  0.36503884  1
  O  O237  1  0.52590943  0.73446177  0.89380196  1
  O  O238  1  0.24383349  0.13061832  0.49677030  1
  O  O239  1  0.24195345  0.13103075  1.00271205  1
  O  O240  1  0.25764283  0.64064175  0.48493095  1
  O  O241  1  0.24828638  0.63046400  0.98965449  1
  O  O242  1  0.75909064  0.12014215  0.48626829  1
  O  O243  1  0.74131445  0.13650747  0.99913868  1
  O  O244  1  0.75449773  0.63356750  0.48409081  1
  O  O245  1  0.74334808  0.62658748  0.98985004  1
  O  O246  1  0.26291663  0.37868763  0.00922325  1
  O  O247  1  0.24807828  0.35555461  0.49698458  1
  O  O248  1  0.23875479  0.87029074  0.01063594  1
  O  O249  1  0.25591693  0.86879421  0.50440830  1
  O  O250  1  0.75532817  0.37342160  0.00094676  1
  O  O251  1  0.76330106  0.38225545  0.49642249  1
  O  O252  1  0.75467090  0.86329241  0.00608903  1
  O  O253  1  0.76024922  0.85695911  0.49427493  1
  O  O254  1  0.11744173  0.48667228  0.24534006  1
  O  O255  1  0.14495365  0.49273883  0.75544555  1
  O  O256  1  0.13224299  0.99826571  0.23949537  1
  O  O257  1  0.13607895  1.00188379  0.73868259  1
  O  O258  1  0.62104511  0.50176768  0.23718067  1
  O  O259  1  0.63420655  0.49529166  0.73734557  1
  O  O260  1  0.63186271  0.99543767  0.25358836  1
  O  O261  1  0.64054645  0.99343497  0.75653626  1
  O  O262  1  0.37069049  0.00495625  0.25929748  1
  O  O263  1  0.36685610  0.00107804  0.76085107  1
  O  O264  1  0.38158967  0.51727672  0.24851703  1
  O  O265  1  0.36827161  0.49320607  0.76318691  1
  O  O266  1  0.85817604  0.01469928  0.24398026  1
  O  O267  1  0.84744650  0.01310619  0.70363964  1
  O  O268  1  0.87852431  0.50522385  0.25968434  1
  O  O269  1  0.86762394  0.50351289  0.74648559  1
  O  O270  1  0.11521841  0.37877849  0.36069997  1
  O  O271  1  0.11544933  0.36076381  0.87802244  1
  O  O272  1  0.11904748  0.87989246  0.35854908  1
  O  O273  1  0.10915540  0.86421867  0.87045494  1
  O  O274  1  0.62007188  0.36415458  0.37447446  1
  O  O275  1  0.61993173  0.38295894  0.86350823  1
  O  O276  1  0.61555009  0.87952848  0.37316742  1
  O  O277  1  0.62031186  0.86983509  0.89107522  1
  O  O278  1  0.38182214  0.13643117  0.13211970  1
  O  O279  1  0.37848361  0.11492479  0.64346713  1
  O  O280  1  0.38457738  0.62719644  0.13295631  1
  O  O281  1  0.38602156  0.62864643  0.62656746  1
  O  O282  1  0.88888997  0.12900198  0.13294339  1
  O  O283  1  0.87482482  0.14498393  0.61011628  1
  O  O284  1  0.88070155  0.62439597  0.13223382  1
  O  O285  1  0.87800721  0.63295695  0.62366557  1
  O  O286  1  0.26368073  0.25973590  0.13489283  1
  O  O287  1  0.25130364  0.24808157  0.61395154  1
  O  O288  1  0.24964971  0.75722024  0.11447707  1
  O  O289  1  0.25654727  0.75881925  0.61811958  1
  O  O290  1  0.74365780  0.26825317  0.11757496  1
  O  O291  1  0.76089428  0.25335728  0.62580810  1
  O  O292  1  0.76612431  0.74115519  0.11840975  1
  O  O293  1  0.75893476  0.74832125  0.60532922  1
  O  O294  1  0.25247288  0.23528366  0.38344101  1
  O  O295  1  0.23670058  0.25653471  0.86999162  1
  O  O296  1  0.25204793  0.75182971  0.38463121  1
  O  O297  1  0.24286968  0.74145488  0.87871254  1
  O  O298  1  0.73707564  0.24725879  0.37502124  1
  O  O299  1  0.75985658  0.24098360  0.89132891  1
  O  O300  1  0.75643394  0.73715299  0.37853225  1
  O  O301  1  0.76719896  0.74599719  0.89948809  1
  O  O302  1  0.00654836  0.13325192  0.01495800  1
  O  O303  1  0.01121679  0.12741869  0.50200992  1
  O  O304  1  -0.00453561  0.60849312  0.00622004  1
  O  O305  1  -0.00237123  0.61297015  0.49293390  1
  O  O306  1  0.50377516  0.12893236  0.00955624  1
  O  O307  1  0.49519304  0.10814954  0.50279132  1
  O  O308  1  0.51025497  0.61242072  0.01025478  1
  O  O309  1  0.49671168  0.61133828  0.50261653  1
  O  O310  1  0.49910009  0.39030094  0.48574869  1
  O  O311  1  0.49587933  0.38443484  0.99727053  1
  O  O312  1  0.49406581  0.87948931  0.49182443  1
  O  O313  1  0.49647800  0.89209136  1.02294578  1
  O  O314  1  0.99305338  0.38238393  0.49029156  1
  O  O315  1  0.99486907  0.38145816  0.99702081  1
  O  O316  1  0.98358778  0.87886388  0.49074455  1
  O  O317  1  0.99342279  0.86694072  0.97868593  1
  O  O318  1  0.49906663  0.49167205  0.38331652  1
  O  O319  1  0.49501028  0.49529665  0.88427160  1
  O  O320  1  0.49211249  0.99498269  0.38144911  1
  O  O321  1  0.48999464  0.99684992  0.89290964  1
  O  O322  1  0.99246407  0.49246873  0.38009660  1
  O  O323  1  1.00006062  0.49175853  0.88425712  1
  O  O324  1  0.99960291  0.98262058  0.37571846  1
  O  O325  1  1.00233571  0.99324287  0.87486776  1
  O  O326  1  0.01561931  0.02234252  0.13588958  1
  O  O327  1  0.01589039  -0.00643098  0.63190624  1
  O  O328  1  -0.00053539  0.50501237  0.11224805  1
  O  O329  1  -0.00169062  0.50150989  0.60638298  1
  O  O330  1  0.48797112  0.01692676  0.11790733  1
  O  O331  1  0.50767788  -0.01306301  0.61491000  1
  O  O332  1  0.51085338  0.50353672  0.11971068  1
  O  O333  1  0.50688281  0.50766129  0.61194789  1
  O  O334  1  0.23611374  0.37473836  0.24766718  1
  O  O335  1  0.25510868  0.38507161  0.74573764  1
  O  O336  1  0.23804814  0.87885207  0.24131397  1
  O  O337  1  0.24497696  0.88631525  0.73908520  1
  O  O338  1  0.75510482  0.37106983  0.24056105  1
  O  O339  1  0.74011438  0.38274827  0.75024439  1
  O  O340  1  0.74302094  0.89182191  0.25159633  1
  O  O341  1  0.75974399  0.87214252  0.73110886  1
  O  O342  1  0.25381848  0.12133441  0.25866535  1
  O  O343  1  0.25364944  0.11032375  0.74519971  1
  O  O344  1  0.26415998  0.63340673  0.25854471  1
  O  O345  1  0.25358181  0.60970142  0.76144939  1
  O  O346  1  0.75266919  0.12245106  0.25753874  1
  O  O347  1  0.76025926  0.13172131  0.78416150  1
  O  O348  1  0.75761312  0.62754395  0.26089246  1
  O  O349  1  0.76283782  0.61241834  0.74273445  1
  O  O350  1  0.36919519  0.11565118  0.37332494  1
  O  O351  1  0.37372390  0.10796026  0.86221737  1
  O  O352  1  0.37155283  0.63105826  0.36056865  1
  O  O353  1  0.36550499  0.61165024  0.88065781  1
  O  O354  1  0.85815695  0.13422631  0.36687436  1
  O  O355  1  0.87574177  0.12051817  0.89423792  1
  O  O356  1  0.87663722  0.61836622  0.36307099  1
  O  O357  1  0.86042147  0.62949153  0.85792244  1
  O  O358  1  0.13453656  0.36885750  0.13644933  1
  O  O359  1  0.13375332  0.38369489  0.62449125  1
  O  O360  1  0.12538793  0.88465478  0.13022604  1
  O  O361  1  0.13148251  0.88385740  0.62211997  1
  O  O362  1  0.63485107  0.38705889  0.12418838  1
  O  O363  1  0.62190086  0.38811390  0.63476828  1
  O  O364  1  0.62519319  0.87972090  0.12901517  1
  O  O365  1  0.63624202  0.83715488  0.63871059  1
  O  O366  1  0.11255350  0.25571986  0.25388137  1
  O  O367  1  0.11813251  0.24792600  0.76100106  1
  O  O368  1  0.12327340  0.76446136  0.24166825  1
  O  O369  1  0.13223584  0.75230984  0.76484076  1
  O  O370  1  0.61252009  0.24829505  0.26384019  1
  O  O371  1  0.62441779  0.27013889  0.74366454  1
  O  O372  1  0.61353856  0.76010508  0.24151183  1
  O  O373  1  0.67520741  0.72148379  0.78690125  1
  O  O374  1  0.38419463  0.24754347  0.24639922  1
  O  O375  1  0.37946541  0.23027926  0.75874085  1
  O  O376  1  0.38997774  0.74664637  0.24085600  1
  O  O377  1  0.38775060  0.75907405  0.77153261  1
  O  O378  1  0.88828131  0.23968487  0.25050537  1
  O  O379  1  0.88151665  0.25851142  0.73450742  1
  O  O380  1  0.87146155  0.73649609  0.23919610  1
  O  O381  1  0.86724706  0.73844078  0.72776850  1
  O  O382  1  0.38169544  0.49903343  0.50376942  1
  O  O383  1  0.38473417  0.49203799  0.99586524  1
  O  O384  1  0.38146665  0.98981377  0.49495057  1
  O  O385  1  0.38499643  1.01273004  0.99329776  1
  O  O386  1  0.88497500  0.49400228  0.48867316  1
  O  O387  1  0.88158405  0.49010265  0.99430970  1
  O  O388  1  0.86206422  0.98496425  0.51199975  1
  O  O389  1  0.88269062  0.98702907  1.05010389  1
  O  O390  1  0.12967235  0.01662000  0.00797852  1
  O  O391  1  0.13103378  0.00700512  0.51285721  1
  O  O392  1  0.11362079  0.49339184  -0.00344800  1
  O  O393  1  0.11018475  0.49468299  0.49202683  1
  O  O394  1  0.60600846  0.01370775  0.00245584  1
  O  O395  1  0.60836945  -0.00178669  0.49308400  1
  O  O396  1  0.61935668  0.50518224  0.00763267  1
  O  O397  1  0.62263187  0.49555386  0.51080205  1
  O  O398  1  0.37009032  0.37223115  0.12097829  1
  O  O399  1  0.39791358  0.35941556  0.62357197  1
  O  O400  1  0.35889796  0.87550929  0.13073841  1
  O  O401  1  0.36782764  0.87399646  0.61772802  1
  O  O402  1  0.85887073  0.38688005  0.11915122  1
  O  O403  1  0.87080073  0.37009311  0.61537422  1
  O  O404  1  0.89065499  0.85039251  0.13582288  1
  O  O405  1  0.86653761  0.85881909  0.61072081  1
  O  O406  1  0.13294308  0.11224008  0.39026131  1
  O  O407  1  0.12174450  0.13530610  0.88734060  1
  O  O408  1  0.14155811  0.62719061  0.36163131  1
  O  O409  1  0.13313093  0.63316726  0.87011682  1
  O  O410  1  0.63576688  0.14050154  0.37756047  1
  O  O411  1  0.62506135  0.12703988  0.88918981  1
  O  O412  1  0.63733395  0.62105505  0.36871793  1
  O  O413  1  0.63273924  0.61165605  0.88634170  1
