# generated using pymatgen
data_V79Zn79O256
_symmetry_space_group_name_H-M   'P 1'
_cell_length_a   16.90972070
_cell_length_b   16.91501848
_cell_length_c   16.92188790
_cell_angle_alpha   90.14238314
_cell_angle_beta   90.14324133
_cell_angle_gamma   89.86315065
_symmetry_Int_Tables_number   1
_chemical_formula_structural   V79Zn79O256
_chemical_formula_sum   'V79 Zn79 O256'
_cell_volume   4840.09397627
_cell_formula_units_Z   1
loop_
 _symmetry_equiv_pos_site_id
 _symmetry_equiv_pos_as_xyz
  1  'x, y, z'
loop_
 _atom_site_type_symbol
 _atom_site_label
 _atom_site_symmetry_multiplicity
 _atom_site_fract_x
 _atom_site_fract_y
 _atom_site_fract_z
 _atom_site_occupancy
  V  V0  1  0.00440587  0.87708187  0.37351718  1
  V  V1  1  0.75130292  0.49736128  0.73877040  1
  V  V2  1  0.37316878  -0.00255809  0.87737439  1
  V  V3  1  0.01003006  0.10917407  0.10875274  1
  V  V4  1  0.87969995  0.74509690  0.62664966  1
  V  V5  1  0.12320832  0.88802828  0.24823856  1
  V  V6  1  0.50010754  0.87415850  0.37562664  1
  V  V7  1  0.62310753  0.49900805  0.62162071  1
  V  V8  1  0.61823237  0.62250524  0.49977165  1
  V  V9  1  0.37118258  0.38684706  -0.00432869  1
  V  V10  1  0.87242379  0.24632788  0.12353189  1
  V  V11  1  0.88110216  0.62728627  0.74398325  1
  V  V12  1  0.74539896  0.87867924  0.11870197  1
  V  V13  1  0.25190161  -0.00623914  0.75070025  1
  V  V14  1  0.62751819  0.74514314  0.37734276  1
  V  V15  1  0.37493105  0.37470310  0.51322870  1
  V  V16  1  0.87205021  0.10815743  0.75499386  1
  V  V17  1  0.18823052  0.68842854  0.94045434  1
  V  V18  1  0.00082550  0.00080621  0.49975283  1
  V  V19  1  0.62620431  0.00246449  0.63014168  1
  V  V20  1  0.13220403  0.37542898  0.74843106  1
  V  V21  1  0.37120994  0.74673231  0.12773204  1
  V  V22  1  0.13367661  0.50359194  0.61971643  1
  V  V23  1  0.87696404  0.25567459  0.62787614  1
  V  V24  1  0.74786758  0.12551401  0.36761693  1
  V  V25  1  0.12022051  0.50795098  0.12631708  1
  V  V26  1  0.00322198  0.37545236  0.87883096  1
  V  V27  1  0.50202389  0.75129991  0.75143204  1
  V  V28  1  0.62584711  0.13384858  0.50045787  1
  V  V29  1  0.74351754  0.25025965  -0.01932631  1
  V  V30  1  0.38285628  0.50053162  0.37980288  1
  V  V31  1  0.24909724  0.13299341  0.37546578  1
  V  V32  1  0.75546495  0.25712238  0.49867033  1
  V  V33  1  0.87368322  0.87519824  0.49958743  1
  V  V34  1  0.24809187  0.87536765  0.12638351  1
  V  V35  1  0.00757630  0.74963630  0.24872669  1
  V  V36  1  0.62669155  0.37208843  0.74593746  1
  V  V37  1  0.26229946  0.24213037  0.00242118  1
  V  V38  1  0.37406123  0.00258547  0.37461436  1
  V  V39  1  0.87670192  0.50187851  0.87267363  1
  V  V40  1  0.37228074  0.62205193  0.76507119  1
  V  V41  1  0.87024509  0.37220966  -0.00136017  1
  V  V42  1  0.49674053  0.62073328  0.62314609  1
  V  V43  1  0.63448234  0.88094771  0.25485230  1
  V  V44  1  0.74847827  0.87907645  0.63100934  1
  V  V45  1  0.24477411  0.11427395  0.87804402  1
  V  V46  1  0.62643798  0.74868036  0.88041457  1
  V  V47  1  0.86638502  0.62936015  0.26164170  1
  V  V48  1  0.13302639  -0.00336891  0.62516608  1
  V  V49  1  0.62042787  0.12340104  -0.00394355  1
  V  V50  1  0.74867545  0.74407351  0.49974993  1
  V  V51  1  0.12041135  0.86396654  0.74977674  1
  V  V52  1  0.49819747  0.00968921  0.50834165  1
  V  V53  1  0.00253058  0.24764318  0.75357272  1
  V  V54  1  0.38603799  0.13826626  0.23713275  1
  V  V55  1  0.25337624  0.50159560  0.76894815  1
  V  V56  1  0.87174474  0.74430199  0.12049509  1
  V  V57  1  0.36881478  0.75060405  0.62338414  1
  V  V58  1  0.37009158  0.62062519  0.25429361  1
  V  V59  1  0.87349861  0.12230597  0.24310899  1
  V  V60  1  0.49984434  0.36136716  0.36430874  1
  V  V61  1  0.37702245  0.87082880  0.00382718  1
  V  V62  1  0.86706357  -0.00040522  0.36797496  1
  V  V63  1  0.74969100  0.62763830  0.87710803  1
  V  V64  1  0.69236815  0.42838488  0.19141458  1
  V  V65  1  0.00134859  0.51562955  0.00602215  1
  V  V66  1  0.23856194  0.74662674  0.49332388  1
  V  V67  1  0.00304601  0.12138603  0.62762003  1
  V  V68  1  0.49470290  0.37906292  0.86370821  1
  V  V69  1  0.25119152  0.37343864  0.13300929  1
  V  V70  1  0.22988893  0.61730501  0.37588010  1
  V  V71  1  0.24906793  0.25738547  0.51338160  1
  V  V72  1  0.89189822  0.36969817  0.48964691  1
  V  V73  1  0.36798353  0.87653902  0.50520158  1
  V  V74  1  0.00139325  0.50457877  0.49592435  1
  V  V75  1  0.12606026  0.24416008  0.88621847  1
  V  V76  1  0.09717663  0.36778634  0.24757640  1
  V  V77  1  0.24698869  0.00357953  0.24725315  1
  V  V78  1  0.62740425  0.61782704  0.00662117  1
  Zn  Zn79  1  0.58964587  0.21803838  0.82802254  1
  Zn  Zn80  1  0.49811548  0.00653237  0.01115581  1
  Zn  Zn81  1  0.50719719  0.61979428  0.13122070  1
  Zn  Zn82  1  0.11156686  0.26505084  0.37497891  1
  Zn  Zn83  1  0.50278630  0.87537237  0.88027949  1
  Zn  Zn84  1  0.86988754  0.88153818  -0.00877486  1
  Zn  Zn85  1  0.62710254  0.88061007  0.75409536  1
  Zn  Zn86  1  0.12418346  0.13115874  0.49849635  1
  Zn  Zn87  1  0.62172063  0.02390510  0.14596337  1
  Zn  Zn88  1  0.50147924  0.50102116  0.00396198  1
  Zn  Zn89  1  0.75367791  0.10355939  0.86739847  1
  Zn  Zn90  1  0.85037894  0.48227929  0.34754626  1
  Zn  Zn91  1  0.50060145  0.74738763  0.25113580  1
  Zn  Zn92  1  -0.00165560  0.84498924  0.86118632  1
  Zn  Zn93  1  0.00721623  0.62913460  0.62451158  1
  Zn  Zn94  1  0.18555056  0.18775830  0.18626281  1
  Zn  Zn95  1  0.19087886  0.18391460  0.69563711  1
  Zn  Zn96  1  0.18765819  0.69037542  0.19325283  1
  Zn  Zn97  1  0.19267084  0.68136351  0.68670414  1
  Zn  Zn98  1  0.66415671  0.23185612  0.15974453  1
  Zn  Zn99  1  0.69532818  0.18359060  0.68013156  1
  Zn  Zn100  1  0.69256846  0.69104982  0.19218511  1
  Zn  Zn101  1  0.69060394  0.68688154  0.68697075  1
  Zn  Zn102  1  0.31255751  0.31152404  0.31650757  1
  Zn  Zn103  1  0.31197990  0.30900423  0.81073040  1
  Zn  Zn104  1  0.30853233  0.80935677  0.31461963  1
  Zn  Zn105  1  0.31186460  0.81135245  0.80918283  1
  Zn  Zn106  1  0.78544796  0.30617292  0.29854146  1
  Zn  Zn107  1  0.81476540  0.31356280  0.80652360  1
  Zn  Zn108  1  0.81384332  0.80960915  0.31236617  1
  Zn  Zn109  1  0.81271093  0.81439680  0.81133184  1
  Zn  Zn110  1  0.18654703  0.43627038  0.43064883  1
  Zn  Zn111  1  0.18493430  0.43773415  0.94395610  1
  Zn  Zn112  1  0.18712755  0.94057298  0.43716122  1
  Zn  Zn113  1  0.19151022  0.85167641  0.93429665  1
  Zn  Zn114  1  0.67874546  0.45448584  0.38051291  1
  Zn  Zn115  1  0.68701070  0.43923224  0.92988923  1
  Zn  Zn116  1  0.68638948  0.93851825  0.44399393  1
  Zn  Zn117  1  0.68537196  0.93432525  0.94159216  1
  Zn  Zn118  1  0.31350498  0.06087245  0.06250260  1
  Zn  Zn119  1  0.31468711  0.07658352  0.56934652  1
  Zn  Zn120  1  0.30506347  0.56143843  0.06526219  1
  Zn  Zn121  1  0.30958407  0.56312369  0.56046410  1
  Zn  Zn122  1  0.79452256  0.06554112  0.06187469  1
  Zn  Zn123  1  0.81208170  0.06491084  0.56177520  1
  Zn  Zn124  1  0.81073063  0.56050258  0.06910890  1
  Zn  Zn125  1  0.78863593  0.53237405  0.52520381  1
  Zn  Zn126  1  0.43654797  0.43995365  0.18715134  1
  Zn  Zn127  1  0.43484369  0.43985680  0.68859520  1
  Zn  Zn128  1  0.44172850  0.94290625  0.18753068  1
  Zn  Zn129  1  0.43645529  0.93822913  0.68933285  1
  Zn  Zn130  1  0.89845891  0.42938364  0.19831499  1
  Zn  Zn131  1  0.94478207  0.44132168  0.68491716  1
  Zn  Zn132  1  0.93277894  0.93801727  0.18290158  1
  Zn  Zn133  1  0.93978677  0.93267316  0.68404097  1
  Zn  Zn134  1  0.04772188  0.09285670  0.32047915  1
  Zn  Zn135  1  0.06493593  0.05463206  0.81778254  1
  Zn  Zn136  1  0.04227171  0.54897372  0.30107793  1
  Zn  Zn137  1  0.06464674  0.57005794  0.81658528  1
  Zn  Zn138  1  0.56132839  0.06639517  0.31915834  1
  Zn  Zn139  1  0.55248715  0.05999351  0.81379982  1
  Zn  Zn140  1  0.56087660  0.55684067  0.30586624  1
  Zn  Zn141  1  0.56005430  0.55903075  0.81506777  1
  Zn  Zn142  1  0.43341675  0.19135371  0.43957567  1
  Zn  Zn143  1  0.44526123  0.18362277  0.90629065  1
  Zn  Zn144  1  0.43525734  0.68844157  0.43780245  1
  Zn  Zn145  1  0.44019613  0.69069314  0.94418698  1
  Zn  Zn146  1  0.93741350  0.18722914  0.43424214  1
  Zn  Zn147  1  0.93872850  0.18117731  0.93828255  1
  Zn  Zn148  1  0.94444904  0.69049113  0.43943637  1
  Zn  Zn149  1  0.93425090  0.70062562  0.92812007  1
  Zn  Zn150  1  0.05724048  0.30632351  0.06979183  1
  Zn  Zn151  1  0.06755476  0.31090637  0.56703294  1
  Zn  Zn152  1  0.06266982  0.81408310  0.06723544  1
  Zn  Zn153  1  0.06247423  0.81664233  0.56609692  1
  Zn  Zn154  1  0.55409338  0.32527401  0.07192351  1
  Zn  Zn155  1  0.58866288  0.34754374  0.51822597  1
  Zn  Zn156  1  0.56013723  0.80780202  0.06798543  1
  Zn  Zn157  1  0.55873900  0.81478119  0.56432627  1
  O  O158  1  0.10795427  0.12623420  0.13003379  1
  O  O159  1  0.11620032  0.11726461  0.62806492  1
  O  O160  1  0.13365003  0.60655307  0.13462128  1
  O  O161  1  0.12401103  0.60877308  0.62952039  1
  O  O162  1  0.64795198  0.12737588  0.10121216  1
  O  O163  1  0.63271112  0.11442659  0.61154555  1
  O  O164  1  0.63166072  0.63538528  0.10963048  1
  O  O165  1  0.61484478  0.62206461  0.62103815  1
  O  O166  1  0.37872890  0.38691552  0.37645681  1
  O  O167  1  0.38497487  0.36973238  0.87965734  1
  O  O168  1  0.38056623  0.88264588  0.38287124  1
  O  O169  1  0.37045548  0.87850033  0.88845916  1
  O  O170  1  0.88841303  0.36871900  0.39116413  1
  O  O171  1  0.88543200  0.38146648  0.87706149  1
  O  O172  1  0.88052539  0.88244337  0.37885187  1
  O  O173  1  0.88778452  0.83444716  0.88878502  1
  O  O174  1  0.26138169  0.00396862  0.37032084  1
  O  O175  1  0.25396725  0.00117643  0.87134234  1
  O  O176  1  0.25759876  0.51465421  0.38213825  1
  O  O177  1  0.24644328  0.50007000  0.86720067  1
  O  O178  1  0.76027899  0.00831546  0.38735593  1
  O  O179  1  0.78128816  -0.00909616  0.90461140  1
  O  O180  1  0.76672059  0.50773709  0.41583626  1
  O  O181  1  0.75633116  0.50910753  0.86253424  1
  O  O182  1  0.23081112  0.48153505  0.11252128  1
  O  O183  1  0.23696391  0.49938179  0.62585754  1
  O  O184  1  0.25846010  0.99011576  0.13975051  1
  O  O185  1  0.24451744  1.01276990  0.63574570  1
  O  O186  1  0.76051203  0.48369418  0.13454552  1
  O  O187  1  0.73796984  0.50752304  0.62981081  1
  O  O188  1  0.73862333  0.98315566  0.12492849  1
  O  O189  1  0.74003428  0.98966029  0.61479089  1
  O  O190  1  -0.00149481  0.37049921  0.24058801  1
  O  O191  1  0.00865803  0.37164290  0.76289283  1
  O  O192  1  0.00550371  0.87759387  0.25643870  1
  O  O193  1  0.01474808  0.87434529  0.74439868  1
  O  O194  1  0.49534069  0.38131989  0.26555402  1
  O  O195  1  0.50322353  0.37657222  0.75789590  1
  O  O196  1  0.50625926  0.87390437  0.26592133  1
  O  O197  1  0.49984993  0.86058390  0.75153288  1
  O  O198  1  0.48375887  0.12009320  0.25923119  1
  O  O199  1  0.49488372  0.15510285  0.80305614  1
  O  O200  1  0.48703858  0.62600938  0.25101487  1
  O  O201  1  0.49252726  0.63168437  0.74387839  1
  O  O202  1  0.97751936  0.11826367  0.23089650  1
  O  O203  1  0.99583321  0.12567158  0.74504960  1
  O  O204  1  1.00599960  0.64936488  0.25302921  1
  O  O205  1  0.98469492  0.61303020  0.74589979  1
  O  O206  1  0.36294237  0.25426691  -0.00737903  1
  O  O207  1  0.35987107  0.26132648  0.49805684  1
  O  O208  1  0.37636060  0.75688213  0.01499541  1
  O  O209  1  0.36960612  0.75838691  0.50539783  1
  O  O210  1  0.86842802  0.25715026  -0.00586703  1
  O  O211  1  0.87925630  0.25456981  0.50683496  1
  O  O212  1  0.88433151  0.74802641  0.02055702  1
  O  O213  1  0.86600872  0.75413496  0.50458920  1
  O  O214  1  0.13627874  0.25220291  0.49484960  1
  O  O215  1  0.13420006  0.26078469  0.98875711  1
  O  O216  1  0.14051579  0.75679728  0.50695981  1
  O  O217  1  0.13340269  0.75923686  0.99761744  1
  O  O218  1  0.63928427  0.24270799  0.51052469  1
  O  O219  1  0.64072311  0.24964119  0.99663986  1
  O  O220  1  0.62829308  0.74547026  0.49687564  1
  O  O221  1  0.61962752  0.74039403  0.98612516  1
  O  O222  1  0.55306043  0.24939686  0.15082991  1
  O  O223  1  0.38474715  0.21380927  0.67116577  1
  O  O224  1  0.48594475  0.74103790  0.13059714  1
  O  O225  1  0.49107058  0.74251910  0.63246870  1
  O  O226  1  0.97957495  0.23164703  0.11210354  1
  O  O227  1  0.99929882  0.23876531  0.63308882  1
  O  O228  1  0.98640828  0.76759545  0.14139630  1
  O  O229  1  0.98503337  0.74738664  0.61357282  1
  O  O230  1  0.02178429  0.19882856  0.36583487  1
  O  O231  1  0.00845336  0.25609785  0.87313097  1
  O  O232  1  -0.00569491  0.76771973  0.36348522  1
  O  O233  1  0.01856587  0.73214545  0.86552363  1
  O  O234  1  0.49184468  0.26165938  0.37194165  1
  O  O235  1  0.51435040  0.28105526  0.89314128  1
  O  O236  1  0.50765048  0.76137515  0.38086850  1
  O  O237  1  0.50747152  0.75011831  0.86627528  1
  O  O238  1  0.25387773  0.14081787  0.49455877  1
  O  O239  1  0.24884806  0.13602865  0.99846913  1
  O  O240  1  0.25015474  0.63620496  0.48865345  1
  O  O241  1  0.24684154  0.63297101  0.99981352  1
  O  O242  1  0.74686061  0.13315847  0.49253700  1
  O  O243  1  0.74850280  0.13936821  0.98341048  1
  O  O244  1  0.73513958  0.63957167  0.51062446  1
  O  O245  1  0.74344927  0.61928727  0.98725282  1
  O  O246  1  0.25841390  0.36270201  -0.00345109  1
  O  O247  1  0.25653681  0.36433813  0.49419019  1
  O  O248  1  0.26159626  0.88288765  0.01702983  1
  O  O249  1  0.26049315  0.86388185  0.49025003  1
  O  O250  1  0.76197578  0.36849327  -0.01479349  1
  O  O251  1  0.77144258  0.35929624  0.50118106  1
  O  O252  1  0.74050339  0.86432433  0.01770339  1
  O  O253  1  0.75343479  0.86514434  0.50891061  1
  O  O254  1  0.11063469  0.48481882  0.23186814  1
  O  O255  1  0.13719309  0.49568088  0.74581648  1
  O  O256  1  0.13672384  0.99696312  0.25618623  1
  O  O257  1  0.13099816  0.99186000  0.74234877  1
  O  O258  1  0.64478487  0.48823695  0.26829480  1
  O  O259  1  0.63136413  0.49645881  0.73956077  1
  O  O260  1  0.62167074  0.98610597  0.25907007  1
  O  O261  1  0.61392888  1.00058636  0.73563857  1
  O  O262  1  0.36758716  0.00279834  0.26154355  1
  O  O263  1  0.36564487  -0.01222732  0.76420381  1
  O  O264  1  0.37157546  0.50991874  0.26617785  1
  O  O265  1  0.36066520  0.50551529  0.74816135  1
  O  O266  1  0.87091154  0.00394798  0.26093901  1
  O  O267  1  0.88235201  0.00888676  0.74701499  1
  O  O268  1  0.91174719  0.52969839  0.25702669  1
  O  O269  1  0.86838203  0.50417879  0.75055797  1
  O  O270  1  0.12452115  0.38079432  0.35131422  1
  O  O271  1  0.11957023  0.36906211  0.86920325  1
  O  O272  1  0.11331218  0.88460970  0.36588129  1
  O  O273  1  0.11886254  0.87710463  0.85468974  1
  O  O274  1  0.60027400  0.37789575  0.40154312  1
  O  O275  1  0.61790505  0.38313714  0.85462383  1
  O  O276  1  0.61879985  0.86866741  0.37532007  1
  O  O277  1  0.62500229  0.86508628  0.87189575  1
  O  O278  1  0.37376513  0.12107776  0.13825347  1
  O  O279  1  0.39209352  0.13926773  0.64278322  1
  O  O280  1  0.35771779  0.63399290  0.13985605  1
  O  O281  1  0.38121358  0.63057127  0.62924692  1
  O  O282  1  0.87031140  0.12719077  0.12559040  1
  O  O283  1  0.88649248  0.12860633  0.63441981  1
  O  O284  1  0.87203464  0.63904028  0.13603632  1
  O  O285  1  0.87234083  0.63365215  0.63143053  1
  O  O286  1  0.24272749  0.26103866  0.10897885  1
  O  O287  1  0.24107387  0.24698065  0.61276675  1
  O  O288  1  0.25852627  0.76499687  0.13851457  1
  O  O289  1  0.26334933  0.73892266  0.61033941  1
  O  O290  1  0.76730090  0.24637592  0.09668566  1
  O  O291  1  0.76970287  0.23977557  0.61257563  1
  O  O292  1  0.76609821  0.75985689  0.13502614  1
  O  O293  1  0.75519362  0.75839023  0.61759717  1
  O  O294  1  0.24296554  0.24307850  0.38010580  1
  O  O295  1  0.24550382  0.23805333  0.88306793  1
  O  O296  1  0.24925046  0.73940780  0.38637645  1
  O  O297  1  0.24603216  0.75411890  0.88274845  1
  O  O298  1  0.75932599  0.23797556  0.38650471  1
  O  O299  1  0.75101505  0.25177995  0.87737297  1
  O  O300  1  0.73810601  0.75723490  0.38743895  1
  O  O301  1  0.73770146  0.73623660  0.86255452  1
  O  O302  1  -0.00062171  0.11823747  0.00743017  1
  O  O303  1  0.00022454  0.11852588  0.51484744  1
  O  O304  1  -0.00839165  0.61259167  -0.00272348  1
  O  O305  1  -0.00597209  0.60944357  0.50477537  1
  O  O306  1  0.51863230  0.13486061  -0.00888580  1
  O  O307  1  0.50781589  0.11809319  0.49308048  1
  O  O308  1  0.51725299  0.62360060  -0.00134823  1
  O  O309  1  0.50594515  0.63372218  0.51281700  1
  O  O310  1  0.47670242  0.36653393  0.49091394  1
  O  O311  1  0.47994640  0.37922738  1.00245871  1
  O  O312  1  0.49012350  0.88380854  0.49371810  1
  O  O313  1  0.48768327  0.87225136  1.00148530  1
  O  O314  1  0.99689791  0.37565287  0.50371976  1
  O  O315  1  0.99262346  0.37470041  0.98888535  1
  O  O316  1  0.99557783  0.88019708  0.49140239  1
  O  O317  1  1.00351538  0.89005946  0.99042272  1
  O  O318  1  0.48559261  0.49650140  0.37932529  1
  O  O319  1  0.50361627  0.48486314  0.88405564  1
  O  O320  1  0.49056583  0.99310370  0.38743267  1
  O  O321  1  0.48522126  0.99309889  0.88215842  1
  O  O322  1  1.00089184  0.49891837  0.39558130  1
  O  O323  1  0.99846654  0.49330958  0.88436228  1
  O  O324  1  0.98866798  0.99682220  0.37952977  1
  O  O325  1  1.00158711  0.98167542  0.89234338  1
  O  O326  1  -0.00617466  0.00870560  0.12075454  1
  O  O327  1  0.00924143  0.00521201  0.62014980  1
  O  O328  1  0.00639593  0.49816945  0.11041738  1
  O  O329  1  0.01506416  0.50181300  0.61919553  1
  O  O330  1  0.51422546  -0.00534729  0.12260556  1
  O  O331  1  0.50514641  -0.00469171  0.61461711  1
  O  O332  1  0.47596671  0.51326755  0.11421093  1
  O  O333  1  0.50629503  0.51381101  0.63299528  1
  O  O334  1  0.25504454  0.37209298  0.23235838  1
  O  O335  1  0.24374805  0.38700892  0.75736994  1
  O  O336  1  0.24247247  0.88374630  0.25037394  1
  O  O337  1  0.23993590  0.88580907  0.75175485  1
  O  O338  1  0.80136918  0.41369670  0.26496791  1
  O  O339  1  0.74374698  0.38964338  0.75119522  1
  O  O340  1  0.74068893  0.87048671  0.24714613  1
  O  O341  1  0.74790836  0.87176629  0.73589530  1
  O  O342  1  0.25784346  0.11949962  0.25561066  1
  O  O343  1  0.23921701  0.10756020  0.76690325  1
  O  O344  1  0.25733206  0.63451949  0.26972767  1
  O  O345  1  0.25820343  0.61088506  0.74935182  1
  O  O346  1  0.75467225  0.12861182  0.26397584  1
  O  O347  1  0.76674508  0.12198492  0.74860472  1
  O  O348  1  0.76656953  0.62478693  0.25253467  1
  O  O349  1  0.75650314  0.61498251  0.75448454  1
  O  O350  1  0.36632360  0.11708744  0.37273726  1
  O  O351  1  0.35706852  0.10777483  0.88902555  1
  O  O352  1  0.37365264  0.61466382  0.37425923  1
  O  O353  1  0.38224542  0.62987923  0.86366947  1
  O  O354  1  0.86806340  0.11665732  0.36585972  1
  O  O355  1  0.88039857  0.12623556  0.85655850  1
  O  O356  1  0.87808512  0.63879369  0.36227125  1
  O  O357  1  0.86658028  0.62183480  0.86585748  1
  O  O358  1  0.12864926  0.37619436  0.13256446  1
  O  O359  1  0.11962230  0.38370815  0.64297236  1
  O  O360  1  0.13551316  0.87750172  0.13680685  1
  O  O361  1  0.12441828  0.89028272  0.63042959  1
  O  O362  1  0.62257870  0.41025189  0.12045143  1
  O  O363  1  0.61258445  0.39165683  0.62520703  1
  O  O364  1  0.63564428  0.85999526  0.14000029  1
  O  O365  1  0.63114403  0.88283779  0.62509002  1
  O  O366  1  0.12555625  0.26655463  0.24598425  1
  O  O367  1  0.12405396  0.25670391  0.76204902  1
  O  O368  1  0.11314703  0.76693667  0.24546002  1
  O  O369  1  0.13476890  0.76639245  0.73176017  1
  O  O370  1  0.69517601  0.32337717  0.22360464  1
  O  O371  1  0.63650851  0.26654253  0.73507649  1
  O  O372  1  0.62287506  0.75574151  0.26415871  1
  O  O373  1  0.61465845  0.74640184  0.75648004  1
  O  O374  1  0.36949632  0.23659165  0.25151817  1
  O  O375  1  0.34816111  0.21715754  0.74350674  1
  O  O376  1  0.37706315  0.74232618  0.24822466  1
  O  O377  1  0.37881050  0.74243880  0.74191427  1
  O  O378  1  0.86268811  0.24020148  0.22822446  1
  O  O379  1  0.88406613  0.24415172  0.74308019  1
  O  O380  1  0.88501428  0.74503303  0.24538483  1
  O  O381  1  0.86756990  0.73899297  0.73690037  1
  O  O382  1  0.36588393  0.48740033  0.49049161  1
  O  O383  1  0.35999335  0.48663310  0.99141747  1
  O  O384  1  0.37751847  0.99820969  0.49807886  1
  O  O385  1  0.37661199  0.98937919  0.99604538  1
  O  O386  1  0.89294208  0.47899793  0.51598713  1
  O  O387  1  0.88440871  0.49256045  0.99587145  1
  O  O388  1  0.88147372  0.99481095  0.49458140  1
  O  O389  1  0.83586586  0.99514541  0.97248276  1
  O  O390  1  0.03101539  -0.03221461  -0.03371962  1
  O  O391  1  0.12156798  0.00315172  0.50944435  1
  O  O392  1  0.10983963  0.49533833  0.00882219  1
  O  O393  1  0.11609255  0.48730791  0.51252374  1
  O  O394  1  0.62356500  0.01650112  -0.00574274  1
  O  O395  1  0.61519659  0.00715171  0.50791313  1
  O  O396  1  0.62796384  0.51489632  -0.00448076  1
  O  O397  1  0.62697865  0.51622010  0.50970383  1
  O  O398  1  0.35790643  0.38028995  0.11070786  1
  O  O399  1  0.37504301  0.38006222  0.61253704  1
  O  O400  1  0.36985773  0.86735776  0.12476565  1
  O  O401  1  0.37960132  0.86477408  0.61507144  1
  O  O402  1  0.88374118  0.35725749  0.10893813  1
  O  O403  1  0.88751634  0.35881543  0.62436358  1
  O  O404  1  0.86051690  0.87197804  0.11998306  1
  O  O405  1  0.86803412  0.86756986  0.61922628  1
  O  O406  1  0.14754541  0.10884071  0.38035842  1
  O  O407  1  0.13051870  0.13211047  0.87764148  1
  O  O408  1  0.13220426  0.61144466  0.36641609  1
  O  O409  1  0.13466905  0.62706578  0.88094940  1
  O  O410  1  0.63505688  0.11872456  0.38983873  1
  O  O411  1  0.63721790  0.12280157  0.88032054  1
  O  O412  1  0.61182006  0.63629911  0.38543497  1
  O  O413  1  0.63140472  0.62856601  0.88028324  1
