# generated using pymatgen
data_V79Zn79O256
_symmetry_space_group_name_H-M   'P 1'
_cell_length_a   16.92096613
_cell_length_b   16.92283247
_cell_length_c   16.93964964
_cell_angle_alpha   90.07302552
_cell_angle_beta   90.42439044
_cell_angle_gamma   90.06600607
_symmetry_Int_Tables_number   1
_chemical_formula_structural   V79Zn79O256
_chemical_formula_sum   'V79 Zn79 O256'
_cell_volume   4850.53983719
_cell_formula_units_Z   1
loop_
 _symmetry_equiv_pos_site_id
 _symmetry_equiv_pos_as_xyz
  1  'x, y, z'
loop_
 _atom_site_type_symbol
 _atom_site_label
 _atom_site_symmetry_multiplicity
 _atom_site_fract_x
 _atom_site_fract_y
 _atom_site_fract_z
 _atom_site_occupancy
  V  V0  1  0.87019393  0.75160555  0.62739387  1
  V  V1  1  0.25290423  0.50873622  0.74130396  1
  V  V2  1  0.86412431  0.12530288  0.75339765  1
  V  V3  1  0.50078428  0.87490495  0.36229781  1
  V  V4  1  0.23937874  0.62346155  0.38279332  1
  V  V5  1  0.12544537  0.37429540  0.75101003  1
  V  V6  1  0.88021492  0.49954128  0.38113824  1
  V  V7  1  0.49773818  0.37036460  0.87443253  1
  V  V8  1  0.62290528  0.62669490  -0.00278478  1
  V  V9  1  0.88877447  -0.00476210  0.38176494  1
  V  V10  1  0.49414666  -0.00343925  0.49620459  1
  V  V11  1  0.12808566  0.12548707  -0.00150844  1
  V  V12  1  0.63035069  0.49539947  0.12582462  1
  V  V13  1  0.75258844  0.24891623  0.50285626  1
  V  V14  1  0.13196800  -0.01718424  0.12557917  1
  V  V15  1  0.00281338  0.75858877  0.26505409  1
  V  V16  1  0.87279229  0.62079811  0.75899866  1
  V  V17  1  0.50024524  -0.00182506  -0.00592993  1
  V  V18  1  0.50546441  0.50363649  0.50264006  1
  V  V19  1  0.25638492  0.25693581  -0.00437406  1
  V  V20  1  0.89114486  0.87784039  0.50266417  1
  V  V21  1  0.63409735  0.12622394  -0.01408826  1
  V  V22  1  0.63445110  0.37221516  0.24613185  1
  V  V23  1  0.24407893  0.00257998  0.73389298  1
  V  V24  1  0.74917192  0.38778332  0.62619661  1
  V  V25  1  0.37876764  0.36745286  0.50950201  1
  V  V26  1  0.87581946  0.25141889  0.62798114  1
  V  V27  1  0.74900755  -0.00487756  0.25426699  1
  V  V28  1  0.14253396  0.75040139  0.87231106  1
  V  V29  1  0.74638252  0.74851351  -0.00147775  1
  V  V30  1  0.62291123  0.75086509  0.86263068  1
  V  V31  1  0.00462172  0.25048914  0.76188250  1
  V  V32  1  0.49973459  0.12656419  0.12169365  1
  V  V33  1  0.87360426  0.87448240  -0.00004078  1
  V  V34  1  0.75098773  0.50296628  0.77215460  1
  V  V35  1  0.25304527  0.75212289  0.01378463  1
  V  V36  1  0.62478554  0.24890774  0.37397061  1
  V  V37  1  0.37615181  0.51438805  0.86529957  1
  V  V38  1  0.88286276  0.12431541  0.25284112  1
  V  V39  1  0.37574961  0.11972163  0.25031264  1
  V  V40  1  0.00315964  0.13063249  0.12887578  1
  V  V41  1  0.12914639  0.87214611  0.26859250  1
  V  V42  1  0.36795416  0.62764570  0.24824080  1
  V  V43  1  0.49492220  0.24950734  0.74813446  1
  V  V44  1  0.74654939  -0.01767695  0.74759096  1
  V  V45  1  0.37023445  0.48861929  0.36281939  1
  V  V46  1  0.49897897  0.62976154  0.64051888  1
  V  V47  1  0.61974382  0.75306755  0.36393486  1
  V  V48  1  0.74573691  0.76009699  0.50479104  1
  V  V49  1  0.75275927  0.12195211  0.37793298  1
  V  V50  1  0.88156716  0.37623073  0.50114440  1
  V  V51  1  0.11684627  0.26570833  0.35079863  1
  V  V52  1  0.25043944  0.12069450  0.87649447  1
  V  V53  1  0.87569446  0.63086183  0.25382936  1
  V  V54  1  0.49417111  0.12928458  0.62405744  1
  V  V55  1  -0.00103150  -0.00270048  0.00211532  1
  V  V56  1  0.12295886  0.88511097  0.73801410  1
  V  V57  1  0.50070244  0.87075943  0.85806273  1
  V  V58  1  0.86513950  0.00399672  0.87698403  1
  V  V59  1  0.23930409  0.24820202  0.50281909  1
  V  V60  1  0.74948036  0.25790625  -0.01000544  1
  V  V61  1  0.00531902  0.11660025  0.61878483  1
  V  V62  1  0.87607213  0.75267268  0.13002024  1
  V  V63  1  0.49868822  0.63027694  0.13206545  1
  V  V64  1  0.37336392  0.86221190  0.50080953  1
  V  V65  1  0.00038701  0.75043293  0.75551535  1
  V  V66  1  0.74419915  0.87568939  0.12997263  1
  V  V67  1  0.74821810  0.62638680  0.38039917  1
  V  V68  1  0.62747365  0.37013570  0.75126000  1
  V  V69  1  0.37249627  0.87560387  0.00293623  1
  V  V70  1  0.62655221  0.12395843  0.50272109  1
  V  V71  1  0.37416849  0.26300892  0.11813082  1
  V  V72  1  0.62595298  -0.00107486  0.12850153  1
  V  V73  1  0.24449673  0.12176175  0.36860811  1
  V  V74  1  0.49456003  0.49488519  -0.00169172  1
  V  V75  1  0.62808251  -0.01571162  0.62750205  1
  V  V76  1  0.01831596  0.62971750  0.62450494  1
  V  V77  1  0.01378542  0.50369073  0.51148012  1
  V  V78  1  0.86374414  0.25173058  0.12649921  1
  Zn  Zn79  1  0.37347269  -0.00367161  0.86745485  1
  Zn  Zn80  1  0.62709106  0.62169739  0.50491427  1
  Zn  Zn81  1  0.50517660  0.37555215  0.37408524  1
  Zn  Zn82  1  0.26229682  -0.01609947  0.24860731  1
  Zn  Zn83  1  0.00066561  0.87618383  0.87513947  1
  Zn  Zn84  1  0.37841285  0.76325149  0.13989998  1
  Zn  Zn85  1  0.74922205  0.49924662  0.25255771  1
  Zn  Zn86  1  0.13110697  0.61964953  0.00518854  1
  Zn  Zn87  1  0.50268231  0.25070616  0.24692698  1
  Zn  Zn88  1  0.01709978  0.60227053  0.12508744  1
  Zn  Zn89  1  0.07332902  0.30517856  0.93519798  1
  Zn  Zn90  1  -0.06391058  0.40995513  0.97045829  1
  Zn  Zn91  1  0.36990629  0.12908582  0.74480524  1
  Zn  Zn92  1  0.37842161  0.74561242  0.62632382  1
  Zn  Zn93  1  0.24831582  0.37188494  0.62644014  1
  Zn  Zn94  1  0.19018184  0.18982741  0.18356759  1
  Zn  Zn95  1  0.18413151  0.18876688  0.68663113  1
  Zn  Zn96  1  0.18647153  0.68667543  0.19375571  1
  Zn  Zn97  1  0.20331014  0.70276937  0.68927192  1
  Zn  Zn98  1  0.68967219  0.18139390  0.18825363  1
  Zn  Zn99  1  0.68291894  0.18686062  0.68862486  1
  Zn  Zn100  1  0.68702225  0.68452881  0.18753542  1
  Zn  Zn101  1  0.68498284  0.67640085  0.68229612  1
  Zn  Zn102  1  0.32724741  0.28662480  0.32528833  1
  Zn  Zn103  1  0.31568688  0.31550214  0.81483862  1
  Zn  Zn104  1  0.31021099  0.80592038  0.32497390  1
  Zn  Zn105  1  0.31487674  0.81556789  0.79881489  1
  Zn  Zn106  1  0.81512298  0.31085249  0.31472622  1
  Zn  Zn107  1  0.81539749  0.31384833  0.81876907  1
  Zn  Zn108  1  0.81125013  0.81484509  0.32116272  1
  Zn  Zn109  1  0.81164652  0.80745595  0.81583557  1
  Zn  Zn110  1  0.18979244  0.43352753  0.43216497  1
  Zn  Zn111  1  0.19600431  0.43696758  0.92450557  1
  Zn  Zn112  1  0.19277196  0.94201547  0.43973646  1
  Zn  Zn113  1  0.18618515  0.93516462  0.93250720  1
  Zn  Zn114  1  0.69168985  0.43462123  0.43785131  1
  Zn  Zn115  1  0.68204642  0.43353498  0.93876640  1
  Zn  Zn116  1  0.68522486  0.93589438  0.43928910  1
  Zn  Zn117  1  0.68443150  0.93514090  0.93506563  1
  Zn  Zn118  1  0.31324981  0.05977881  0.06425697  1
  Zn  Zn119  1  0.30813956  0.06265258  0.55286359  1
  Zn  Zn120  1  0.31505089  0.56874864  0.05355103  1
  Zn  Zn121  1  0.31846585  0.55842164  0.55972224  1
  Zn  Zn122  1  0.81229968  0.06430923  0.06524634  1
  Zn  Zn123  1  0.81391291  0.05946580  0.56700898  1
  Zn  Zn124  1  0.80649983  0.56845197  0.06507095  1
  Zn  Zn125  1  0.82032248  0.56677214  0.56694146  1
  Zn  Zn126  1  0.44913581  0.43680894  0.18834529  1
  Zn  Zn127  1  0.44006046  0.44039470  0.68663364  1
  Zn  Zn128  1  0.44144524  0.93978445  0.18525806  1
  Zn  Zn129  1  0.43143602  0.94323051  0.67877484  1
  Zn  Zn130  1  0.91245230  0.44421338  0.18232888  1
  Zn  Zn131  1  0.94307570  0.44334995  0.80597802  1
  Zn  Zn132  1  0.94120482  0.93864516  0.18977641  1
  Zn  Zn133  1  0.93142656  0.93506124  0.69013174  1
  Zn  Zn134  1  0.06882839  0.06003278  0.31601005  1
  Zn  Zn135  1  0.05481891  0.06467315  0.81374131  1
  Zn  Zn136  1  0.05764067  0.55064544  0.30596311  1
  Zn  Zn137  1  0.07441749  0.56448457  0.80998555  1
  Zn  Zn138  1  0.56200703  0.06203283  0.31218733  1
  Zn  Zn139  1  0.56378243  0.06108346  0.80594681  1
  Zn  Zn140  1  0.55962817  0.56013530  0.31454131  1
  Zn  Zn141  1  0.56944960  0.55707236  0.81245976  1
  Zn  Zn142  1  0.43788667  0.18424734  0.43906369  1
  Zn  Zn143  1  0.43694505  0.18621870  0.93082432  1
  Zn  Zn144  1  0.43368339  0.68421787  0.43177448  1
  Zn  Zn145  1  0.43888422  0.69069738  0.93784763  1
  Zn  Zn146  1  0.94559596  0.18833627  0.43579801  1
  Zn  Zn147  1  0.93203894  0.18473624  0.94232393  1
  Zn  Zn148  1  0.94067838  0.68866618  0.44449854  1
  Zn  Zn149  1  0.95624081  0.59579031  0.93702587  1
  Zn  Zn150  1  0.04509729  0.34123614  0.12601557  1
  Zn  Zn151  1  0.06186182  0.31217367  0.56929646  1
  Zn  Zn152  1  0.03674448  0.76739846  0.03473866  1
  Zn  Zn153  1  0.06669924  0.95561913  0.55892615  1
  Zn  Zn154  1  0.56746563  0.31108832  0.05822469  1
  Zn  Zn155  1  0.56563892  0.31335430  0.56529555  1
  Zn  Zn156  1  0.55827593  0.81303787  0.06060468  1
  Zn  Zn157  1  0.55707711  0.80441211  0.55880164  1
  O  O158  1  0.11869051  0.11967468  0.11796637  1
  O  O159  1  0.10378964  0.12821092  0.63214510  1
  O  O160  1  0.12689744  0.62568830  0.12364892  1
  O  O161  1  0.11607161  0.64479759  0.63317973  1
  O  O162  1  0.61733796  0.11580838  0.11787278  1
  O  O163  1  0.61565279  0.11879428  0.61877619  1
  O  O164  1  0.61735070  0.61846611  0.11948593  1
  O  O165  1  0.60685027  0.62362273  0.61823609  1
  O  O166  1  0.37824207  0.37908989  0.37303323  1
  O  O167  1  0.39225754  0.38691210  0.86952745  1
  O  O168  1  0.39568611  0.86422412  0.37999644  1
  O  O169  1  0.38754447  0.87254541  0.87764881  1
  O  O170  1  0.86902831  0.38489435  0.38873644  1
  O  O171  1  0.87968963  0.38250439  0.87919985  1
  O  O172  1  0.87370611  0.88056217  0.39170678  1
  O  O173  1  0.87330643  0.88150086  0.88673333  1
  O  O174  1  0.25076453  0.01921948  0.36598708  1
  O  O175  1  0.25103029  0.00937666  0.86938756  1
  O  O176  1  0.26723265  0.49820282  0.37267904  1
  O  O177  1  0.27072980  0.49889980  0.86477267  1
  O  O178  1  0.75476368  0.00166981  0.36947020  1
  O  O179  1  0.75707726  -0.00688489  0.86670508  1
  O  O180  1  0.75999735  0.51079436  0.38005846  1
  O  O181  1  0.74901578  0.50143684  0.87146720  1
  O  O182  1  0.22631864  0.49676039  0.07048142  1
  O  O183  1  0.26248008  0.49303651  0.63803745  1
  O  O184  1  0.23574134  1.00381051  0.13067474  1
  O  O185  1  0.24435785  1.01244722  0.63506984  1
  O  O186  1  0.73522693  0.50586935  0.12858896  1
  O  O187  1  0.75519599  0.48920270  0.62393439  1
  O  O188  1  0.74497330  0.99431822  0.13308111  1
  O  O189  1  0.73533569  1.00056685  0.63032207  1
  O  O190  1  0.01975064  0.41080111  0.21800989  1
  O  O191  1  0.01431197  0.36573297  0.75271379  1
  O  O192  1  0.00730258  0.86562761  0.25155570  1
  O  O193  1  0.00691005  0.86991488  0.75119647  1
  O  O194  1  0.51738521  0.36871867  0.25404068  1
  O  O195  1  0.50830509  0.36946726  0.75097550  1
  O  O196  1  0.50059158  0.88036556  0.26249971  1
  O  O197  1  0.49230240  0.88066251  0.75993758  1
  O  O198  1  0.49630354  0.12597621  0.23883269  1
  O  O199  1  0.49976456  0.13203852  0.74190190  1
  O  O200  1  0.48974348  0.61636331  0.23998758  1
  O  O201  1  0.50242180  0.61365564  0.73905966  1
  O  O202  1  0.99067053  0.11396856  0.24312705  1
  O  O203  1  0.98651909  0.13151027  0.74536645  1
  O  O204  1  0.98761700  0.63843958  0.24681773  1
  O  O205  1  0.99644479  0.62964221  0.74065650  1
  O  O206  1  0.37035329  0.24296858  0.00942329  1
  O  O207  1  0.36869040  0.26425195  0.48721316  1
  O  O208  1  0.36584504  0.75809835  -0.00093786  1
  O  O209  1  0.37970738  0.75756120  0.50086934  1
  O  O210  1  0.86101571  0.23887964  0.01436699  1
  O  O211  1  0.87382927  0.25737632  0.50571114  1
  O  O212  1  0.86040925  0.75981556  0.01310003  1
  O  O213  1  0.87028526  0.76034821  0.50628432  1
  O  O214  1  0.13770099  0.25925417  0.49303978  1
  O  O215  1  0.14527742  0.23595131  1.00327739  1
  O  O216  1  0.13809514  0.76781747  0.50155607  1
  O  O217  1  0.14316623  0.76551606  0.98628575  1
  O  O218  1  0.63226371  0.24546626  0.49282134  1
  O  O219  1  0.63642787  0.23417707  1.00534976  1
  O  O220  1  0.63289399  0.74504486  0.49224012  1
  O  O221  1  0.62940589  0.74436796  0.99789632  1
  O  O222  1  0.49269880  0.24049940  0.11802511  1
  O  O223  1  0.50626708  0.23957922  0.63191071  1
  O  O224  1  0.49483877  0.73579761  0.11758450  1
  O  O225  1  0.49821303  0.73649088  0.62917761  1
  O  O226  1  0.98585427  0.23524904  0.12705985  1
  O  O227  1  0.98947243  0.24291157  0.63555941  1
  O  O228  1  0.98074910  0.75717164  0.13801501  1
  O  O229  1  0.98757295  0.73962260  0.63743118  1
  O  O230  1  0.01936091  0.24547505  0.37458465  1
  O  O231  1  -0.00068120  0.24148603  0.86827392  1
  O  O232  1  -0.00332259  0.74700795  0.36349948  1
  O  O233  1  0.00977772  0.75228804  0.85943489  1
  O  O234  1  0.51595392  0.24675718  0.37384847  1
  O  O235  1  0.49757523  0.25880999  0.86553587  1
  O  O236  1  0.51317471  0.75584569  0.37734251  1
  O  O237  1  0.50909459  0.76110459  0.87521353  1
  O  O238  1  0.26205035  0.13996003  0.47977510  1
  O  O239  1  0.24582096  0.12375353  0.99373469  1
  O  O240  1  0.25118751  0.60812140  0.48260490  1
  O  O241  1  0.25183367  0.64979732  0.99706685  1
  O  O242  1  0.74739492  0.12879660  0.49719549  1
  O  O243  1  0.73713056  0.12240382  1.00060725  1
  O  O244  1  0.75327993  0.63370291  0.49212229  1
  O  O245  1  0.73665283  0.63753041  1.00566763  1
  O  O246  1  0.25274931  0.35451897  -0.01103710  1
  O  O247  1  0.26160382  0.36528103  0.50063288  1
  O  O248  1  0.26486999  0.87013134  -0.00915504  1
  O  O249  1  0.27693155  0.87972739  0.47863344  1
  O  O250  1  0.73963021  0.35741975  0.00194055  1
  O  O251  1  0.75861655  0.36946130  0.50847638  1
  O  O252  1  0.75367199  0.87116265  0.01024511  1
  O  O253  1  0.75303631  0.86282054  0.49960768  1
  O  O254  1  0.05951982  0.48673406  0.20989716  1
  O  O255  1  0.14161321  0.48533787  0.75603705  1
  O  O256  1  0.12195621  0.98437067  0.24097128  1
  O  O257  1  0.12790635  0.99366224  0.75537574  1
  O  O258  1  0.62567249  0.49216281  0.24388038  1
  O  O259  1  0.64278684  0.49001958  0.75255973  1
  O  O260  1  0.63619301  1.00718467  0.23939093  1
  O  O261  1  0.63177915  1.00081902  0.73654766  1
  O  O262  1  0.37560482  0.01360246  0.24293549  1
  O  O263  1  0.35563501  0.00044284  0.74701098  1
  O  O264  1  0.38116687  0.50033014  0.25888399  1
  O  O265  1  0.36877057  0.49753097  0.75705522  1
  O  O266  1  0.86868142  0.00319924  0.25981490  1
  O  O267  1  0.86494737  0.00449815  0.75740278  1
  O  O268  1  0.87070529  0.51226675  0.26295586  1
  O  O269  1  0.86057220  0.50624073  0.75076003  1
  O  O270  1  0.12912899  0.36548748  0.36417678  1
  O  O271  1  0.13284295  0.36797138  0.86095683  1
  O  O272  1  0.12280548  0.88042500  0.36601868  1
  O  O273  1  0.11949905  0.86715885  0.86698589  1
  O  O274  1  0.62914203  0.36297046  0.36838646  1
  O  O275  1  0.61252797  0.38061352  0.86208275  1
  O  O276  1  0.61765732  0.86155447  0.37832399  1
  O  O277  1  0.61199077  0.86423293  0.87716456  1
  O  O278  1  0.38643892  0.12767491  0.12836612  1
  O  O279  1  0.39043367  0.11588782  0.62288401  1
  O  O280  1  0.38016705  0.61826938  0.13654364  1
  O  O281  1  0.39372271  0.62427070  0.61530101  1
  O  O282  1  0.88302588  0.12448112  0.13462534  1
  O  O283  1  0.87799117  0.13371787  0.63432148  1
  O  O284  1  0.85924752  0.64142687  0.14263219  1
  O  O285  1  0.88149327  0.63480130  0.63649371  1
  O  O286  1  0.26658308  0.24384952  0.11165109  1
  O  O287  1  0.24895998  0.24235051  0.60588490  1
  O  O288  1  0.25494529  0.75487743  0.11599463  1
  O  O289  1  0.19670678  0.75417053  0.54293518  1
  O  O290  1  0.75946564  0.23762976  0.11771756  1
  O  O291  1  0.75918445  0.25238242  0.62181014  1
  O  O292  1  0.75074253  0.76011849  0.12168947  1
  O  O293  1  0.75975811  0.73922790  0.61722762  1
  O  O294  1  0.23581040  0.24692183  0.37798754  1
  O  O295  1  0.26307673  0.23467864  0.88686818  1
  O  O296  1  0.24956005  0.72388045  0.37310706  1
  O  O297  1  0.24378285  0.75831292  0.87356625  1
  O  O298  1  0.74478799  0.24232315  0.38190865  1
  O  O299  1  0.75670254  0.24567580  0.89083167  1
  O  O300  1  0.74058985  0.74541116  0.38386315  1
  O  O301  1  0.73389209  0.76067281  0.88839238  1
  O  O302  1  0.00773421  0.11888147  0.00870140  1
  O  O303  1  -0.01030613  0.12710475  0.52002908  1
  O  O304  1  0.01594183  0.65328343  0.01284339  1
  O  O305  1  0.00012926  0.62013981  0.51417771  1
  O  O306  1  0.50880281  0.11726524  0.00330656  1
  O  O307  1  0.50533701  0.11687932  0.50351598  1
  O  O308  1  0.50666891  0.61735737  0.00803844  1
  O  O309  1  0.49901758  0.60899089  0.49380141  1
  O  O310  1  0.49191070  0.37840196  0.49847501  1
  O  O311  1  0.51208546  0.38566363  0.98929618  1
  O  O312  1  0.49505274  0.88020337  0.49050515  1
  O  O313  1  0.49407498  0.88345576  0.99128845  1
  O  O314  1  0.98950024  0.38953597  0.51504815  1
  O  O315  1  1.02598646  0.36489576  1.01808907  1
  O  O316  1  0.98919709  0.88001772  0.50588851  1
  O  O317  1  0.98501184  0.87293755  1.00227612  1
  O  O318  1  0.48853991  0.49589996  0.38281753  1
  O  O319  1  0.49501878  0.49480000  0.87929343  1
  O  O320  1  0.51361059  0.98537680  0.38340224  1
  O  O321  1  0.50306273  0.98802494  0.87947454  1
  O  O322  1  0.98598877  0.51264154  0.39232622  1
  O  O323  1  1.00510423  0.50832942  0.88038587  1
  O  O324  1  0.98763383  1.00525237  0.37645434  1
  O  O325  1  0.98587061  0.99706496  0.88388439  1
  O  O326  1  0.00959625  0.00663337  0.12126914  1
  O  O327  1  -0.00753850  0.01118186  0.63042097  1
  O  O328  1  -0.04823557  0.50930796  0.09370543  1
  O  O329  1  0.00822189  0.51954241  0.61679539  1
  O  O330  1  0.50845326  0.00655858  0.11475355  1
  O  O331  1  0.51182962  0.00662155  0.61796598  1
  O  O332  1  0.50887430  0.50681455  0.11563056  1
  O  O333  1  0.49510948  0.50534280  0.60790075  1
  O  O334  1  0.19320359  0.41475584  0.19781588  1
  O  O335  1  0.24284458  0.37315827  0.74761028  1
  O  O336  1  0.23623334  0.86951416  0.25905922  1
  O  O337  1  0.23419561  0.89515367  0.75338139  1
  O  O338  1  0.74029086  0.37761665  0.25514741  1
  O  O339  1  0.74801937  0.38440457  0.74747011  1
  O  O340  1  0.75570234  0.88395067  0.24216056  1
  O  O341  1  0.75504473  0.88303485  0.74763144  1
  O  O342  1  0.25976689  0.12865156  0.25502359  1
  O  O343  1  0.24440283  0.11725479  0.75750583  1
  O  O344  1  0.26513044  0.61793162  0.25137670  1
  O  O345  1  0.23953960  0.60557497  0.74653532  1
  O  O346  1  0.76047771  0.11176465  0.25566785  1
  O  O347  1  0.76055866  0.11787769  0.74488243  1
  O  O348  1  0.75783471  0.62799503  0.26455454  1
  O  O349  1  0.75518435  0.60876040  0.74717851  1
  O  O350  1  0.36494584  0.14499738  0.35804201  1
  O  O351  1  0.36689464  0.11707392  0.86852361  1
  O  O352  1  0.37109930  0.61039063  0.36300915  1
  O  O353  1  0.38641712  0.61384291  0.87030224  1
  O  O354  1  0.87188969  0.11763326  0.37112716  1
  O  O355  1  0.87630650  0.11222662  0.86847127  1
  O  O356  1  0.86793729  0.62310826  0.37220233  1
  O  O357  1  0.87901003  0.63292097  0.85846338  1
  O  O358  1  0.16926827  0.37071878  0.14377829  1
  O  O359  1  0.12952446  0.36868920  0.64317030  1
  O  O360  1  0.12463166  0.88497632  0.12658814  1
  O  O361  1  0.11770389  0.88144534  0.63952944  1
  O  O362  1  0.61910242  0.38414331  0.13287949  1
  O  O363  1  0.63916023  0.36926260  0.63568763  1
  O  O364  1  0.63212593  0.88677278  0.11728323  1
  O  O365  1  0.61750737  0.88639931  0.62035692  1
  O  O366  1  0.12309981  0.25471163  0.24869881  1
  O  O367  1  0.11438832  0.25556000  0.75087830  1
  O  O368  1  0.11220874  0.76175007  0.24835903  1
  O  O369  1  0.12340659  0.76524783  0.75632600  1
  O  O370  1  0.62949481  0.25226665  0.25696753  1
  O  O371  1  0.61693926  0.26044261  0.74955604  1
  O  O372  1  0.62991380  0.74728950  0.26478914  1
  O  O373  1  0.63458383  0.74282047  0.76554096  1
  O  O374  1  0.37956458  0.24204230  0.23196002  1
  O  O375  1  0.38942711  0.24999121  0.74864150  1
  O  O376  1  0.37437244  0.73212605  0.25300662  1
  O  O377  1  0.30140619  0.75576027  0.70445328  1
  O  O378  1  0.86536939  0.23396406  0.24193842  1
  O  O379  1  0.87970901  0.24421713  0.74589065  1
  O  O380  1  0.88046365  0.75071163  0.25067953  1
  O  O381  1  0.87937753  0.74628534  0.74560655  1
  O  O382  1  0.38346653  0.48265980  0.48718975  1
  O  O383  1  0.38841159  0.50615800  0.98657754  1
  O  O384  1  0.39014125  0.99426010  0.50066234  1
  O  O385  1  0.38623174  0.99472487  0.99728871  1
  O  O386  1  0.88247942  0.49444269  0.49861652  1
  O  O387  1  0.89901293  0.51529313  1.02099246  1
  O  O388  1  0.86719924  0.98481552  0.49695567  1
  O  O389  1  0.87554715  0.99323462  0.99677984  1
  O  O390  1  0.12131127  0.00203408  0.01138870  1
  O  O391  1  0.13483654  0.01263747  0.49738048  1
  O  O392  1  0.16645013  0.50343064  0.01494791  1
  O  O393  1  0.11033616  0.49082699  0.49481088  1
  O  O394  1  0.61983856  0.00759516  0.00624878  1
  O  O395  1  0.61978978  0.00321647  0.51048966  1
  O  O396  1  0.61868086  0.50892013  0.00514945  1
  O  O397  1  0.60896145  0.49594318  0.49017415  1
  O  O398  1  0.38333198  0.36159815  0.12629436  1
  O  O399  1  0.37673232  0.37302543  0.61076299  1
  O  O400  1  0.38485213  0.87531651  0.11051709  1
  O  O401  1  0.38274081  0.87197467  0.60486786  1
  O  O402  1  0.87276743  0.35141284  0.13188028  1
  O  O403  1  0.86540529  0.36205203  0.61772571  1
  O  O404  1  0.86353993  0.87376576  0.12045901  1
  O  O405  1  0.87675533  0.86412963  0.61481893  1
  O  O406  1  0.14076785  0.13727416  0.36116126  1
  O  O407  1  0.13150555  0.11584508  0.89019295  1
  O  O408  1  0.14272010  0.60240557  0.35731907  1
  O  O409  1  0.12677106  0.64755568  0.87640932  1
  O  O410  1  0.63234023  0.12960567  0.38043230  1
  O  O411  1  0.62109840  0.11887582  0.88778508  1
  O  O412  1  0.63234642  0.63314534  0.37687709  1
  O  O413  1  0.61370153  0.63960498  0.88692447  1
