# generated using pymatgen
data_V79Zn79O256
_symmetry_space_group_name_H-M   'P 1'
_cell_length_a   16.89528220
_cell_length_b   16.88312174
_cell_length_c   16.91240566
_cell_angle_alpha   89.88613036
_cell_angle_beta   89.94693832
_cell_angle_gamma   90.04988143
_symmetry_Int_Tables_number   1
_chemical_formula_structural   V79Zn79O256
_chemical_formula_sum   'V79 Zn79 O256'
_cell_volume   4824.16751827
_cell_formula_units_Z   1
loop_
 _symmetry_equiv_pos_site_id
 _symmetry_equiv_pos_as_xyz
  1  'x, y, z'
loop_
 _atom_site_type_symbol
 _atom_site_label
 _atom_site_symmetry_multiplicity
 _atom_site_fract_x
 _atom_site_fract_y
 _atom_site_fract_z
 _atom_site_occupancy
  V  V0  1  0.49560115  0.87655665  0.87882738  1
  V  V1  1  0.37407459  0.63088921  0.25110888  1
  V  V2  1  0.37976603  0.75437246  0.12667427  1
  V  V3  1  0.37415459  0.12421992  0.25226462  1
  V  V4  1  0.63157366  0.25093274  0.87985319  1
  V  V5  1  0.74202743  0.73981528  0.49215748  1
  V  V6  1  0.24942186  0.37487207  0.62451869  1
  V  V7  1  -0.01075668  0.74023533  0.74454610  1
  V  V8  1  0.75508224  0.88035483  0.63274300  1
  V  V9  1  0.00080169  0.37268632  0.87494151  1
  V  V10  1  0.12139597  0.35784968  0.25544040  1
  V  V11  1  0.49157725  0.25497168  0.24032328  1
  V  V12  1  0.75517214  0.38816767  0.11080480  1
  V  V13  1  0.24291114  0.88146133  0.62868074  1
  V  V14  1  -0.00110439  0.35789553  0.37869970  1
  V  V15  1  0.75281910  0.63055349  0.87279365  1
  V  V16  1  0.12169768  0.12473695  -0.00010406  1
  V  V17  1  0.75239703  0.37373041  0.61579199  1
  V  V18  1  0.24544906  0.50429374  0.25145126  1
  V  V19  1  0.12116229  0.62284794  0.00838961  1
  V  V20  1  0.63162844  0.12989820  0.00082383  1
  V  V21  1  0.62028359  0.74189209  0.88013587  1
  V  V22  1  0.87636069  0.49697305  0.87141167  1
  V  V23  1  0.62231414  0.37647915  0.74552720  1
  V  V24  1  0.12221289  0.87638997  0.25016370  1
  V  V25  1  0.12512359  0.62289450  0.50111167  1
  V  V26  1  0.25328630  -0.00092310  0.25717350  1
  V  V27  1  0.62516490  0.38540162  0.24016954  1
  V  V28  1  0.75137509  0.24867806  0.49637352  1
  V  V29  1  0.87087120  0.25960475  0.12557370  1
  V  V30  1  0.24439405  0.24846955  0.49260188  1
  V  V31  1  0.25368781  0.74488249  0.49445880  1
  V  V32  1  0.49577261  0.12786155  0.12154394  1
  V  V33  1  0.87051833  0.00447646  0.36883729  1
  V  V34  1  0.12005120  0.50449226  0.62691770  1
  V  V35  1  -0.00521515  0.13540617  0.14815986  1
  V  V36  1  0.61860281  0.74418059  0.36815839  1
  V  V37  1  0.61339636  0.00583636  0.62420466  1
  V  V38  1  0.25141187  0.36856025  0.12554296  1
  V  V39  1  0.75248386  0.12419504  0.35835304  1
  V  V40  1  -0.00333151  0.87243658  0.37500554  1
  V  V41  1  0.50070741  0.50627171  0.49860916  1
  V  V42  1  0.11833040  0.75982728  0.86774246  1
  V  V43  1  0.37644023  0.24172219  0.62451549  1
  V  V44  1  0.48866956  0.38504106  0.87229017  1
  V  V45  1  -0.00155634  0.74050758  0.24051257  1
  V  V46  1  0.87829546  0.62226783  0.24349493  1
  V  V47  1  0.12849188  0.74377220  0.37650439  1
  V  V48  1  0.50046631  0.62445449  0.12426507  1
  V  V49  1  0.00834627  -0.00386112  0.51539196  1
  V  V50  1  0.50804740  0.89033032  0.36265389  1
  V  V51  1  0.62455206  0.25025769  0.36623921  1
  V  V52  1  0.49728253  0.00082149  0.00211230  1
  V  V53  1  0.12131684  0.36754068  0.74934642  1
  V  V54  1  0.49703537  0.50576132  -0.00099706  1
  V  V55  1  0.36524384  0.12055407  0.75953942  1
  V  V56  1  0.37460968  0.62397485  0.74985011  1
  V  V57  1  0.62293514  0.50468938  0.61805986  1
  V  V58  1  -0.00204754  0.49708368  0.50004539  1
  V  V59  1  0.37082998  0.37535637  0.00280792  1
  V  V60  1  0.38385441  0.89228151  0.49320555  1
  V  V61  1  0.25005080  0.62495578  0.87605753  1
  V  V62  1  0.87359168  0.87268889  0.50672612  1
  V  V63  1  0.37546459  0.75142845  0.62151238  1
  V  V64  1  0.74817767  0.50644784  0.25371974  1
  V  V65  1  0.49752731  0.24320520  0.74951226  1
  V  V66  1  0.49888564  0.75161200  0.74717311  1
  V  V67  1  0.25312078  0.49948591  0.75409832  1
  V  V68  1  0.12656468  0.12124404  0.50443443  1
  V  V69  1  0.87775951  0.72874253  0.62335510  1
  V  V70  1  0.87586149  0.49948414  0.37789146  1
  V  V71  1  0.37586076  0.37354143  0.49731304  1
  V  V72  1  0.62874391  0.87978664  0.75071990  1
  V  V73  1  -0.00700008  0.49850771  0.00841643  1
  V  V74  1  0.75502916  0.50396455  0.74559543  1
  V  V75  1  0.36774841  0.50746589  0.37611249  1
  V  V76  1  0.25148366  0.87791200  0.12308257  1
  V  V77  1  0.13212047  0.24890153  0.87831835  1
  V  V78  1  0.24926877  0.75453397  0.00368181  1
  Zn  Zn79  1  0.11817517  0.50090886  0.13098743  1
  Zn  Zn80  1  0.60649044  0.10731649  0.48465906  1
  Zn  Zn81  1  0.50746264  0.63053082  0.61923243  1
  Zn  Zn82  1  -0.01530038  0.00283152  0.00841576  1
  Zn  Zn83  1  0.24896850  0.12353661  0.37570160  1
  Zn  Zn84  1  0.49925848  0.37788753  0.36809883  1
  Zn  Zn85  1  0.78874692  0.81484107  0.08202917  1
  Zn  Zn86  1  0.63196884  0.62216727  0.01226499  1
  Zn  Zn87  1  0.10748864  -0.00001538  0.12803284  1
  Zn  Zn88  1  0.23294413  0.00376776  0.75619723  1
  Zn  Zn89  1  -0.00379630  0.13911838  0.65105023  1
  Zn  Zn90  1  0.88115334  0.25007909  0.62968837  1
  Zn  Zn91  1  0.36604529  0.00440157  0.88730119  1
  Zn  Zn92  1  0.26122271  0.23458275  0.00447218  1
  Zn  Zn93  1  0.70100468  -0.06788099  0.18457261  1
  Zn  Zn94  1  0.18668848  0.18265020  0.18427465  1
  Zn  Zn95  1  0.18486270  0.18527222  0.68148286  1
  Zn  Zn96  1  0.18858755  0.68750565  0.18930840  1
  Zn  Zn97  1  0.18786625  0.69038539  0.68569492  1
  Zn  Zn98  1  0.68746511  0.19554424  0.17981301  1
  Zn  Zn99  1  0.69103286  0.18802982  0.69162967  1
  Zn  Zn100  1  0.67674901  0.72979971  0.17078118  1
  Zn  Zn101  1  0.69234250  0.69042077  0.68624042  1
  Zn  Zn102  1  0.31151826  0.31451073  0.31122221  1
  Zn  Zn103  1  0.31046224  0.31051284  0.81477345  1
  Zn  Zn104  1  0.31796885  0.81831872  0.31343226  1
  Zn  Zn105  1  0.28875232  0.84337505  0.83520418  1
  Zn  Zn106  1  0.81414742  0.31565456  0.30765574  1
  Zn  Zn107  1  0.81120623  0.31726188  0.81386441  1
  Zn  Zn108  1  0.80813138  0.81312200  0.30280502  1
  Zn  Zn109  1  0.76784627  0.85352121  0.87146612  1
  Zn  Zn110  1  0.18466276  0.43365979  0.43511710  1
  Zn  Zn111  1  0.18510817  0.43890953  0.93960218  1
  Zn  Zn112  1  0.18970192  0.93185717  0.44051578  1
  Zn  Zn113  1  0.17688268  0.94621437  0.93373403  1
  Zn  Zn114  1  0.68413958  0.43581550  0.43193172  1
  Zn  Zn115  1  0.67903587  0.44556560  0.93152679  1
  Zn  Zn116  1  0.68778597  0.93365775  0.43966491  1
  Zn  Zn117  1  0.72305505  0.96461945  0.99598154  1
  Zn  Zn118  1  0.31246306  0.05994121  0.07113584  1
  Zn  Zn119  1  0.31150179  0.06342195  0.56784243  1
  Zn  Zn120  1  0.31285418  0.55924695  0.06386916  1
  Zn  Zn121  1  0.31050314  0.56311354  0.56416794  1
  Zn  Zn122  1  0.81460038  0.08848610  0.06864520  1
  Zn  Zn123  1  0.81243712  0.06399624  0.56452439  1
  Zn  Zn124  1  0.79295529  0.59816412  0.08186750  1
  Zn  Zn125  1  0.80608439  0.55691054  0.55136422  1
  Zn  Zn126  1  0.43379060  0.44272138  0.18410879  1
  Zn  Zn127  1  0.43736933  0.43553965  0.68236028  1
  Zn  Zn128  1  0.44011831  0.94214127  0.18481749  1
  Zn  Zn129  1  0.43556895  0.93807589  0.68559415  1
  Zn  Zn130  1  0.93488931  0.42837678  0.19394188  1
  Zn  Zn131  1  0.93740437  0.43343155  0.68634900  1
  Zn  Zn132  1  0.87836711  0.95158005  0.16309791  1
  Zn  Zn133  1  1.06835863  0.92940562  0.69848918  1
  Zn  Zn134  1  0.06268689  0.06317023  0.32407172  1
  Zn  Zn135  1  0.06162908  0.07709341  0.80542980  1
  Zn  Zn136  1  0.06283674  0.55853498  0.31868811  1
  Zn  Zn137  1  0.06346346  0.56659327  0.81212030  1
  Zn  Zn138  1  0.57085045  0.05768297  0.29775441  1
  Zn  Zn139  1  0.56434097  0.06073567  0.81680038  1
  Zn  Zn140  1  0.55935610  0.56794609  0.31282045  1
  Zn  Zn141  1  0.56199726  0.56195030  0.80845175  1
  Zn  Zn142  1  0.43957295  0.17763272  0.43031148  1
  Zn  Zn143  1  0.44002867  0.19323605  0.93517931  1
  Zn  Zn144  1  0.44268676  0.69211054  0.43199896  1
  Zn  Zn145  1  0.43193977  0.69241278  0.93845675  1
  Zn  Zn146  1  0.92612909  0.17597425  0.46892042  1
  Zn  Zn147  1  0.94257260  0.19870280  0.94778734  1
  Zn  Zn148  1  0.93733322  0.68232955  0.43715853  1
  Zn  Zn149  1  0.94200246  0.67438820  0.92765971  1
  Zn  Zn150  1  0.06296684  0.31299438  0.06435471  1
  Zn  Zn151  1  0.06068913  0.30965345  0.56185322  1
  Zn  Zn152  1  0.05970358  0.81248126  0.06011498  1
  Zn  Zn153  1  0.06001176  0.80545936  0.56398160  1
  Zn  Zn154  1  0.56108860  0.31965443  0.06174827  1
  Zn  Zn155  1  0.54352435  0.27538787  0.54137367  1
  Zn  Zn156  1  0.57402507  0.82253238  0.05923404  1
  Zn  Zn157  1  0.56494221  0.82088530  0.55886321  1
  O  O158  1  0.11022702  0.12343800  0.12130742  1
  O  O159  1  0.11615551  0.12437066  0.61300510  1
  O  O160  1  0.13015473  0.62249558  0.11299670  1
  O  O161  1  0.13347234  0.61461807  0.61475472  1
  O  O162  1  0.61235301  0.14165838  0.10839152  1
  O  O163  1  0.63617496  0.10508931  0.63920112  1
  O  O164  1  0.60292865  0.64142108  0.12645489  1
  O  O165  1  0.62640211  0.60896879  0.62898974  1
  O  O166  1  0.37450324  0.38577904  0.38261338  1
  O  O167  1  0.38205089  0.37512552  0.87948492  1
  O  O168  1  0.38774370  0.87303510  0.38662403  1
  O  O169  1  0.39517970  0.86329712  0.87434056  1
  O  O170  1  0.89262242  0.38462084  0.36633192  1
  O  O171  1  0.88717451  0.38319992  0.86687402  1
  O  O172  1  0.87910719  0.87932275  0.38475356  1
  O  O173  1  0.88145048  0.82131791  0.90548602  1
  O  O174  1  0.24610951  -0.00493489  0.36067477  1
  O  O175  1  0.26394182  -0.04073260  0.86247046  1
  O  O176  1  0.25832559  0.49589631  0.36773235  1
  O  O177  1  0.24272799  0.51097119  0.86405516  1
  O  O178  1  0.76255151  0.00590096  0.38254937  1
  O  O179  1  0.75620057  -0.03571846  0.88722143  1
  O  O180  1  0.76308366  0.49005578  0.36677783  1
  O  O181  1  0.75578126  0.50177363  0.86241458  1
  O  O182  1  0.24730664  0.49087298  0.13680630  1
  O  O183  1  0.24093658  0.49547923  0.63268138  1
  O  O184  1  0.24208107  0.99006696  0.13627478  1
  O  O185  1  0.25149657  0.98551262  0.63047552  1
  O  O186  1  0.75457869  0.49733751  0.13739926  1
  O  O187  1  0.74310064  0.49295823  0.62575749  1
  O  O188  1  0.77677669  0.98665332  0.09822580  1
  O  O189  1  0.75509243  0.98437301  0.62602315  1
  O  O190  1  0.01443549  0.37561022  0.26154126  1
  O  O191  1  0.01385715  0.38308422  0.75974091  1
  O  O192  1  0.00702292  0.85771206  0.26170618  1
  O  O193  1  0.01076172  0.83916622  0.73417408  1
  O  O194  1  0.50567384  0.37285464  0.24336007  1
  O  O195  1  0.50401778  0.37333223  0.75497591  1
  O  O196  1  0.49447858  0.87907435  0.26320275  1
  O  O197  1  0.50417679  0.86706315  0.75370253  1
  O  O198  1  0.49409434  0.13350644  0.24075428  1
  O  O199  1  0.49027955  0.13811734  0.75739199  1
  O  O200  1  0.48290553  0.61792001  0.23917408  1
  O  O201  1  0.49034075  0.63182946  0.74615276  1
  O  O202  1  1.00946862  0.12853716  0.24650894  1
  O  O203  1  0.97760146  0.12528838  0.76028196  1
  O  O204  1  0.99990848  0.63416210  0.25752795  1
  O  O205  1  1.02387259  0.64182786  0.73723616  1
  O  O206  1  0.37389391  0.26744080  -0.00512097  1
  O  O207  1  0.36833964  0.25710990  0.50652636  1
  O  O208  1  0.35665943  0.74789623  0.00939286  1
  O  O209  1  0.36993223  0.75136212  0.50563183  1
  O  O210  1  0.88185677  0.25806888  0.02113612  1
  O  O211  1  0.85079140  0.26300368  0.48811181  1
  O  O212  1  0.87697347  0.76746833  -0.03865837  1
  O  O213  1  0.86749549  0.75230385  0.50281797  1
  O  O214  1  0.13743443  0.24149285  0.50642244  1
  O  O215  1  0.12758530  0.24076035  0.99669425  1
  O  O216  1  0.13223508  0.74252919  0.49534297  1
  O  O217  1  0.12729818  0.74123600  0.99499828  1
  O  O218  1  0.63612015  0.26646038  0.47420878  1
  O  O219  1  0.61173823  0.24816195  0.98509353  1
  O  O220  1  0.63851521  0.75423749  0.50044442  1
  O  O221  1  0.60967650  0.73746218  0.98213786  1
  O  O222  1  0.50201179  0.24658869  0.13301283  1
  O  O223  1  0.48645480  0.26458101  0.64053825  1
  O  O224  1  0.48254661  0.74832114  0.11356754  1
  O  O225  1  0.49336766  0.75161028  0.62830642  1
  O  O226  1  0.99619104  0.24293524  0.12745180  1
  O  O227  1  0.99529797  0.25638055  0.63204961  1
  O  O228  1  1.00531925  0.74780712  0.14256512  1
  O  O229  1  0.98412216  0.74013631  0.61964209  1
  O  O230  1  -0.00968842  0.26098871  0.39353051  1
  O  O231  1  0.01378698  0.26441661  0.88224173  1
  O  O232  1  0.01007232  0.75634031  0.37771426  1
  O  O233  1  0.01129492  0.73722237  0.85833491  1
  O  O234  1  0.50827300  0.25403552  0.35789461  1
  O  O235  1  0.50428464  0.26459924  0.86415756  1
  O  O236  1  0.51242070  0.76583246  0.38309831  1
  O  O237  1  0.50260938  0.75002023  0.86414351  1
  O  O238  1  0.24570299  0.13143418  0.50240646  1
  O  O239  1  0.22980341  0.12077913  1.01658230  1
  O  O240  1  0.24278214  0.63502571  0.50069615  1
  O  O241  1  0.24377141  0.63084138  0.99404602  1
  O  O242  1  0.74041951  0.14086255  0.48943261  1
  O  O243  1  0.73067815  0.13486604  1.00432810  1
  O  O244  1  0.75101276  0.64008408  0.49417777  1
  O  O245  1  0.74407708  0.60968380  0.97555221  1
  O  O246  1  0.25495597  0.38121390  0.00978788  1
  O  O247  1  0.25635711  0.36934148  0.50358900  1
  O  O248  1  0.23523302  0.86652166  0.01424675  1
  O  O249  1  0.26204594  0.86665828  0.50697021  1
  O  O250  1  0.74031907  0.39340958  0.01278492  1
  O  O251  1  0.74328273  0.37134856  0.50858346  1
  O  O252  1  0.73507213  0.85133617  -0.01359618  1
  O  O253  1  0.75879792  0.86713294  0.51027271  1
  O  O254  1  0.13412137  0.49736386  0.25221947  1
  O  O255  1  0.13384116  0.49384962  0.74361965  1
  O  O256  1  0.12757734  0.98788409  0.25200318  1
  O  O257  1  0.12183513  0.99072308  0.77352622  1
  O  O258  1  0.63404384  0.49701387  0.25846703  1
  O  O259  1  0.63034954  0.49242574  0.74098952  1
  O  O260  1  0.64142500  1.01127744  0.22896657  1
  O  O261  1  0.62002992  0.98705688  0.74485448  1
  O  O262  1  0.36375938  0.01031859  0.24214714  1
  O  O263  1  0.37851237  0.01681775  0.74882602  1
  O  O264  1  0.36551279  0.50599637  0.25801391  1
  O  O265  1  0.36371490  0.51015735  0.73935099  1
  O  O266  1  0.88143994  -0.00145330  0.27131485  1
  O  O267  1  0.89621774  -0.02478380  0.82380432  1
  O  O268  1  0.87369884  0.50493871  0.25863610  1
  O  O269  1  0.86537787  0.49537581  0.75525720  1
  O  O270  1  0.11629628  0.37397407  0.36443545  1
  O  O271  1  0.12148414  0.37106271  0.86710580  1
  O  O272  1  0.11739214  0.86549354  0.36953566  1
  O  O273  1  0.11442389  0.85739394  0.88958239  1
  O  O274  1  0.62272499  0.36982295  0.35620855  1
  O  O275  1  0.61361634  0.37120129  0.86415299  1
  O  O276  1  0.61339481  0.86980452  0.38178531  1
  O  O277  1  0.61184004  0.85728322  0.86175405  1
  O  O278  1  0.38474916  0.12842197  0.13482144  1
  O  O279  1  0.37312159  0.13670809  0.63558651  1
  O  O280  1  0.37699989  0.63444656  0.13138175  1
  O  O281  1  0.37285479  0.63524003  0.63289704  1
  O  O282  1  0.88296461  0.14649778  0.13625680  1
  O  O283  1  0.89016946  0.14141471  0.58689576  1
  O  O284  1  0.89125001  0.61243322  0.14539929  1
  O  O285  1  0.86746527  0.63023548  0.61642199  1
  O  O286  1  0.24436862  0.26411398  0.12294537  1
  O  O287  1  0.25881842  0.25590609  0.61767542  1
  O  O288  1  0.25295266  0.75786216  0.12086173  1
  O  O289  1  0.25771945  0.75580121  0.61326205  1
  O  O290  1  0.75962077  0.27070124  0.12628922  1
  O  O291  1  0.73827123  0.25605208  0.60611015  1
  O  O292  1  0.76473438  0.70622346  0.10713789  1
  O  O293  1  0.75912556  0.75435093  0.61466225  1
  O  O294  1  0.25702858  0.24860789  0.38907656  1
  O  O295  1  0.23704994  0.25612859  0.88493890  1
  O  O296  1  0.24049293  0.76106773  0.38444097  1
  O  O297  1  0.23955586  0.74844129  0.88700738  1
  O  O298  1  0.74453995  0.24668763  0.37404409  1
  O  O299  1  0.72976326  0.26519712  0.87719786  1
  O  O300  1  0.74020660  0.76340748  0.38658387  1
  O  O301  1  0.73865610  0.73464487  0.86308945  1
  O  O302  1  0.01289933  0.12773822  0.01142858  1
  O  O303  1  0.01088599  0.10205861  0.49437035  1
  O  O304  1  0.00821942  0.61060413  -0.00557461  1
  O  O305  1  0.01462937  0.61175900  0.49558936  1
  O  O306  1  0.50155080  0.12357732  0.00493211  1
  O  O307  1  0.51426250  0.16517955  0.50984898  1
  O  O308  1  0.48825900  0.61924116  0.00685596  1
  O  O309  1  0.48929862  0.61040421  0.50285086  1
  O  O310  1  0.48555835  0.37816170  0.49762128  1
  O  O311  1  0.49183188  0.38450021  0.99307478  1
  O  O312  1  0.48674895  0.87994418  0.49909854  1
  O  O313  1  0.51239061  0.89016584  0.99221990  1
  O  O314  1  1.01353673  0.38574125  0.48629462  1
  O  O315  1  1.01214222  0.39040411  0.98720208  1
  O  O316  1  0.99606741  0.87753728  0.49422525  1
  O  O317  1  0.97146031  0.88308288  1.02649623  1
  O  O318  1  0.48800881  0.49781724  0.38215213  1
  O  O319  1  0.49934639  0.49269707  0.87747162  1
  O  O320  1  0.51133192  0.99177429  0.37388307  1
  O  O321  1  0.49451862  0.99278350  0.88146538  1
  O  O322  1  0.99643703  0.49091661  0.38430879  1
  O  O323  1  0.99427000  0.49557843  0.87522113  1
  O  O324  1  0.99165517  0.98640806  0.38291482  1
  O  O325  1  0.95964699  0.96372318  0.85824776  1
  O  O326  1  -0.01677915  0.02231909  0.12736481  1
  O  O327  1  0.00330089  -0.01106588  0.61474056  1
  O  O328  1  -0.00274296  0.48893191  0.11099617  1
  O  O329  1  0.01203336  0.48955331  0.61614663  1
  O  O330  1  0.49992778  0.01387815  0.11565744  1
  O  O331  1  0.51366870  -0.00109890  0.62630379  1
  O  O332  1  0.49277300  0.51332585  0.11456194  1
  O  O333  1  0.50655373  0.50005748  0.61631325  1
  O  O334  1  0.24015538  0.38145562  0.24679182  1
  O  O335  1  0.24444080  0.38300201  0.74676192  1
  O  O336  1  0.24083526  0.87816769  0.24515440  1
  O  O337  1  0.25940130  0.86455950  0.72700394  1
  O  O338  1  0.74305032  0.38865747  0.24160661  1
  O  O339  1  0.73876948  0.38391707  0.74338144  1
  O  O340  1  0.79847093  0.86635568  0.20331899  1
  O  O341  1  0.73623197  0.86042230  0.74432226  1
  O  O342  1  0.25541141  0.11700112  0.24916726  1
  O  O343  1  0.26053175  0.12289147  0.74664496  1
  O  O344  1  0.25960734  0.61486621  0.24515986  1
  O  O345  1  0.25443621  0.61951211  0.75500168  1
  O  O346  1  0.75178539  0.13615655  0.25914607  1
  O  O347  1  0.78716374  0.16318812  0.75313448  1
  O  O348  1  0.77068891  0.61507611  0.25165332  1
  O  O349  1  0.74462728  0.61138908  0.75595482  1
  O  O350  1  0.37147209  0.12524955  0.35862766  1
  O  O351  1  0.37242965  0.12734958  0.86377831  1
  O  O352  1  0.37917665  0.61756153  0.36653112  1
  O  O353  1  0.36025224  0.63647628  0.86193128  1
  O  O354  1  0.86877988  0.11066197  0.38557718  1
  O  O355  1  0.88302272  0.10283443  0.90919699  1
  O  O356  1  0.88522565  0.60704194  0.36764057  1
  O  O357  1  0.86105205  0.61419302  0.87007001  1
  O  O358  1  0.12913574  0.37809929  0.14053828  1
  O  O359  1  0.13132564  0.38302741  0.63238787  1
  O  O360  1  0.12843231  0.87473760  0.13681469  1
  O  O361  1  0.13876231  0.86859099  0.61977376  1
  O  O362  1  0.63643606  0.37368702  0.13320047  1
  O  O363  1  0.63102530  0.38343299  0.63498102  1
  O  O364  1  0.65691878  0.83958364  0.12867926  1
  O  O365  1  0.63348737  0.88432447  0.63198435  1
  O  O366  1  0.13114231  0.25950926  0.25368779  1
  O  O367  1  0.13501220  0.26096890  0.75822901  1
  O  O368  1  0.11889557  0.75311168  0.25850927  1
  O  O369  1  0.13842342  0.75271150  0.76769525  1
  O  O370  1  0.61791218  0.26091579  0.25151690  1
  O  O371  1  0.61734749  0.25742603  0.75671428  1
  O  O372  1  0.63205278  0.75164855  0.27014419  1
  O  O373  1  0.61137707  0.75248466  0.74769952  1
  O  O374  1  0.38388421  0.24537670  0.25254575  1
  O  O375  1  0.37649822  0.24216339  0.74508275  1
  O  O376  1  0.36464940  0.74106980  0.24118507  1
  O  O377  1  0.38384585  0.74322796  0.73720843  1
  O  O378  1  0.88297864  0.27438771  0.22887475  1
  O  O379  1  0.83949774  0.22598529  0.74539206  1
  O  O380  1  0.89044677  0.73342591  0.26228894  1
  O  O381  1  0.88317207  0.73811571  0.73233830  1
  O  O382  1  0.37668194  0.49301120  0.49549234  1
  O  O383  1  0.38178931  0.48990358  0.99869036  1
  O  O384  1  0.37028013  0.99085289  0.50002846  1
  O  O385  1  0.38899492  1.00705588  1.00180909  1
  O  O386  1  0.88764126  0.50056215  0.49393105  1
  O  O387  1  0.89022322  0.50406676  0.98488616  1
  O  O388  1  0.88735807  0.98756540  0.49620925  1
  O  O389  1  0.87830348  1.04985049  0.96880449  1
  O  O390  1  0.11014692  0.00967699  0.00127649  1
  O  O391  1  0.11456936  -0.00314639  0.49987998  1
  O  O392  1  0.11489821  0.50793367  0.00081605  1
  O  O393  1  0.12343653  0.50500300  0.50678651  1
  O  O394  1  0.61460650  0.02377357  -0.00546799  1
  O  O395  1  0.63337750  0.00076102  0.51851157  1
  O  O396  1  0.60398073  0.50759794  -0.00619608  1
  O  O397  1  0.61174266  0.49043898  0.50519806  1
  O  O398  1  0.36358445  0.37983364  0.11732072  1
  O  O399  1  0.36765387  0.36900784  0.61610481  1
  O  O400  1  0.36094964  0.86863245  0.13341308  1
  O  O401  1  0.37028564  0.86809549  0.61252472  1
  O  O402  1  0.86197584  0.37960784  0.11866431  1
  O  O403  1  0.85618448  0.36738804  0.63731714  1
  O  O404  1  0.90967907  0.86970666  0.08290984  1
  O  O405  1  0.86936619  0.85918167  0.61391144  1
  O  O406  1  0.13195415  0.11834749  0.39505455  1
  O  O407  1  0.12010831  0.13387896  0.89084923  1
  O  O408  1  0.12562180  0.63541772  0.38416988  1
  O  O409  1  0.13581459  0.63313141  0.88430121  1
  O  O410  1  0.63322249  0.13428115  0.36934357  1
  O  O411  1  0.61928238  0.14250199  0.88108466  1
  O  O412  1  0.61280826  0.64301780  0.38023790  1
  O  O413  1  0.63388735  0.62867160  0.86761400  1
