# generated using pymatgen
data_V79Zn79O256
_symmetry_space_group_name_H-M   'P 1'
_cell_length_a   16.93293501
_cell_length_b   16.90381754
_cell_length_c   16.96600038
_cell_angle_alpha   89.77536608
_cell_angle_beta   89.93224907
_cell_angle_gamma   90.21649926
_symmetry_Int_Tables_number   1
_chemical_formula_structural   V79Zn79O256
_chemical_formula_sum   'V79 Zn79 O256'
_cell_volume   4856.12391907
_cell_formula_units_Z   1
loop_
 _symmetry_equiv_pos_site_id
 _symmetry_equiv_pos_as_xyz
  1  'x, y, z'
loop_
 _atom_site_type_symbol
 _atom_site_label
 _atom_site_symmetry_multiplicity
 _atom_site_fract_x
 _atom_site_fract_y
 _atom_site_fract_z
 _atom_site_occupancy
  V  V0  1  0.62583760  0.87626540  0.25369247  1
  V  V1  1  0.00986333  0.86873365  0.36222184  1
  V  V2  1  0.37622006  0.39596177  -0.00230210  1
  V  V3  1  0.87500615  0.01366361  0.88271279  1
  V  V4  1  0.37499850  0.00197215  0.36860257  1
  V  V5  1  0.49272682  0.63179762  0.62401901  1
  V  V6  1  0.64081624  0.00026146  0.63863406  1
  V  V7  1  0.26010290  0.24648630  -0.00625956  1
  V  V8  1  0.63104370  0.12775402  0.01197002  1
  V  V9  1  0.87764271  0.75067836  0.13194261  1
  V  V10  1  0.00623215  0.00000630  0.51856642  1
  V  V11  1  0.00108732  0.62806006  0.12861036  1
  V  V12  1  0.37522421  0.86926811  0.50800052  1
  V  V13  1  0.12600286  0.00015286  0.13138367  1
  V  V14  1  0.61685190  0.37671155  0.75354618  1
  V  V15  1  0.50018806  0.36847269  0.37288337  1
  V  V16  1  0.50458406  0.74815964  0.25234005  1
  V  V17  1  0.12830769  0.12026467  -0.01279590  1
  V  V18  1  0.76113295  0.62314446  0.87550588  1
  V  V19  1  0.87489701  0.12799747  0.25348682  1
  V  V20  1  0.24848656  0.37779166  0.62396454  1
  V  V21  1  0.49794742  0.49933380  0.49925130  1
  V  V22  1  0.25448863  0.75592704  -0.00162097  1
  V  V23  1  0.88673011  0.12271117  0.73469339  1
  V  V24  1  0.88382975  0.50298020  0.38150547  1
  V  V25  1  0.87726328  0.62446275  0.24961368  1
  V  V26  1  0.37162823  0.36303544  0.50426779  1
  V  V27  1  0.38000951  0.62564237  0.24631630  1
  V  V28  1  0.12608299  0.63221281  -0.00529317  1
  V  V29  1  0.24993959  0.87366412  0.12862045  1
  V  V30  1  0.48229462  0.12755987  0.12022558  1
  V  V31  1  -0.00263550  0.62510675  0.62127692  1
  V  V32  1  0.25576483  0.36987836  0.12223850  1
  V  V33  1  0.60970749  0.62232623  0.00277282  1
  V  V34  1  0.48232530  0.24635021  0.24132731  1
  V  V35  1  0.01380006  0.25487452  0.74120687  1
  V  V36  1  0.36950431  0.50418674  0.37519756  1
  V  V37  1  0.24447292  0.00197293  0.75353495  1
  V  V38  1  0.12552565  0.49848769  0.12185656  1
  V  V39  1  0.74581361  0.62197420  0.37342846  1
  V  V40  1  0.76217522  0.50638462  0.75055626  1
  V  V41  1  0.12924300  0.73992544  0.36158108  1
  V  V42  1  0.00284603  0.37963684  0.37867770  1
  V  V43  1  0.24342651  0.73778497  0.49704868  1
  V  V44  1  0.75309360  0.74970345  0.50064549  1
  V  V45  1  0.38042165  0.75337748  0.12239348  1
  V  V46  1  0.87525031  0.87508971  0.00249074  1
  V  V47  1  0.49819567  0.02294674  0.51295546  1
  V  V48  1  0.75201399  0.37531144  0.11320419  1
  V  V49  1  0.62940752  0.24328628  0.87808471  1
  V  V50  1  0.23830300  0.86984549  0.62923546  1
  V  V51  1  0.61748828  0.50308565  0.63258389  1
  V  V52  1  0.61182508  0.50204798  0.12010206  1
  V  V53  1  0.25373674  -0.00012682  0.24726795  1
  V  V54  1  0.49551576  -0.00637531  0.00278589  1
  V  V55  1  0.48202414  0.23882805  0.74498540  1
  V  V56  1  0.62488211  0.75643316  0.87161845  1
  V  V57  1  0.87402646  -0.00122264  0.37702025  1
  V  V58  1  0.37242049  0.00019582  0.86832495  1
  V  V59  1  0.37607427  0.62237280  0.75113585  1
  V  V60  1  -0.01253863  0.49217308  -0.01192281  1
  V  V61  1  0.12172970  0.27416926  0.87423706  1
  V  V62  1  0.87618346  0.73480719  0.63648979  1
  V  V63  1  0.62200509  0.62903036  0.49465691  1
  V  V64  1  0.50514160  0.87408103  0.37644039  1
  V  V65  1  0.87709173  0.86400315  0.50191157  1
  V  V66  1  0.62456998  0.36875549  0.24473986  1
  V  V67  1  0.49183463  0.38803878  0.88085533  1
  V  V68  1  0.74785265  0.00443474  0.25532250  1
  V  V69  1  0.25240111  0.63182544  0.87440301  1
  V  V70  1  0.74712570  0.87847281  0.12955122  1
  V  V71  1  0.12277257  0.24005810  0.37970696  1
  V  V72  1  0.24725187  0.12350143  0.37070927  1
  V  V73  1  0.00376852  0.85975958  0.87573321  1
  V  V74  1  0.23731635  0.50293795  0.75605427  1
  V  V75  1  0.50024628  0.75947822  0.74503501  1
  V  V76  1  0.25062308  0.50367202  0.24962306  1
  V  V77  1  0.12270792  0.51072228  0.59902227  1
  V  V78  1  0.86941426  0.25370959  0.11365712  1
  Zn  Zn79  1  0.87593294  0.37212685  0.50783811  1
  Zn  Zn80  1  0.00380228  0.12903460  0.12510844  1
  Zn  Zn81  1  0.00259299  0.25071403  0.24549949  1
  Zn  Zn82  1  0.75149784  0.21734381  0.47798605  1
  Zn  Zn83  1  0.11243983  0.86042055  0.74948440  1
  Zn  Zn84  1  0.12603245  0.37022062  0.24741528  1
  Zn  Zn85  1  0.15738260  0.14219207  0.54035459  1
  Zn  Zn86  1  0.72696117  0.34595360  0.59962010  1
  Zn  Zn87  1  0.75038410  -0.00663990  0.76042341  1
  Zn  Zn88  1  0.81836137  0.32075596  -0.06279319  1
  Zn  Zn89  1  0.74738877  0.74924176  0.00209592  1
  Zn  Zn90  1  0.00330584  -0.00166789  0.00360895  1
  Zn  Zn91  1  0.50146613  0.87443695  0.87932827  1
  Zn  Zn92  1  0.88054432  0.24767677  0.61661636  1
  Zn  Zn93  1  0.74819557  0.49949750  0.24674692  1
  Zn  Zn94  1  0.18893387  0.18597501  0.18767453  1
  Zn  Zn95  1  0.19942613  0.18341727  0.69689215  1
  Zn  Zn96  1  0.19001244  0.68657264  0.18599779  1
  Zn  Zn97  1  0.18347713  0.69064419  0.68397471  1
  Zn  Zn98  1  0.68402233  0.19333340  0.30829335  1
  Zn  Zn99  1  0.69540616  0.17279554  0.68698372  1
  Zn  Zn100  1  0.68691440  0.68804476  0.18703517  1
  Zn  Zn101  1  0.68710246  0.68756705  0.68709665  1
  Zn  Zn102  1  0.30778366  0.31397769  0.31554248  1
  Zn  Zn103  1  0.31012366  0.31777991  0.81346603  1
  Zn  Zn104  1  0.31330320  0.81415282  0.31400347  1
  Zn  Zn105  1  0.32252723  0.81546789  0.81586625  1
  Zn  Zn106  1  0.81851826  0.31883994  0.30485261  1
  Zn  Zn107  1  0.81110479  0.31240512  0.76037639  1
  Zn  Zn108  1  0.81205113  0.81031706  0.31819521  1
  Zn  Zn109  1  0.81146202  0.81261203  0.81289589  1
  Zn  Zn110  1  0.18873601  0.43137813  0.43650695  1
  Zn  Zn111  1  0.19096057  0.44471145  0.93986105  1
  Zn  Zn112  1  0.18478581  0.93747882  0.43933065  1
  Zn  Zn113  1  0.18871583  0.93329579  0.93895797  1
  Zn  Zn114  1  0.69052447  0.36337973  0.43445329  1
  Zn  Zn115  1  0.68188187  0.44234812  0.93334542  1
  Zn  Zn116  1  0.67873404  1.05225544  0.44006788  1
  Zn  Zn117  1  0.68656626  0.94541612  0.94411141  1
  Zn  Zn118  1  0.31274311  0.05972523  0.05443815  1
  Zn  Zn119  1  0.30579588  0.05207408  0.56059953  1
  Zn  Zn120  1  0.31381597  0.56923896  0.06557708  1
  Zn  Zn121  1  0.31339677  0.55991902  0.56504245  1
  Zn  Zn122  1  0.81129399  0.06484275  0.06813103  1
  Zn  Zn123  1  0.82053198  0.05243308  0.56595814  1
  Zn  Zn124  1  0.80646207  0.55996857  0.05902078  1
  Zn  Zn125  1  0.78592708  0.52563431  0.54199020  1
  Zn  Zn126  1  0.43451290  0.43523746  0.18543848  1
  Zn  Zn127  1  0.43299673  0.43733232  0.69064988  1
  Zn  Zn128  1  0.43834125  0.93623833  0.18391597  1
  Zn  Zn129  1  0.43431435  0.93994385  0.68692439  1
  Zn  Zn130  1  0.94058967  0.43579548  0.18808125  1
  Zn  Zn131  1  0.94779987  0.43400546  0.68532831  1
  Zn  Zn132  1  0.93879567  0.94027376  0.18836981  1
  Zn  Zn133  1  0.91394137  0.92078274  0.69845952  1
  Zn  Zn134  1  0.05667979  0.05686000  0.31143936  1
  Zn  Zn135  1  0.05746615  0.04701485  0.80505821  1
  Zn  Zn136  1  0.06631388  0.56289914  0.31060234  1
  Zn  Zn137  1  0.05766781  0.57417348  0.81045571  1
  Zn  Zn138  1  0.55360795  0.06054253  0.30504258  1
  Zn  Zn139  1  0.56200225  0.06196548  0.81222833  1
  Zn  Zn140  1  0.56158974  0.55570083  0.31029512  1
  Zn  Zn141  1  0.56105117  0.57143099  0.81747072  1
  Zn  Zn142  1  0.43218750  0.18860596  0.42856948  1
  Zn  Zn143  1  0.44040758  0.18511800  0.92478722  1
  Zn  Zn144  1  0.43230484  0.68887024  0.43396286  1
  Zn  Zn145  1  0.43496275  0.68867607  0.93341084  1
  Zn  Zn146  1  0.93727552  0.18377360  0.44450538  1
  Zn  Zn147  1  0.94997955  0.19177522  0.93811292  1
  Zn  Zn148  1  0.94821622  0.68248589  0.43969723  1
  Zn  Zn149  1  0.93638299  0.68377727  0.94663582  1
  Zn  Zn150  1  0.06094138  0.31138804  0.05827343  1
  Zn  Zn151  1  0.06959252  0.31787713  0.56173519  1
  Zn  Zn152  1  0.06478152  0.81395026  0.06528922  1
  Zn  Zn153  1  0.05931248  0.80641592  0.55579249  1
  Zn  Zn154  1  0.56037865  0.31108640  0.06118696  1
  Zn  Zn155  1  0.55928376  0.30064829  0.56413121  1
  Zn  Zn156  1  0.56751852  0.80900139  0.06622568  1
  Zn  Zn157  1  0.57036698  0.81991200  0.56188516  1
  O  O158  1  0.12839558  0.11447894  0.11800117  1
  O  O159  1  0.11954483  0.12254730  0.64186925  1
  O  O160  1  0.12010339  0.61849780  0.12003298  1
  O  O161  1  0.12357596  0.61528392  0.62060818  1
  O  O162  1  0.60628320  0.12973566  0.10921836  1
  O  O163  1  0.62735515  0.10524288  0.62891515  1
  O  O164  1  0.63077393  0.61957592  0.11053827  1
  O  O165  1  0.61077120  0.62128822  0.62016232  1
  O  O166  1  0.37974086  0.38258884  0.38185760  1
  O  O167  1  0.38400742  0.37719784  0.88338166  1
  O  O168  1  0.38130343  0.88537019  0.38074325  1
  O  O169  1  0.38615618  0.88643835  0.87699700  1
  O  O170  1  0.88926541  0.38568121  0.37068748  1
  O  O171  1  0.86222370  0.36165041  0.84595651  1
  O  O172  1  0.88521727  0.87567551  0.38079998  1
  O  O173  1  0.88160514  0.87472719  0.89300041  1
  O  O174  1  0.25567457  -0.00442448  0.36091948  1
  O  O175  1  0.26306057  -0.01909507  0.86598521  1
  O  O176  1  0.25957247  0.48814557  0.36128184  1
  O  O177  1  0.24715294  0.51334740  0.86331260  1
  O  O178  1  0.76440289  -0.00979369  0.36439379  1
  O  O179  1  0.77134747  -0.00802481  0.87951207  1
  O  O180  1  0.76758367  0.51452280  0.36874882  1
  O  O181  1  0.74435803  0.51388871  0.86457023  1
  O  O182  1  0.24435945  0.49402915  0.12920991  1
  O  O183  1  0.23827455  0.50414281  0.63424962  1
  O  O184  1  0.24908295  0.99339935  0.12901194  1
  O  O185  1  0.25791958  0.97959829  0.64200440  1
  O  O186  1  0.73999012  0.49140065  0.12497396  1
  O  O187  1  0.73066998  0.51631887  0.64388509  1
  O  O188  1  0.76000009  0.98690756  0.14157195  1
  O  O189  1  0.74237117  0.99202334  0.62675209  1
  O  O190  1  0.00542668  0.37218550  0.26098152  1
  O  O191  1  0.00414528  0.35438910  0.74999160  1
  O  O192  1  -0.00570329  0.87381786  0.26342447  1
  O  O193  1  -0.00426515  0.87619394  0.77226098  1
  O  O194  1  0.50018151  0.36539514  0.25167312  1
  O  O195  1  0.49942954  0.37387779  0.76318179  1
  O  O196  1  0.50652076  0.87186249  0.25519720  1
  O  O197  1  0.49558587  0.86061310  0.74719944  1
  O  O198  1  0.49844711  0.13672990  0.23496971  1
  O  O199  1  0.49849177  0.14017845  0.75679770  1
  O  O200  1  0.49181915  0.63447834  0.25659477  1
  O  O201  1  0.49358987  0.63069266  0.74248949  1
  O  O202  1  0.98739658  0.12338401  0.24453044  1
  O  O203  1  0.99717579  0.13243842  0.76067298  1
  O  O204  1  0.99297554  0.61953902  0.23646913  1
  O  O205  1  1.00562302  0.62048375  0.72530746  1
  O  O206  1  0.36048976  0.25121709  -0.00904019  1
  O  O207  1  0.37569250  0.26388799  0.49490378  1
  O  O208  1  0.36734754  0.74103928  0.01240075  1
  O  O209  1  0.36069576  0.76507512  0.48619176  1
  O  O210  1  0.87831840  0.25051647  0.00944013  1
  O  O211  1  0.86478217  0.25083293  0.50075109  1
  O  O212  1  0.86939804  0.75699870  0.01491823  1
  O  O213  1  0.86889051  0.74677737  0.49806053  1
  O  O214  1  0.12299617  0.24249342  0.48499996  1
  O  O215  1  0.13024630  0.24165199  0.98761491  1
  O  O216  1  0.13921110  0.75332854  0.48917465  1
  O  O217  1  0.13837789  0.73902282  1.01265112  1
  O  O218  1  0.65979379  0.28223784  0.51821338  1
  O  O219  1  0.61529904  0.24023719  0.98861870  1
  O  O220  1  0.63386258  0.73630634  0.50844228  1
  O  O221  1  0.62720559  0.73891966  0.99551112  1
  O  O222  1  0.49477870  0.24380891  0.13276104  1
  O  O223  1  0.49651790  0.25929889  0.64550010  1
  O  O224  1  0.49067785  0.75907530  0.13862808  1
  O  O225  1  0.50985174  0.74398967  0.63681208  1
  O  O226  1  0.98801946  0.25165446  0.12560643  1
  O  O227  1  1.01546674  0.24889977  0.63746126  1
  O  O228  1  0.99101132  0.73920189  0.11965591  1
  O  O229  1  0.98935490  0.73908634  0.62141518  1
  O  O230  1  0.01018168  0.25530979  0.37192695  1
  O  O231  1  0.01912550  0.25242004  0.87280396  1
  O  O232  1  0.01542839  0.75915246  0.37880282  1
  O  O233  1  -0.00643270  0.75981037  0.88565377  1
  O  O234  1  0.49364354  0.25971146  0.35979048  1
  O  O235  1  0.50486243  0.26156995  0.86600255  1
  O  O236  1  0.48900730  0.76106632  0.36189455  1
  O  O237  1  0.50729034  0.75080825  0.86425742  1
  O  O238  1  0.23267289  0.09302334  0.46846371  1
  O  O239  1  0.24169416  0.13942328  1.00448136  1
  O  O240  1  0.26010815  0.63999178  0.50019025  1
  O  O241  1  0.24561960  0.63293969  0.99415527  1
  O  O242  1  0.76070898  0.10783020  0.49090947  1
  O  O243  1  0.73068319  0.11897160  1.01004326  1
  O  O244  1  0.73924152  0.62347356  0.49191104  1
  O  O245  1  0.74249409  0.62641687  0.98634554  1
  O  O246  1  0.25906390  0.37011241  0.00285354  1
  O  O247  1  0.25830304  0.38012375  0.51298684  1
  O  O248  1  0.24915304  0.86321612  0.01107699  1
  O  O249  1  0.26105900  0.88016919  0.51062553  1
  O  O250  1  0.74750653  0.38016869  0.00696551  1
  O  O251  1  0.76169869  0.41211648  0.51073770  1
  O  O252  1  0.75636377  0.87671061  0.01381777  1
  O  O253  1  0.76192651  0.85204691  0.49212271  1
  O  O254  1  0.13490456  0.50017879  0.23841813  1
  O  O255  1  0.13740491  0.50604155  0.74964081  1
  O  O256  1  0.13618953  1.00316923  0.23912479  1
  O  O257  1  0.14125558  0.97742540  0.76287356  1
  O  O258  1  0.62371206  0.49019877  0.23814577  1
  O  O259  1  0.61181368  0.49751300  0.74397171  1
  O  O260  1  0.63411780  0.98625698  0.25391182  1
  O  O261  1  0.63361647  1.00137334  0.74741577  1
  O  O262  1  0.36913095  -0.00515561  0.25811783  1
  O  O263  1  0.36614543  -0.00518910  0.76042355  1
  O  O264  1  0.37123799  0.50589435  0.25408016  1
  O  O265  1  0.36670912  0.51763377  0.74461724  1
  O  O266  1  0.86902357  0.00548453  0.25671074  1
  O  O267  1  0.89589912  0.01782106  0.77205342  1
  O  O268  1  0.87507473  0.51234428  0.25277657  1
  O  O269  1  0.85891903  0.49796405  0.73985727  1
  O  O270  1  0.11823684  0.36367087  0.37388203  1
  O  O271  1  0.12685977  0.37311983  0.87727927  1
  O  O272  1  0.11327049  0.87322918  0.37299157  1
  O  O273  1  0.10426129  0.87496818  0.89044384  1
  O  O274  1  0.60697799  0.38686711  0.35979897  1
  O  O275  1  0.60941644  0.37087303  0.87364578  1
  O  O276  1  0.60886564  0.87500248  0.36608449  1
  O  O277  1  0.62659555  0.86039855  0.88538136  1
  O  O278  1  0.38270367  0.12656362  0.11959027  1
  O  O279  1  0.26210206  0.14523181  0.60434108  1
  O  O280  1  0.37433136  0.63598672  0.13684271  1
  O  O281  1  0.38692470  0.62611049  0.62976275  1
  O  O282  1  0.87568579  0.13811820  0.13136495  1
  O  O283  1  0.88725255  0.12193346  0.63264658  1
  O  O284  1  0.87963014  0.63096428  0.13027011  1
  O  O285  1  0.88654627  0.62835037  0.61977353  1
  O  O286  1  0.24042809  0.26211240  0.10853882  1
  O  O287  1  0.23935762  0.28393682  0.64858124  1
  O  O288  1  0.25872225  0.75560842  0.12045356  1
  O  O289  1  0.24921930  0.75922799  0.60630471  1
  O  O290  1  0.76593431  0.26143916  0.12183472  1
  O  O291  1  0.76345514  0.26201745  0.66682820  1
  O  O292  1  0.75963186  0.76024200  0.12714632  1
  O  O293  1  0.76405473  0.73216385  0.61184292  1
  O  O294  1  0.23698109  0.23866886  0.36876380  1
  O  O295  1  0.23852399  0.25921140  0.88763256  1
  O  O296  1  0.23890433  0.76050427  0.38450165  1
  O  O297  1  0.25855507  0.74526242  0.88799281  1
  O  O298  1  0.74039788  0.27107647  0.37249716  1
  O  O299  1  0.72791651  0.26080517  0.87390708  1
  O  O300  1  0.75616258  0.73039351  0.38375847  1
  O  O301  1  0.74235697  0.74018456  0.87251677  1
  O  O302  1  0.01967207  0.12358814  0.00530483  1
  O  O303  1  -0.00633064  0.10059220  0.50060420  1
  O  O304  1  0.00899517  0.61830612  0.01093705  1
  O  O305  1  0.00672530  0.62560341  0.51685877  1
  O  O306  1  0.49811865  0.12129405  0.00883215  1
  O  O307  1  0.49134431  0.12133876  0.49742326  1
  O  O308  1  0.51078568  0.62879190  -0.00248630  1
  O  O309  1  0.50180722  0.62485726  0.50365050  1
  O  O310  1  0.49382022  0.37811963  0.49165123  1
  O  O311  1  0.48855336  0.37058935  0.98983828  1
  O  O312  1  0.48669258  0.87091463  0.49212645  1
  O  O313  1  0.51167126  0.89203606  1.00726651  1
  O  O314  1  0.99885611  0.36832594  0.48183743  1
  O  O315  1  1.00671832  0.39348937  1.00072846  1
  O  O316  1  0.99220642  0.87592226  0.48787729  1
  O  O317  1  0.98839283  0.87458716  1.00176961  1
  O  O318  1  0.48744345  0.49041003  0.37756597  1
  O  O319  1  0.50315634  0.48711350  0.87517846  1
  O  O320  1  0.48998975  0.99387790  0.38184118  1
  O  O321  1  0.49306726  0.99737343  0.88409628  1
  O  O322  1  1.00064989  0.48765850  0.36777030  1
  O  O323  1  1.00519023  0.51343169  0.89101666  1
  O  O324  1  0.99202093  0.98506329  0.37880062  1
  O  O325  1  0.98786265  0.98806932  0.88742433  1
  O  O326  1  0.01311386  0.00005296  0.12298009  1
  O  O327  1  -0.01662838  -0.02064061  0.61480295  1
  O  O328  1  0.01006180  0.50721049  0.11842135  1
  O  O329  1  0.01789755  0.50397550  0.62211625  1
  O  O330  1  0.49327733  0.01315397  0.11450880  1
  O  O331  1  0.48100707  0.01247655  0.61261973  1
  O  O332  1  0.51195545  0.49556149  0.12546305  1
  O  O333  1  0.50034731  0.51028143  0.61994109  1
  O  O334  1  0.25187894  0.38429150  0.23812744  1
  O  O335  1  0.26130875  0.39961924  0.74267235  1
  O  O336  1  0.25447785  0.88420125  0.23800552  1
  O  O337  1  0.25703826  0.86271401  0.73253131  1
  O  O338  1  0.73927916  0.37765699  0.23616956  1
  O  O339  1  0.72610554  0.40075763  0.75673787  1
  O  O340  1  0.74421206  0.87756019  0.24910004  1
  O  O341  1  0.80561924  0.89563084  0.74027652  1
  O  O342  1  0.25009853  0.11114948  0.25594705  1
  O  O343  1  0.24477827  0.09936255  0.76238527  1
  O  O344  1  0.26124841  0.61100358  0.24319646  1
  O  O345  1  0.25589959  0.62197279  0.75515071  1
  O  O346  1  0.76086359  0.11443488  0.25187847  1
  O  O347  1  0.78143759  0.11563183  0.75080486  1
  O  O348  1  0.75722290  0.62431119  0.25557253  1
  O  O349  1  0.74167788  0.61680261  0.76403950  1
  O  O350  1  0.36326950  0.11128072  0.37735129  1
  O  O351  1  0.37452728  0.10129898  0.88147798  1
  O  O352  1  0.37643473  0.61252053  0.36413091  1
  O  O353  1  0.36265113  0.62799954  0.86681131  1
  O  O354  1  0.88467170  0.11049237  0.36479586  1
  O  O355  1  0.87892128  0.11344634  0.89292682  1
  O  O356  1  0.87868950  0.62139232  0.36421916  1
  O  O357  1  0.85965193  0.63120637  0.87910853  1
  O  O358  1  0.13542695  0.38533679  0.12083605  1
  O  O359  1  0.13806312  0.39688645  0.61495399  1
  O  O360  1  0.13774853  0.88680226  0.11850636  1
  O  O361  1  0.13624610  0.86797161  0.62472336  1
  O  O362  1  0.62996048  0.38090997  0.12510572  1
  O  O363  1  0.61598262  0.39001873  0.63822026  1
  O  O364  1  0.63801962  0.86943633  0.13757510  1
  O  O365  1  0.60503419  0.90279576  0.62565830  1
  O  O366  1  0.12394138  0.25196869  0.25800836  1
  O  O367  1  0.12590317  0.24485471  0.76974548  1
  O  O368  1  0.13648796  0.75185727  0.26141928  1
  O  O369  1  0.13385767  0.75159071  0.75963919  1
  O  O370  1  0.61100488  0.26508381  0.24549669  1
  O  O371  1  0.61384516  0.26344630  0.76196385  1
  O  O372  1  0.61423722  0.75768456  0.24719154  1
  O  O373  1  0.61245561  0.74179028  0.75936955  1
  O  O374  1  0.38345894  0.25371556  0.24983581  1
  O  O375  1  0.38185912  0.25111603  0.75866219  1
  O  O376  1  0.37974260  0.74329088  0.24449364  1
  O  O377  1  0.39234345  0.73869315  0.75447451  1
  O  O378  1  0.87667137  0.24030732  0.24265776  1
  O  O379  1  0.89989359  0.23209657  0.74924668  1
  O  O380  1  0.87115999  0.73881163  0.24128886  1
  O  O381  1  0.86822543  0.74185788  0.73397660  1
  O  O382  1  0.37889795  0.49663267  0.49030979  1
  O  O383  1  0.37031080  0.49545983  0.99936336  1
  O  O384  1  0.38064946  0.99019479  0.49234369  1
  O  O385  1  0.38813905  0.99721522  0.99323321  1
  O  O386  1  0.88517376  0.50778616  0.48238250  1
  O  O387  1  0.88818735  0.50378510  1.00377629  1
  O  O388  1  0.88133872  0.98200179  0.49167982  1
  O  O389  1  0.87596170  0.99188030  0.99970160  1
  O  O390  1  0.13491195  0.01140806  0.00943583  1
  O  O391  1  0.10725257  -0.01048234  0.50495812  1
  O  O392  1  0.12689254  0.51324808  0.00976488  1
  O  O393  1  0.13307277  0.50838367  0.50013965  1
  O  O394  1  0.60784425  0.01839490  -0.01104830  1
  O  O395  1  0.60030232  0.00138493  0.50946647  1
  O  O396  1  0.62482925  0.51487218  0.00381156  1
  O  O397  1  0.61388591  0.51427774  0.51560594  1
  O  O398  1  0.36430178  0.37947454  0.11332570  1
  O  O399  1  0.36160143  0.38964566  0.61445999  1
  O  O400  1  0.36573313  0.86358876  0.12785238  1
  O  O401  1  0.37490218  0.87129832  0.60951038  1
  O  O402  1  0.86737059  0.36496200  0.13088623  1
  O  O403  1  0.88075337  0.36677251  0.62436645  1
  O  O404  1  0.87038190  0.86836116  0.12350320  1
  O  O405  1  0.88302891  0.84824203  0.60703926  1
  O  O406  1  0.12560689  0.13530885  0.36433989  1
  O  O407  1  0.12629831  0.11426369  0.88882446  1
  O  O408  1  0.12289145  0.63982081  0.37058034  1
  O  O409  1  0.13661628  0.62580121  0.88693625  1
  O  O410  1  0.62422692  0.11932773  0.36716058  1
  O  O411  1  0.62016457  0.13956078  0.88048730  1
  O  O412  1  0.63155747  0.61368103  0.38410811  1
  O  O413  1  0.62834562  0.63467656  0.88781503  1
