# generated using pymatgen
data_V79Zn79O256
_symmetry_space_group_name_H-M   'P 1'
_cell_length_a   16.90966965
_cell_length_b   16.91414549
_cell_length_c   16.95637336
_cell_angle_alpha   90.33169173
_cell_angle_beta   90.19795679
_cell_angle_gamma   89.92243929
_symmetry_Int_Tables_number   1
_chemical_formula_structural   V79Zn79O256
_chemical_formula_sum   'V79 Zn79 O256'
_cell_volume   4849.62211876
_cell_formula_units_Z   1
loop_
 _symmetry_equiv_pos_site_id
 _symmetry_equiv_pos_as_xyz
  1  'x, y, z'
loop_
 _atom_site_type_symbol
 _atom_site_label
 _atom_site_symmetry_multiplicity
 _atom_site_fract_x
 _atom_site_fract_y
 _atom_site_fract_z
 _atom_site_occupancy
  V  V0  1  0.01205958  0.37717163  0.35417237  1
  V  V1  1  0.61920765  0.62501051  0.50081911  1
  V  V2  1  0.50705515  0.25695934  0.75176516  1
  V  V3  1  0.86783171  0.36145051  0.00174548  1
  V  V4  1  0.50374115  0.12391519  0.62344260  1
  V  V5  1  0.49608427  0.62383374  0.62620144  1
  V  V6  1  0.87435917  0.49181813  0.39143063  1
  V  V7  1  0.87372623  0.87431566  0.50089265  1
  V  V8  1  0.24509245  0.74744973  0.49374804  1
  V  V9  1  0.61984096  0.37361678  0.24631097  1
  V  V10  1  0.86385682  0.75619417  0.12332739  1
  V  V11  1  0.24334876  0.13693896  0.88222279  1
  V  V12  1  0.49736744  0.24619887  0.25055345  1
  V  V13  1  0.37863140  0.87186454  0.49854908  1
  V  V14  1  0.49131924  0.49886466  -0.00362705  1
  V  V15  1  0.25059070  0.86962078  0.63068733  1
  V  V16  1  0.64128886  0.88105612  0.74695772  1
  V  V17  1  0.86901144  0.01121221  0.87274703  1
  V  V18  1  0.37611330  0.11047735  0.25053352  1
  V  V19  1  0.73975368  0.62409765  0.37897039  1
  V  V20  1  0.12725279  0.62954326  -0.01222925  1
  V  V21  1  0.74511122  0.74716570  0.50263178  1
  V  V22  1  0.24693446  0.37153663  0.14388022  1
  V  V23  1  0.00694176  0.36693542  0.87692148  1
  V  V24  1  0.37490660  -0.00142341  0.87627802  1
  V  V25  1  0.12755936  0.49680758  0.13935122  1
  V  V26  1  0.62961490  0.11860194  0.50468686  1
  V  V27  1  0.00137330  0.00638019  0.50037333  1
  V  V28  1  0.37188822  0.61626870  0.76899311  1
  V  V29  1  -0.00073407  0.12639022  0.62673185  1
  V  V30  1  0.00183654  0.62666650  0.62684303  1
  V  V31  1  0.37276979  0.74560990  0.63312462  1
  V  V32  1  0.87566678  0.00041393  0.36754026  1
  V  V33  1  0.38443479  -0.00964657  0.37225450  1
  V  V34  1  0.36534412  0.25359262  0.62114482  1
  V  V35  1  0.74449357  0.62388718  0.88065761  1
  V  V36  1  0.31267120  0.80846265  0.03044288  1
  V  V37  1  0.74572176  0.36544910  0.12199332  1
  V  V38  1  0.50476904  0.12490207  0.12401180  1
  V  V39  1  0.63783929  0.13816587  -0.01333933  1
  V  V40  1  0.39302677  0.65486778  0.20284634  1
  V  V41  1  0.76133357  0.25903926  0.49765162  1
  V  V42  1  0.36421718  0.36825057  -0.00588526  1
  V  V43  1  0.00435679  0.74719825  0.25650822  1
  V  V44  1  0.12672397  0.13646051  0.00989017  1
  V  V45  1  0.11335329  0.64070978  0.49033235  1
  V  V46  1  0.06326326  0.45356096  0.55492338  1
  V  V47  1  0.75441710  0.12036097  0.36576191  1
  V  V48  1  -0.00337364  0.49363618  0.00353496  1
  V  V49  1  0.62706407  0.24599801  0.37393170  1
  V  V50  1  0.61992729  0.48370426  0.63079576  1
  V  V51  1  0.00670567  -0.00466187  0.00244976  1
  V  V52  1  -0.00303667  0.62269518  0.12613879  1
  V  V53  1  0.87464208  0.27040743  0.62333061  1
  V  V54  1  0.74510685  -0.02013224  0.24850603  1
  V  V55  1  0.49769310  0.37537746  0.37290123  1
  V  V56  1  0.13265152  0.86603931  0.23042499  1
  V  V57  1  0.87977574  0.23811650  0.13646921  1
  V  V58  1  0.61518722  0.62615384  0.00388813  1
  V  V59  1  0.01301733  0.25853719  0.74954884  1
  V  V60  1  0.24509517  -0.00243343  0.75583617  1
  V  V61  1  0.62914173  0.75412223  0.87897114  1
  V  V62  1  0.50472059  -0.00383143  0.50249970  1
  V  V63  1  0.50214868  0.88095956  0.86808641  1
  V  V64  1  0.62898921  -0.01309584  0.12344724  1
  V  V65  1  0.61712230  0.50044828  0.12359071  1
  V  V66  1  0.37292209  0.12920720  0.75047966  1
  V  V67  1  0.50236083  0.00621641  -0.00697146  1
  V  V68  1  0.86913162  0.61931591  0.25183959  1
  V  V69  1  0.11751529  0.85494565  0.75810786  1
  V  V70  1  0.51117882  0.37051350  0.87134447  1
  V  V71  1  0.87260022  0.74947310  0.62906180  1
  V  V72  1  0.87332794  0.62488948  0.75152038  1
  V  V73  1  0.01474917  0.86983369  0.38006664  1
  V  V74  1  0.36435499  0.36155987  0.49145902  1
  V  V75  1  0.86632027  0.49284854  0.87675079  1
  V  V76  1  0.49395867  0.49648117  0.49592212  1
  V  V77  1  0.73877959  0.48425219  0.74884981  1
  V  V78  1  0.12297926  0.00165311  0.62530252  1
  Zn  Zn79  1  0.36203877  0.24071494  0.12429353  1
  Zn  Zn80  1  0.16796681  0.18073547  0.43599341  1
  Zn  Zn81  1  0.50252671  0.75005447  0.75277038  1
  Zn  Zn82  1  0.74717897  0.02361617  0.74941204  1
  Zn  Zn83  1  0.70231522  0.81080095  0.05689843  1
  Zn  Zn84  1  0.74652784  0.90031647  0.61936589  1
  Zn  Zn85  1  0.25731189  -0.02581880  0.24371275  1
  Zn  Zn86  1  0.86911555  0.87608526  -0.00597867  1
  Zn  Zn87  1  0.19754793  0.46557994  0.68889360  1
  Zn  Zn88  1  -0.00338024  0.86400390  0.87242277  1
  Zn  Zn89  1  0.87866686  0.13244952  0.75392870  1
  Zn  Zn90  1  0.00877221  0.11873990  0.13869508  1
  Zn  Zn91  1  0.74073373  0.49852899  0.25260684  1
  Zn  Zn92  1  0.96328352  0.19346007  0.30343627  1
  Zn  Zn93  1  0.32897821  0.58428986  0.33576371  1
  Zn  Zn94  1  0.18978893  0.17821449  0.19945922  1
  Zn  Zn95  1  0.18679563  0.18498984  0.68970078  1
  Zn  Zn96  1  0.19730840  0.68864133  0.16821026  1
  Zn  Zn97  1  0.16878529  0.64769595  0.72613962  1
  Zn  Zn98  1  0.68826174  0.18198939  0.18399827  1
  Zn  Zn99  1  0.68788036  0.20370353  0.68029888  1
  Zn  Zn100  1  0.67895549  0.68376245  0.19369821  1
  Zn  Zn101  1  0.68625097  0.68394299  0.69170267  1
  Zn  Zn102  1  0.30831654  0.30040485  0.31205288  1
  Zn  Zn103  1  0.31420493  0.31709589  0.80954005  1
  Zn  Zn104  1  0.30448204  0.75930667  0.29498629  1
  Zn  Zn105  1  0.31174356  0.80206277  0.82725108  1
  Zn  Zn106  1  0.80896222  0.31380133  0.31028524  1
  Zn  Zn107  1  0.81260576  0.30172971  0.81195357  1
  Zn  Zn108  1  0.81548853  0.80807416  0.31683037  1
  Zn  Zn109  1  0.83302895  0.80184191  0.83114713  1
  Zn  Zn110  1  0.19856146  0.45277720  0.32541355  1
  Zn  Zn111  1  0.18699438  0.43642786  0.94292301  1
  Zn  Zn112  1  0.21039070  0.97777309  0.45081962  1
  Zn  Zn113  1  0.18124929  0.93615407  0.93623093  1
  Zn  Zn114  1  0.68171894  0.43949288  0.43705426  1
  Zn  Zn115  1  0.68362738  0.43521115  0.93937242  1
  Zn  Zn116  1  0.68553877  0.93315448  0.43679062  1
  Zn  Zn117  1  0.69186334  0.94949284  0.93253553  1
  Zn  Zn118  1  0.31252651  0.05288799  0.06259657  1
  Zn  Zn119  1  0.31337924  0.06100713  0.56637903  1
  Zn  Zn120  1  0.30477362  0.55509919  0.05822865  1
  Zn  Zn121  1  0.25650805  0.51942647  0.50459210  1
  Zn  Zn122  1  0.81001215  0.05694163  0.05863716  1
  Zn  Zn123  1  0.81649697  0.06778376  0.56066843  1
  Zn  Zn124  1  0.80551294  0.55817555  0.06459070  1
  Zn  Zn125  1  0.80610615  0.55640778  0.56972072  1
  Zn  Zn126  1  0.42274077  0.44655742  0.18665490  1
  Zn  Zn127  1  0.37920332  0.47112406  0.64751099  1
  Zn  Zn128  1  0.44737321  0.92305036  0.18097380  1
  Zn  Zn129  1  0.43926032  0.93831805  0.68914532  1
  Zn  Zn130  1  0.93019102  0.43498052  0.18740877  1
  Zn  Zn131  1  0.93566855  0.44188442  0.69486445  1
  Zn  Zn132  1  0.94229752  0.93815553  0.19002628  1
  Zn  Zn133  1  0.93248081  0.93665768  0.69094784  1
  Zn  Zn134  1  0.06433614  0.04260216  0.29973470  1
  Zn  Zn135  1  0.05884161  0.06402168  0.81809303  1
  Zn  Zn136  1  0.05513008  0.56299345  0.31787496  1
  Zn  Zn137  1  0.05433245  0.54813912  0.81491650  1
  Zn  Zn138  1  0.56367768  0.05595212  0.31382973  1
  Zn  Zn139  1  0.56568570  0.06900524  0.80600213  1
  Zn  Zn140  1  0.51922879  0.55428078  0.28728942  1
  Zn  Zn141  1  0.55401393  0.55925976  0.81366078  1
  Zn  Zn142  1  0.32873484  0.16978113  0.43447320  1
  Zn  Zn143  1  0.43632934  0.19050162  0.93824535  1
  Zn  Zn144  1  0.48809584  0.74023843  0.31117673  1
  Zn  Zn145  1  0.42339773  0.70199294  0.94884057  1
  Zn  Zn146  1  1.00072923  0.26378499  0.49421911  1
  Zn  Zn147  1  0.94417987  0.18588672  0.94195759  1
  Zn  Zn148  1  0.92985949  0.68630820  0.43795914  1
  Zn  Zn149  1  0.93823138  0.68361323  0.93959097  1
  Zn  Zn150  1  0.06065033  0.31110875  0.07246024  1
  Zn  Zn151  1  0.18418710  0.31149053  0.55426271  1
  Zn  Zn152  1  0.05334136  0.80759966  0.05936966  1
  Zn  Zn153  1  0.05858043  0.81482460  0.57191032  1
  Zn  Zn154  1  0.55671004  0.31196268  0.05849529  1
  Zn  Zn155  1  0.55854398  0.30278349  0.55776572  1
  Zn  Zn156  1  0.52831483  0.80931722  0.05144340  1
  Zn  Zn157  1  0.56362586  0.81022354  0.56776894  1
  O  O158  1  0.13046213  0.12261803  0.11342966  1
  O  O159  1  0.11722882  0.10927441  0.63283086  1
  O  O160  1  0.11246502  0.61539476  0.11865538  1
  O  O161  1  0.10386966  0.63884614  0.62011981  1
  O  O162  1  0.61619542  0.11418444  0.11896484  1
  O  O163  1  0.61741562  0.13491782  0.61509551  1
  O  O164  1  0.63180092  0.61329060  0.11461126  1
  O  O165  1  0.61354534  0.61878454  0.61938988  1
  O  O166  1  0.38666652  0.36182428  0.38299136  1
  O  O167  1  0.37742418  0.36921306  0.89247268  1
  O  O168  1  0.38930859  0.87049126  0.39748254  1
  O  O169  1  0.38800952  0.89161648  0.86102173  1
  O  O170  1  0.87175887  0.39065070  0.36972466  1
  O  O171  1  0.87497429  0.37248041  0.88570277  1
  O  O172  1  0.88099145  0.88163072  0.38289265  1
  O  O173  1  0.87653799  0.90010724  0.87350009  1
  O  O174  1  0.27944963  -0.02370903  0.36042644  1
  O  O175  1  0.25666843  0.00559847  0.86815271  1
  O  O176  1  0.26101455  0.51755701  0.39128344  1
  O  O177  1  0.24530377  0.46159744  0.84466912  1
  O  O178  1  0.75383809  0.00042737  0.36888039  1
  O  O179  1  0.76378807  0.01257519  0.86839165  1
  O  O180  1  0.75667843  0.50651648  0.37469053  1
  O  O181  1  0.74680048  0.50407898  0.86977707  1
  O  O182  1  0.23761614  0.48669160  0.12522143  1
  O  O183  1  0.27260742  0.49636257  0.61271103  1
  O  O184  1  0.29543666  0.96159714  0.13223247  1
  O  O185  1  0.24455360  0.99150529  0.63737662  1
  O  O186  1  0.73600287  0.48751544  0.12741618  1
  O  O187  1  0.73319517  0.50216811  0.63675218  1
  O  O188  1  0.73637966  0.99835552  0.13232754  1
  O  O189  1  0.75653710  1.01175202  0.63701836  1
  O  O190  1  -0.00170992  0.37513621  0.25463169  1
  O  O191  1  -0.00327038  0.36741890  0.76050696  1
  O  O192  1  0.01196010  0.86631134  0.25813609  1
  O  O193  1  0.01583230  0.87602086  0.74618286  1
  O  O194  1  0.49864849  0.36695927  0.25340383  1
  O  O195  1  0.49097061  0.37022480  0.76974300  1
  O  O196  1  0.51216848  0.83306482  0.23053025  1
  O  O197  1  0.51350188  0.87774249  0.75660246  1
  O  O198  1  0.49933160  0.12757704  0.24238158  1
  O  O199  1  0.49348800  0.13466891  0.74282929  1
  O  O200  1  0.50207777  0.65180698  0.23016332  1
  O  O201  1  0.49757528  0.62898044  0.73915329  1
  O  O202  1  0.98329479  0.09949823  0.24699050  1
  O  O203  1  1.00511356  0.13934210  0.74319308  1
  O  O204  1  0.98913564  0.62789499  0.24500916  1
  O  O205  1  0.97838165  0.61492081  0.74417194  1
  O  O206  1  0.38137181  0.26305416  0.01162865  1
  O  O207  1  0.37614602  0.25329170  0.50601807  1
  O  O208  1  0.42130374  0.77760150  0.04099551  1
  O  O209  1  0.35590868  0.75733431  0.51878992  1
  O  O210  1  0.87923431  0.25754300  0.01006141  1
  O  O211  1  0.87877553  0.25075309  0.51611970  1
  O  O212  1  0.87473483  0.74651700  0.02242685  1
  O  O213  1  0.86506368  0.75340835  0.50936513  1
  O  O214  1  0.11059732  0.23835855  0.51238518  1
  O  O215  1  0.11887215  0.23567408  1.00401718  1
  O  O216  1  0.13088707  0.74968726  0.50768619  1
  O  O217  1  0.11165027  0.72862705  1.00458502  1
  O  O218  1  0.63520662  0.23860372  0.49356376  1
  O  O219  1  0.62221347  0.23694982  1.00613773  1
  O  O220  1  0.63216482  0.73625402  0.50938945  1
  O  O221  1  0.61756041  0.74502358  1.00050209  1
  O  O222  1  0.50231282  0.24126924  0.13761479  1
  O  O223  1  0.48883544  0.24027484  0.62907530  1
  O  O224  1  0.59676963  0.82694526  0.23281522  1
  O  O225  1  0.48992966  0.74059305  0.62386760  1
  O  O226  1  0.98515147  0.24354808  0.12822362  1
  O  O227  1  0.99039814  0.24573498  0.63295979  1
  O  O228  1  0.98591005  0.73762069  0.13593876  1
  O  O229  1  0.98064295  0.74372288  0.62558391  1
  O  O230  1  -0.01271467  0.27494482  0.37838797  1
  O  O231  1  -0.00666730  0.25335573  0.85722892  1
  O  O232  1  -0.01239567  0.75692056  0.36508916  1
  O  O233  1  -0.05655642  0.76279137  0.86577295  1
  O  O234  1  0.50869700  0.25691734  0.35997178  1
  O  O235  1  0.49250789  0.25925056  0.86579676  1
  O  O236  1  0.55479778  0.81267051  0.39576391  1
  O  O237  1  0.51191026  0.76640843  0.87813818  1
  O  O238  1  0.24543655  0.09411436  0.48168126  1
  O  O239  1  0.24172868  0.11684421  0.99258236  1
  O  O240  1  0.23014366  0.64313230  0.50563427  1
  O  O241  1  0.22609252  0.60624589  0.99380446  1
  O  O242  1  0.74638419  0.13128670  0.48915543  1
  O  O243  1  0.73608190  0.12389612  1.00327212  1
  O  O244  1  0.74011390  0.62648088  0.49753559  1
  O  O245  1  0.73575346  0.61455457  0.98819712  1
  O  O246  1  0.26056513  0.37618559  0.00896599  1
  O  O247  1  0.26504950  0.37164070  0.49103720  1
  O  O248  1  0.26176069  0.88991278  -0.00340625  1
  O  O249  1  0.25807187  0.87613540  0.51488103  1
  O  O250  1  0.75700315  0.37806107  0.00946336  1
  O  O251  1  0.74500424  0.35713597  0.48883045  1
  O  O252  1  0.75645173  0.88358040  -0.00363617  1
  O  O253  1  0.75179513  0.86462786  0.50174891  1
  O  O254  1  0.12565232  0.50889111  0.24322276  1
  O  O255  1  0.13254723  0.54034096  0.73960044  1
  O  O256  1  0.13717230  0.97073010  0.25040586  1
  O  O257  1  0.13356884  0.99592879  0.74684063  1
  O  O258  1  0.61410156  0.49346987  0.23845166  1
  O  O259  1  0.62702726  0.50319373  0.74268100  1
  O  O260  1  0.62457232  0.99472764  0.23160306  1
  O  O261  1  0.63177056  0.98661992  0.75826286  1
  O  O262  1  0.40160287  -0.00429404  0.25978127  1
  O  O263  1  0.36454932  0.00786577  0.75508644  1
  O  O264  1  0.40234745  0.53676037  0.25232775  1
  O  O265  1  0.37870376  0.51661901  0.75180513  1
  O  O266  1  0.86244452  -0.01411257  0.26070689  1
  O  O267  1  0.87889921  0.01023689  0.76126000  1
  O  O268  1  0.86792570  0.51141640  0.25193657  1
  O  O269  1  0.86017925  0.50537397  0.75634808  1
  O  O270  1  0.11138878  0.38712251  0.36331020  1
  O  O271  1  0.10463815  0.37230172  0.89175627  1
  O  O272  1  0.11305157  0.87492928  0.37989175  1
  O  O273  1  0.12147464  0.87157281  0.86168084  1
  O  O274  1  0.61787098  0.36734718  0.36631123  1
  O  O275  1  0.61071618  0.36803613  0.88195089  1
  O  O276  1  0.60413795  0.86639364  0.37172352  1
  O  O277  1  0.62322572  0.87139937  0.86711073  1
  O  O278  1  0.39202789  0.11989533  0.12711447  1
  O  O279  1  0.37926429  0.13357983  0.62933304  1
  O  O280  1  0.38246860  0.62291058  0.10751806  1
  O  O281  1  0.38372102  0.63460276  0.63740906  1
  O  O282  1  0.86712039  0.13937433  0.12003036  1
  O  O283  1  0.89190743  0.12734607  0.62883589  1
  O  O284  1  0.87714777  0.62613690  0.13328305  1
  O  O285  1  0.87842342  0.62740184  0.63083509  1
  O  O286  1  0.24406578  0.26500497  0.14149481  1
  O  O287  1  0.25812708  0.25102638  0.62770042  1
  O  O288  1  0.25420518  0.75376313  0.08984078  1
  O  O289  1  0.25385917  0.76324802  0.62713379  1
  O  O290  1  0.75801309  0.25938235  0.13146723  1
  O  O291  1  0.76796037  0.24753137  0.61340975  1
  O  O292  1  0.75730728  0.74558804  0.13361175  1
  O  O293  1  0.75591793  0.74051307  0.61292385  1
  O  O294  1  0.25396071  0.23457165  0.37983196  1
  O  O295  1  0.25445421  0.23487825  0.87176667  1
  O  O296  1  0.24729953  0.76023968  0.39747182  1
  O  O297  1  0.31377732  0.75826644  0.93304301  1
  O  O298  1  0.74889406  0.23864030  0.37716294  1
  O  O299  1  0.74867468  0.20637533  0.83103842  1
  O  O300  1  0.75863352  0.73576099  0.39110876  1
  O  O301  1  0.73863676  0.73893671  0.87671070  1
  O  O302  1  0.01516704  0.11674077  0.00334803  1
  O  O303  1  0.00039973  0.10907392  0.50926143  1
  O  O304  1  -0.00518494  0.61132177  0.01096652  1
  O  O305  1  0.00569672  0.63516049  0.50884338  1
  O  O306  1  0.50621029  0.12152537  0.00598847  1
  O  O307  1  0.51284861  0.11376681  0.50957832  1
  O  O308  1  0.50991873  0.61591606  -0.00596271  1
  O  O309  1  0.50731305  0.61257791  0.50676640  1
  O  O310  1  0.50025391  0.37536702  0.48669262  1
  O  O311  1  0.49031004  0.37892725  0.99180002  1
  O  O312  1  0.49253531  0.88890514  0.52484511  1
  O  O313  1  0.51118603  0.89843935  0.97771720  1
  O  O314  1  1.01338517  0.39029458  0.49347662  1
  O  O315  1  0.98816937  0.37760599  0.99993979  1
  O  O316  1  0.99277137  0.88004813  0.49796630  1
  O  O317  1  0.99340763  0.88464521  0.99775595  1
  O  O318  1  0.50807815  0.48553299  0.38222228  1
  O  O319  1  0.50318767  0.48480243  0.88666469  1
  O  O320  1  0.50000391  0.99666269  0.39223681  1
  O  O321  1  0.49338859  1.00246737  0.87354252  1
  O  O322  1  0.98254593  0.49054117  0.37070552  1
  O  O323  1  0.98655505  0.48630001  0.88459644  1
  O  O324  1  0.99466962  0.98903473  0.38326659  1
  O  O325  1  0.99513944  0.99774540  0.88679784  1
  O  O326  1  -0.01166394  0.00183196  0.10697401  1
  O  O327  1  0.00472228  0.00421126  0.62099037  1
  O  O328  1  0.00231755  0.50361016  0.12229620  1
  O  O329  1  -0.00301541  0.50647470  0.61894677  1
  O  O330  1  0.50974989  0.00356287  0.11298848  1
  O  O331  1  0.49204811  0.01680276  0.62195697  1
  O  O332  1  0.51008205  0.48813960  0.11196909  1
  O  O333  1  0.49953822  0.50793541  0.61588905  1
  O  O334  1  0.25581497  0.38301159  0.24738200  1
  O  O335  1  0.23726630  0.40283185  0.78633703  1
  O  O336  1  0.23191204  0.84445796  0.25083130  1
  O  O337  1  0.24175935  0.87872521  0.75158101  1
  O  O338  1  0.73793132  0.37742135  0.24079798  1
  O  O339  1  0.75076036  0.38545171  0.75970904  1
  O  O340  1  0.74421871  0.88012716  0.25994708  1
  O  O341  1  0.74202837  0.87152495  0.75591666  1
  O  O342  1  0.27475909  0.10084173  0.22833346  1
  O  O343  1  0.25077846  0.11740399  0.76222097  1
  O  O344  1  0.28000158  0.64743642  0.23685211  1
  O  O345  1  0.27429901  0.64398477  0.76727414  1
  O  O346  1  0.73949887  0.10973577  0.26185401  1
  O  O347  1  0.75484221  0.15440014  0.76306424  1
  O  O348  1  0.75190819  0.62320609  0.26232612  1
  O  O349  1  0.75092010  0.61350854  0.76299812  1
  O  O350  1  0.38614688  0.10394679  0.36058634  1
  O  O351  1  0.36449708  0.11910530  0.87122260  1
  O  O352  1  0.39040863  0.68429225  0.34154397  1
  O  O353  1  0.40276620  0.62753108  0.86492129  1
  O  O354  1  0.86472744  0.10782723  0.37590426  1
  O  O355  1  0.88695785  0.11645154  0.87308986  1
  O  O356  1  0.86623764  0.61266774  0.37065736  1
  O  O357  1  0.86217467  0.61322989  0.87187271  1
  O  O358  1  0.13598004  0.38160431  0.12501164  1
  O  O359  1  0.12632945  0.39645213  0.61386137  1
  O  O360  1  0.12141872  0.86564057  0.13189238  1
  O  O361  1  0.13148141  0.88183482  0.63920516  1
  O  O362  1  0.62855119  0.37856245  0.12586858  1
  O  O363  1  0.61185633  0.38490545  0.62061496  1
  O  O364  1  0.61511989  0.88604649  0.10241357  1
  O  O365  1  0.63252344  0.86676919  0.64272539  1
  O  O366  1  0.11317805  0.19661151  0.28277440  1
  O  O367  1  0.11242030  0.25693654  0.74039590  1
  O  O368  1  0.10901457  0.74741249  0.24041398  1
  O  O369  1  0.12904704  0.75676439  0.74750342  1
  O  O370  1  0.61829215  0.25227766  0.25267754  1
  O  O371  1  0.60575362  0.25631197  0.73869674  1
  O  O372  1  0.61634105  0.75490909  0.26409146  1
  O  O373  1  0.62407158  0.75829364  0.76223580  1
  O  O374  1  0.38371894  0.23183650  0.24697621  1
  O  O375  1  0.37870838  0.24918159  0.73979065  1
  O  O376  1  0.38661966  0.75742175  0.20403040  1
  O  O377  1  0.38114289  0.75222445  0.74376175  1
  O  O378  1  0.87396921  0.24734828  0.24124243  1
  O  O379  1  0.88519642  0.25135925  0.73424246  1
  O  O380  1  0.87906859  0.73666359  0.24533747  1
  O  O381  1  0.85142054  0.73306720  0.73642501  1
  O  O382  1  0.39026889  0.47774263  0.50034173  1
  O  O383  1  0.38344020  0.48302159  1.00808837  1
  O  O384  1  0.38470773  0.99156621  0.49521314  1
  O  O385  1  0.38959352  1.01124065  0.98456781  1
  O  O386  1  0.86909005  0.50140258  0.49025316  1
  O  O387  1  0.87986599  0.48901215  0.99954185  1
  O  O388  1  0.88241465  0.99345647  0.49207807  1
  O  O389  1  0.88506390  1.00596875  0.98789951  1
  O  O390  1  0.11106071  0.00358343  -0.00229441  1
  O  O391  1  0.11474776  -0.01270443  0.51535892  1
  O  O392  1  0.10808773  0.50107504  0.00962461  1
  O  O393  1  0.12305754  0.52349723  0.50657935  1
  O  O394  1  0.61971270  0.01412872  0.00634624  1
  O  O395  1  0.62183503  0.00814995  0.49891733  1
  O  O396  1  0.61442562  0.50531208  0.00540083  1
  O  O397  1  0.61687836  0.50471929  0.51009010  1
  O  O398  1  0.35786152  0.37409095  0.12415799  1
  O  O399  1  0.38377474  0.36142924  0.60401813  1
  O  O400  1  0.35186936  0.89726198  0.11692023  1
  O  O401  1  0.36775658  0.86963451  0.62618705  1
  O  O402  1  0.86532154  0.36509974  0.12050160  1
  O  O403  1  0.87881504  0.36920682  0.62538488  1
  O  O404  1  0.87798222  0.85659620  0.13346894  1
  O  O405  1  0.86847057  0.86613593  0.62114797  1
  O  O406  1  0.12938568  0.13212471  0.33760526  1
  O  O407  1  0.13850610  0.12196033  0.88495625  1
  O  O408  1  0.10994539  0.63271570  0.39118291  1
  O  O409  1  0.10191406  0.62024231  0.89094541  1
  O  O410  1  0.63282624  0.12578519  0.38339298  1
  O  O411  1  0.62055277  0.12344446  0.88810143  1
  O  O412  1  0.63356910  0.61743474  0.38776811  1
  O  O413  1  0.62570752  0.63444328  0.88244300  1
