# generated using pymatgen
data_V79Zn79O256
_symmetry_space_group_name_H-M   'P 1'
_cell_length_a   16.87870971
_cell_length_b   16.87486851
_cell_length_c   16.86618473
_cell_angle_alpha   90.02693390
_cell_angle_beta   90.02503781
_cell_angle_gamma   89.97417615
_symmetry_Int_Tables_number   1
_chemical_formula_structural   V79Zn79O256
_chemical_formula_sum   'V79 Zn79 O256'
_cell_volume   4803.92657251
_cell_formula_units_Z   1
loop_
 _symmetry_equiv_pos_site_id
 _symmetry_equiv_pos_as_xyz
  1  'x, y, z'
loop_
 _atom_site_type_symbol
 _atom_site_label
 _atom_site_symmetry_multiplicity
 _atom_site_fract_x
 _atom_site_fract_y
 _atom_site_fract_z
 _atom_site_occupancy
  V  V0  1  0.75904488  0.61781912  0.37721307  1
  V  V1  1  0.82478488  0.30112469  0.67177404  1
  V  V2  1  0.11984893  0.63334933  -0.00654462  1
  V  V3  1  0.38002231  -0.00962833  0.88185345  1
  V  V4  1  -0.00251109  0.37882067  0.37304974  1
  V  V5  1  0.87004623  0.35858397  0.00444851  1
  V  V6  1  0.50492166  -0.00289449  0.01382561  1
  V  V7  1  0.75137077  0.36005025  0.12395825  1
  V  V8  1  -0.00404699  0.62755999  0.12462237  1
  V  V9  1  0.37934635  0.12538750  0.75451970  1
  V  V10  1  0.74668469  0.75036550  0.00090811  1
  V  V11  1  0.25076821  0.72646876  0.50068198  1
  V  V12  1  0.62483977  0.62902415  -0.00566579  1
  V  V13  1  0.25861672  0.87330474  0.12364706  1
  V  V14  1  0.01917561  0.62948824  0.62257145  1
  V  V15  1  0.50561826  0.74232158  0.25663650  1
  V  V16  1  0.63094612  0.61995382  0.51326420  1
  V  V17  1  0.13026087  0.87608657  0.25009955  1
  V  V18  1  0.12553999  0.01033867  0.11885720  1
  V  V19  1  0.86646958  0.50731857  0.86108574  1
  V  V20  1  0.25076378  0.50659531  0.25127518  1
  V  V21  1  0.87830429  0.87381643  0.50445960  1
  V  V22  1  -0.01942085  0.12790303  0.12672382  1
  V  V23  1  0.37765279  0.62348049  0.73559773  1
  V  V24  1  -0.00185965  0.88086434  0.37410513  1
  V  V25  1  -0.00490517  0.12837603  0.62518628  1
  V  V26  1  0.13248164  0.73722906  0.37759020  1
  V  V27  1  0.38291188  0.23599632  0.12054708  1
  V  V28  1  0.12339146  0.47816780  0.61858065  1
  V  V29  1  0.24435586  0.63051320  0.87320582  1
  V  V30  1  0.51534913  0.86233493  0.86908762  1
  V  V31  1  0.86698051  -0.01760511  0.87667713  1
  V  V32  1  0.36234456  0.25856240  0.62459054  1
  V  V33  1  -0.00035929  0.75150685  0.25068437  1
  V  V34  1  0.86606808  0.11344386  0.74975232  1
  V  V35  1  0.25444466  0.75265951  0.00101037  1
  V  V36  1  0.13021915  0.86509867  0.75735826  1
  V  V37  1  0.13587070  0.13034293  0.49864655  1
  V  V38  1  0.50227688  -0.00727330  0.49940449  1
  V  V39  1  0.13239110  -0.00558642  0.62699207  1
  V  V40  1  0.61764897  0.13865000  0.49208802  1
  V  V41  1  0.00642346  0.37051906  0.87313051  1
  V  V42  1  0.37532400  0.01562057  0.37181759  1
  V  V43  1  0.50122052  0.37378438  0.37402324  1
  V  V44  1  0.50321360  0.50156327  0.51022253  1
  V  V45  1  0.61888118  0.88464583  0.26679661  1
  V  V46  1  0.23495644  0.24622059  -0.00265115  1
  V  V47  1  0.76120677  0.00494698  0.28322197  1
  V  V48  1  0.50576853  0.25280826  0.74789526  1
  V  V49  1  0.75630079  0.74829497  0.50239484  1
  V  V50  1  0.49518327  0.23813319  0.24960047  1
  V  V51  1  0.62302478  0.36906764  0.25198575  1
  V  V52  1  0.50028613  0.50439722  0.00487296  1
  V  V53  1  0.37404211  0.49798519  0.87585173  1
  V  V54  1  0.50868820  0.37528236  0.87246730  1
  V  V55  1  0.64467215  0.48803288  0.64245812  1
  V  V56  1  0.67678966  0.92967815  0.67186109  1
  V  V57  1  0.23436861  0.48494833  0.75335847  1
  V  V58  1  0.25251818  0.01580310  0.25387133  1
  V  V59  1  0.35232003  0.88231918  0.49899898  1
  V  V60  1  0.87164561  0.75763114  0.12820971  1
  V  V61  1  0.37682711  0.50793561  0.37225218  1
  V  V62  1  0.12634148  0.37261597  0.24702423  1
  V  V63  1  0.62386578  0.50476377  0.12577949  1
  V  V64  1  -0.00151926  -0.00487924  -0.00111727  1
  V  V65  1  0.01286217  0.24994516  0.75448838  1
  V  V66  1  -0.00557081  0.00441605  0.49570713  1
  V  V67  1  0.75670317  0.49827845  0.25367194  1
  V  V68  1  0.86917967  0.37972261  0.49335029  1
  V  V69  1  0.87888915  0.74090128  0.63006911  1
  V  V70  1  -0.00807335  0.50054976  -0.00076470  1
  V  V71  1  0.37755109  0.62673606  0.24293655  1
  V  V72  1  0.23802221  0.12394450  0.87867793  1
  V  V73  1  0.74237103  0.88542543  0.13001125  1
  V  V74  1  0.75238636  0.24288762  0.48303186  1
  V  V75  1  0.62498497  0.12307699  0.01600793  1
  V  V76  1  0.13858407  0.24844384  0.37934580  1
  V  V77  1  0.63152895  0.24220441  0.87585769  1
  V  V78  1  0.12412384  0.49949450  0.12254767  1
  Zn  Zn79  1  0.00096619  0.86372857  0.88218330  1
  Zn  Zn80  1  0.25346615  0.37416224  0.12041392  1
  Zn  Zn81  1  0.74110854  0.61706354  0.84493308  1
  Zn  Zn82  1  0.00482996  0.74079415  0.76627481  1
  Zn  Zn83  1  0.25933297  -0.00532597  0.74503120  1
  Zn  Zn84  1  0.50764031  0.12080433  0.62832361  1
  Zn  Zn85  1  0.38650794  0.76231360  0.62974308  1
  Zn  Zn86  1  0.37696614  0.37095980  0.00162949  1
  Zn  Zn87  1  0.62290116  0.74802661  0.38441864  1
  Zn  Zn88  1  0.38734693  0.75064925  0.11968336  1
  Zn  Zn89  1  0.87785571  0.62052879  0.25535375  1
  Zn  Zn90  1  0.74926074  0.11747638  0.87957607  1
  Zn  Zn91  1  -0.00075316  0.50520458  0.49214136  1
  Zn  Zn92  1  -0.00401620  0.24316980  0.24777986  1
  Zn  Zn93  1  0.36097373  0.36548627  0.49542637  1
  Zn  Zn94  1  0.18701490  0.19205964  0.18271262  1
  Zn  Zn95  1  0.18781225  0.18171337  0.68941223  1
  Zn  Zn96  1  0.18700144  0.68695807  0.18491789  1
  Zn  Zn97  1  0.19870538  0.68545862  0.68437007  1
  Zn  Zn98  1  0.68765722  0.17965532  0.19962228  1
  Zn  Zn99  1  0.68279609  0.17842319  0.68177941  1
  Zn  Zn100  1  0.68628596  0.68728469  0.18955890  1
  Zn  Zn101  1  0.66363238  0.75064232  0.71905371  1
  Zn  Zn102  1  0.31701646  0.31516042  0.30702723  1
  Zn  Zn103  1  0.31482919  0.30861370  0.81692424  1
  Zn  Zn104  1  0.32017040  0.81497599  0.31944969  1
  Zn  Zn105  1  0.31293713  0.81097209  0.80682377  1
  Zn  Zn106  1  0.80944787  0.31231819  0.31391276  1
  Zn  Zn107  1  0.82050888  0.30751522  0.83328321  1
  Zn  Zn108  1  0.80951989  0.81394718  0.31624417  1
  Zn  Zn109  1  0.79888687  0.79939366  0.79799001  1
  Zn  Zn110  1  0.19001158  0.43521889  0.43561099  1
  Zn  Zn111  1  0.18649115  0.43674279  0.93952262  1
  Zn  Zn112  1  0.18117915  0.94559467  0.43280083  1
  Zn  Zn113  1  0.18891200  0.93822889  0.93796270  1
  Zn  Zn114  1  0.68675450  0.43410905  0.43900555  1
  Zn  Zn115  1  0.68842443  0.43636589  0.93634957  1
  Zn  Zn116  1  0.68171275  0.93307206  0.46165610  1
  Zn  Zn117  1  0.68286364  0.93345510  0.93899175  1
  Zn  Zn118  1  0.31297220  0.06096462  0.06115004  1
  Zn  Zn119  1  0.31848203  0.07000088  0.56442537  1
  Zn  Zn120  1  0.31104925  0.56552058  0.06316457  1
  Zn  Zn121  1  0.30122926  0.53298977  0.55565076  1
  Zn  Zn122  1  0.80977269  0.06110513  0.05736322  1
  Zn  Zn123  1  0.80397686  0.06042362  0.56132195  1
  Zn  Zn124  1  0.80865279  0.56407053  0.06640190  1
  Zn  Zn125  1  0.81590184  0.56240883  0.57250110  1
  Zn  Zn126  1  0.43477954  0.43079248  0.18456078  1
  Zn  Zn127  1  0.43645349  0.43886598  0.69143068  1
  Zn  Zn128  1  0.43961334  0.93590524  0.19632394  1
  Zn  Zn129  1  0.44729662  0.93497730  0.68592587  1
  Zn  Zn130  1  0.93773791  0.43342186  0.18439758  1
  Zn  Zn131  1  0.94338835  0.43901152  0.68576024  1
  Zn  Zn132  1  0.93286276  0.94416455  0.19039114  1
  Zn  Zn133  1  0.94412110  0.93279826  0.68860842  1
  Zn  Zn134  1  0.06368601  0.06625806  0.30968654  1
  Zn  Zn135  1  0.05576238  0.05581680  0.81151260  1
  Zn  Zn136  1  0.06268759  0.56139366  0.30951582  1
  Zn  Zn137  1  0.05490881  0.56175997  0.81057791  1
  Zn  Zn138  1  0.56910319  0.06631311  0.32152936  1
  Zn  Zn139  1  0.56644164  0.05309297  0.80912002  1
  Zn  Zn140  1  0.56844365  0.56367836  0.31813864  1
  Zn  Zn141  1  0.56027722  0.56844926  0.81026434  1
  Zn  Zn142  1  0.43148371  0.18959652  0.43685746  1
  Zn  Zn143  1  0.44249235  0.18160319  0.93894080  1
  Zn  Zn144  1  0.45386380  0.70628080  0.46165081  1
  Zn  Zn145  1  0.43478036  0.68411624  0.93376822  1
  Zn  Zn146  1  0.94217515  0.19661594  0.43398710  1
  Zn  Zn147  1  0.94381872  0.17600633  0.93613348  1
  Zn  Zn148  1  0.94419058  0.68573104  0.43885515  1
  Zn  Zn149  1  0.92551053  0.69084895  0.93635567  1
  Zn  Zn150  1  0.05630382  0.30971853  0.06285645  1
  Zn  Zn151  1  0.05505038  0.30891199  0.55977192  1
  Zn  Zn152  1  0.06408850  0.81589890  0.06345991  1
  Zn  Zn153  1  0.06786409  0.81274841  0.55986178  1
  Zn  Zn154  1  0.56415105  0.31200736  0.06150796  1
  Zn  Zn155  1  0.56527027  0.31570325  0.56649824  1
  Zn  Zn156  1  0.56321450  0.81857783  0.06941183  1
  Zn  Zn157  1  0.56535825  0.80967453  0.57483468  1
  O  O158  1  0.12365120  0.11272435  0.12544914  1
  O  O159  1  0.11483834  0.11933833  0.61887643  1
  O  O160  1  0.11682524  0.62006577  0.11500116  1
  O  O161  1  0.12130387  0.62246117  0.62075985  1
  O  O162  1  0.62365341  0.13158172  0.11452457  1
  O  O163  1  0.62197665  0.12558459  0.60494099  1
  O  O164  1  0.63036956  0.61053249  0.11830987  1
  O  O165  1  0.63035198  0.60856966  0.61376532  1
  O  O166  1  0.38372479  0.38624201  0.37383773  1
  O  O167  1  0.38428905  0.38462608  0.87873250  1
  O  O168  1  0.36531797  0.89627681  0.38850614  1
  O  O169  1  0.36470452  0.89031662  0.87813733  1
  O  O170  1  0.88202143  0.37291191  0.38300202  1
  O  O171  1  0.88051697  0.38633117  0.89005908  1
  O  O172  1  0.89399367  0.86544975  0.38351149  1
  O  O173  1  0.87398430  0.88241783  0.86366038  1
  O  O174  1  0.24957302  0.00390452  0.35901156  1
  O  O175  1  0.26330596  0.01240478  0.88198484  1
  O  O176  1  0.25992289  0.49463831  0.35770015  1
  O  O177  1  0.25372785  0.50647528  0.87178307  1
  O  O178  1  0.75000613  -0.00553493  0.38256587  1
  O  O179  1  0.76306003  -0.00419341  0.87993654  1
  O  O180  1  0.74561308  0.50301303  0.36422585  1
  O  O181  1  0.76072934  0.49951733  0.87307633  1
  O  O182  1  0.24238292  0.49704399  0.12993230  1
  O  O183  1  0.23050337  0.50058354  0.64510289  1
  O  O184  1  0.24592381  0.99388799  0.13146750  1
  O  O185  1  0.23522462  1.01205392  0.62608837  1
  O  O186  1  0.74183104  0.48982954  0.13230814  1
  O  O187  1  0.74494895  0.49722361  0.63187496  1
  O  O188  1  0.75385699  0.98527719  0.12732249  1
  O  O189  1  0.74672288  0.99253169  0.62889779  1
  O  O190  1  0.00918361  0.37206918  0.25235936  1
  O  O191  1  -0.00929154  0.35748892  0.75707477  1
  O  O192  1  0.01014500  0.87380877  0.25500890  1
  O  O193  1  0.01879238  0.87071379  0.75057116  1
  O  O194  1  0.50685185  0.37093499  0.25525731  1
  O  O195  1  0.49701668  0.36818455  0.76347539  1
  O  O196  1  0.51368948  0.87131080  0.25739665  1
  O  O197  1  0.47893160  0.87080500  0.77297942  1
  O  O198  1  0.50565057  0.13995415  0.25519219  1
  O  O199  1  0.49362025  0.13293678  0.75228480  1
  O  O200  1  0.49808494  0.63500070  0.25148725  1
  O  O201  1  0.47722377  0.61989087  0.75210823  1
  O  O202  1  1.00386426  0.12121456  0.23139104  1
  O  O203  1  0.99115145  0.13338386  0.74656743  1
  O  O204  1  0.99995176  0.63205893  0.24307791  1
  O  O205  1  1.00793023  0.62909489  0.73187862  1
  O  O206  1  0.37736252  0.24833105  0.00967091  1
  O  O207  1  0.37630381  0.25087263  0.51843449  1
  O  O208  1  0.35914120  0.73802584  0.00531896  1
  O  O209  1  0.35069759  0.76938375  0.47701914  1
  O  O210  1  0.87637928  0.26061053  -0.01047763  1
  O  O211  1  0.86206001  0.25622309  0.49558865  1
  O  O212  1  0.85886023  0.74510282  0.01730161  1
  O  O213  1  0.87740480  0.75449253  0.50655433  1
  O  O214  1  0.12188840  0.24709079  0.48772940  1
  O  O215  1  0.13612844  0.24827553  1.00344775  1
  O  O216  1  0.13954455  0.75354307  0.48765360  1
  O  O217  1  0.13270765  0.73889318  1.00603697  1
  O  O218  1  0.63866259  0.24848884  0.50552079  1
  O  O219  1  0.61251424  0.23415900  0.98722357  1
  O  O220  1  0.64169496  0.73715264  0.50416045  1
  O  O221  1  0.63372358  0.73875834  1.01587599  1
  O  O222  1  0.49096212  0.25286152  0.13372342  1
  O  O223  1  0.49563132  0.25148649  0.63879057  1
  O  O224  1  0.49893344  0.76173982  0.14725214  1
  O  O225  1  0.47840457  0.73906587  0.56916835  1
  O  O226  1  0.99870195  0.23362381  0.12523288  1
  O  O227  1  1.00214390  0.23799813  0.63700971  1
  O  O228  1  0.99239629  0.74905981  0.12986109  1
  O  O229  1  0.99940093  0.73881664  0.61702658  1
  O  O230  1  0.01366910  0.26402157  0.36855981  1
  O  O231  1  -0.00727227  0.25306089  0.86290284  1
  O  O232  1  0.01462181  0.75862859  0.37250666  1
  O  O233  1  -0.00083284  0.75003341  0.87945600  1
  O  O234  1  0.48517443  0.26182520  0.35990943  1
  O  O235  1  0.50582326  0.25623342  0.86808197  1
  O  O236  1  0.50238538  0.74778105  0.36402465  1
  O  O237  1  0.49873446  0.76390197  0.88952599  1
  O  O238  1  0.23480800  0.12438819  0.50392825  1
  O  O239  1  0.25264247  0.13356733  0.98960193  1
  O  O240  1  0.26029250  0.62859372  0.49251932  1
  O  O241  1  0.23887407  0.62949495  0.99379196  1
  O  O242  1  0.74261463  0.13646981  0.49886068  1
  O  O243  1  0.73092100  0.11813115  0.99747121  1
  O  O244  1  0.75096982  0.62616340  0.49607857  1
  O  O245  1  0.74196734  0.63702432  1.00262567  1
  O  O246  1  0.25200691  0.35854693  -0.00476640  1
  O  O247  1  0.26992403  0.42707357  0.51183716  1
  O  O248  1  0.24157844  0.86387130  0.01044745  1
  O  O249  1  0.25164359  0.88790226  0.50377344  1
  O  O250  1  0.76244924  0.37683125  0.00751699  1
  O  O251  1  0.76258074  0.36478170  0.49526634  1
  O  O252  1  0.73299563  0.86385409  0.02223382  1
  O  O253  1  0.77210809  0.86051104  0.48679987  1
  O  O254  1  0.13169744  0.49330539  0.24375410  1
  O  O255  1  0.13032049  0.49427635  0.75126149  1
  O  O256  1  0.13660888  0.99454732  0.24363096  1
  O  O257  1  0.12349839  0.99625869  0.73588916  1
  O  O258  1  0.63123438  0.49069905  0.24257748  1
  O  O259  1  0.62342302  0.50581603  0.74082141  1
  O  O260  1  0.63031007  0.98786237  0.26450080  1
  O  O261  1  0.61410975  0.99175930  0.72681465  1
  O  O262  1  0.36355232  -0.00149208  0.26032613  1
  O  O263  1  0.37775839  0.00813185  0.76085198  1
  O  O264  1  0.37033327  0.50522593  0.25069039  1
  O  O265  1  0.36263495  0.50319234  0.76008686  1
  O  O266  1  0.86081809  -0.00737188  0.26294727  1
  O  O267  1  0.88480710  0.00701242  0.76139945  1
  O  O268  1  0.86128612  0.49806673  0.24183266  1
  O  O269  1  0.88037815  0.49643080  0.76279021  1
  O  O270  1  0.12102184  0.36825850  0.36706282  1
  O  O271  1  0.10527927  0.37893223  0.88200233  1
  O  O272  1  0.11848424  0.87135518  0.36538277  1
  O  O273  1  0.12499534  0.88083654  0.86113962  1
  O  O274  1  0.61545492  0.37866237  0.36263835  1
  O  O275  1  0.61843681  0.35880635  0.88348562  1
  O  O276  1  0.63408336  0.86668607  0.36865516  1
  O  O277  1  0.61573871  0.87483125  0.86629595  1
  O  O278  1  0.37456584  0.13636292  0.12365298  1
  O  O279  1  0.37797232  0.13609845  0.63926969  1
  O  O280  1  0.37542034  0.62744011  0.13767102  1
  O  O281  1  0.36284681  0.60257778  0.63807640  1
  O  O282  1  0.88104084  0.11991552  0.12544371  1
  O  O283  1  0.88506069  0.11193052  0.63772181  1
  O  O284  1  0.87943139  0.63496179  0.13030485  1
  O  O285  1  0.88735864  0.63640837  0.62602148  1
  O  O286  1  0.25954376  0.24744453  0.11021867  1
  O  O287  1  0.26300635  0.24916594  0.63681712  1
  O  O288  1  0.25035661  0.75767902  0.11930039  1
  O  O289  1  0.25908495  0.74282226  0.60275511  1
  O  O290  1  0.74505454  0.26134457  0.13706358  1
  O  O291  1  0.75680497  0.24753155  0.61791334  1
  O  O292  1  0.75555245  0.75782643  0.12781361  1
  O  O293  1  0.77185717  0.74605329  0.61043152  1
  O  O294  1  0.23817043  0.26036507  0.37367876  1
  O  O295  1  0.25477423  0.23645039  0.88632494  1
  O  O296  1  0.23625101  0.75220370  0.37537946  1
  O  O297  1  0.25503095  0.73762273  0.88310080  1
  O  O298  1  0.74177409  0.25135986  0.38428526  1
  O  O299  1  0.73469439  0.24578023  0.87435562  1
  O  O300  1  0.75335508  0.73765988  0.38598114  1
  O  O301  1  0.75547293  0.76659229  0.90403387  1
  O  O302  1  -0.00306669  0.11055688  0.01349175  1
  O  O303  1  0.00294920  0.12256879  0.50485234  1
  O  O304  1  0.00234663  0.61833921  0.00346625  1
  O  O305  1  -0.00248076  0.61821388  0.51461663  1
  O  O306  1  0.51186761  0.10921024  -0.00438144  1
  O  O307  1  0.50720070  0.13131037  0.50162536  1
  O  O308  1  0.50740273  0.61241366  -0.00496412  1
  O  O309  1  0.51903055  0.60564223  0.48536014  1
  O  O310  1  0.50253929  0.38515594  0.48937244  1
  O  O311  1  0.50145485  0.38605194  0.99016433  1
  O  O312  1  0.49424618  0.89403085  0.48980842  1
  O  O313  1  0.51128477  0.88962575  0.99038790  1
  O  O314  1  0.98683912  0.37219787  0.48994974  1
  O  O315  1  0.98815249  0.37987901  0.99665366  1
  O  O316  1  1.00090195  0.88449992  0.49199230  1
  O  O317  1  1.00050633  0.88793388  1.00236229  1
  O  O318  1  0.49550727  0.48964673  0.37361900  1
  O  O319  1  0.49372127  0.49424247  0.88105213  1
  O  O320  1  0.48125640  1.01211248  0.38029923  1
  O  O321  1  0.49027639  0.98956700  0.87950645  1
  O  O322  1  1.00821841  0.48521488  0.37467916  1
  O  O323  1  0.98812817  0.49355437  0.88151974  1
  O  O324  1  1.01072491  0.99356986  0.38389913  1
  O  O325  1  0.99025235  0.99539448  0.88322119  1
  O  O326  1  0.00477798  0.00606819  0.12057464  1
  O  O327  1  0.01010648  0.00915144  0.61652325  1
  O  O328  1  0.00279941  0.50501818  0.11690129  1
  O  O329  1  0.01462596  0.50897583  0.62927494  1
  O  O330  1  0.49396788  -0.00687431  0.11305857  1
  O  O331  1  0.48798519  0.00564737  0.60415202  1
  O  O332  1  0.51028409  0.49019417  0.11493750  1
  O  O333  1  0.50267699  0.49573509  0.61201780  1
  O  O334  1  0.23934555  0.38252544  0.24491286  1
  O  O335  1  0.24921584  0.38672671  0.76457018  1
  O  O336  1  0.24272494  0.87887471  0.24439990  1
  O  O337  1  0.23789534  0.88089154  0.75084910  1
  O  O338  1  0.74324457  0.37860836  0.24520096  1
  O  O339  1  0.77533316  0.35854848  0.73626629  1
  O  O340  1  0.74190142  0.88457239  0.25041798  1
  O  O341  1  0.73826282  0.87370742  0.73377716  1
  O  O342  1  0.24835910  0.11398762  0.24342270  1
  O  O343  1  0.25951036  0.12304276  0.76443020  1
  O  O344  1  0.25740646  0.61518972  0.24428742  1
  O  O345  1  0.25180026  0.61217457  0.76036962  1
  O  O346  1  0.73875289  0.10166512  0.25858785  1
  O  O347  1  0.76425568  0.12378672  0.74805821  1
  O  O348  1  0.74973154  0.61499393  0.25860058  1
  O  O349  1  0.74166792  0.69363562  0.76535534  1
  O  O350  1  0.36224405  0.11502441  0.38211879  1
  O  O351  1  0.37301510  0.11726796  0.86778862  1
  O  O352  1  0.38171985  0.61113391  0.36112585  1
  O  O353  1  0.36424631  0.61413274  0.86835937  1
  O  O354  1  0.87862799  0.16342026  0.33778999  1
  O  O355  1  0.87226839  0.11796748  0.86201925  1
  O  O356  1  0.86583132  0.62460561  0.37557745  1
  O  O357  1  0.86704087  0.61072802  0.87621039  1
  O  O358  1  0.12292417  0.37914147  0.13196619  1
  O  O359  1  0.11390021  0.37969367  0.62979679  1
  O  O360  1  0.13225652  0.88293503  0.13611523  1
  O  O361  1  0.12394571  0.89014625  0.62724411  1
  O  O362  1  0.63235941  0.38167324  0.12998515  1
  O  O363  1  0.62549755  0.38915737  0.62853960  1
  O  O364  1  0.63687558  0.87187131  0.14823525  1
  O  O365  1  0.64264314  0.89730581  0.57049050  1
  O  O366  1  0.12680532  0.25805137  0.25794967  1
  O  O367  1  0.11158813  0.24326330  0.75298758  1
  O  O368  1  0.12210443  0.75730587  0.25753299  1
  O  O369  1  0.13153426  0.76252678  0.74146708  1
  O  O370  1  0.60933682  0.26062339  0.24152374  1
  O  O371  1  0.61620301  0.24078663  0.76206646  1
  O  O372  1  0.61593038  0.75292246  0.25607761  1
  O  O373  1  0.59598009  0.82582664  0.68447042  1
  O  O374  1  0.38439253  0.25235193  0.23616246  1
  O  O375  1  0.38421867  0.24408663  0.74766272  1
  O  O376  1  0.38529505  0.74296415  0.25487981  1
  O  O377  1  0.35853949  0.73054251  0.73833951  1
  O  O378  1  0.87796926  0.22154093  0.28030306  1
  O  O379  1  0.87800308  0.23728187  0.74392530  1
  O  O380  1  0.88194877  0.74942259  0.24568046  1
  O  O381  1  0.88880888  0.76315845  0.72970282  1
  O  O382  1  0.39840806  0.50907039  0.48903309  1
  O  O383  1  0.38134362  0.50272881  0.99191700  1
  O  O384  1  0.37598541  0.99927848  0.49068884  1
  O  O385  1  0.38871403  1.00764923  0.98931929  1
  O  O386  1  0.87529908  0.48259383  0.50654276  1
  O  O387  1  0.88347830  0.49763765  0.99800210  1
  O  O388  1  0.88860564  0.99355212  0.50551087  1
  O  O389  1  0.88107626  1.00061886  0.98435802  1
  O  O390  1  0.11710563  -0.00511770  0.01027025  1
  O  O391  1  0.11581079  0.00981146  0.50800751  1
  O  O392  1  0.11159350  0.50679375  0.00252199  1
  O  O393  1  0.11995778  0.49034855  0.51528326  1
  O  O394  1  0.61522986  0.00974747  -0.00095790  1
  O  O395  1  0.60465982  0.01899846  0.48228648  1
  O  O396  1  0.62061604  0.50569234  0.00615262  1
  O  O397  1  0.62089052  0.49945289  0.50865376  1
  O  O398  1  0.37066796  0.36238010  0.11979803  1
  O  O399  1  0.37772065  0.36106060  0.63050824  1
  O  O400  1  0.36146323  0.87376159  0.13375178  1
  O  O401  1  0.37820651  0.87931422  0.60327609  1
  O  O402  1  0.86989547  0.37183298  0.11231395  1
  O  O403  1  0.88541041  0.36502574  0.61185400  1
  O  O404  1  0.86060094  0.86626903  0.13524647  1
  O  O405  1  0.89241685  0.86341138  0.61000745  1
  O  O406  1  0.12068330  0.14122105  0.38043903  1
  O  O407  1  0.13952536  0.11477771  0.86995578  1
  O  O408  1  0.12233705  0.63811923  0.37190747  1
  O  O409  1  0.13104469  0.61731500  0.88413296  1
  O  O410  1  0.62027279  0.14054979  0.39040841  1
  O  O411  1  0.62598568  0.13167618  0.87517207  1
  O  O412  1  0.64210056  0.62369630  0.38622975  1
  O  O413  1  0.62949641  0.61951347  0.88881825  1
