# generated using pymatgen
data_V79Zn79O256
_symmetry_space_group_name_H-M   'P 1'
_cell_length_a   16.92275894
_cell_length_b   16.91361690
_cell_length_c   16.94849803
_cell_angle_alpha   89.95828432
_cell_angle_beta   89.99716996
_cell_angle_gamma   90.17680355
_symmetry_Int_Tables_number   1
_chemical_formula_structural   V79Zn79O256
_chemical_formula_sum   'V79 Zn79 O256'
_cell_volume   4851.06050617
_cell_formula_units_Z   1
loop_
 _symmetry_equiv_pos_site_id
 _symmetry_equiv_pos_as_xyz
  1  'x, y, z'
loop_
 _atom_site_type_symbol
 _atom_site_label
 _atom_site_symmetry_multiplicity
 _atom_site_fract_x
 _atom_site_fract_y
 _atom_site_fract_z
 _atom_site_occupancy
  V  V0  1  0.50467742  0.61182436  0.62326468  1
  V  V1  1  0.62891490  0.25877023  0.86992308  1
  V  V2  1  0.50314593  0.75370597  0.74646346  1
  V  V3  1  0.50422491  0.24797309  0.74525318  1
  V  V4  1  0.75792704  0.25437005  -0.00104926  1
  V  V5  1  0.74946943  0.25569717  0.49713725  1
  V  V6  1  0.62620185  0.87633727  0.25420610  1
  V  V7  1  0.87818896  0.87386740  0.00206715  1
  V  V8  1  0.62158769  0.00563961  0.12518850  1
  V  V9  1  0.00409317  0.24410993  0.75301289  1
  V  V10  1  0.61707953  0.74169344  0.88086865  1
  V  V11  1  0.00151560  0.75755163  0.25053343  1
  V  V12  1  0.37208263  0.87707234  0.00248310  1
  V  V13  1  0.02225906  0.12158669  0.12775161  1
  V  V14  1  0.88315278  0.49923087  0.37881278  1
  V  V15  1  0.75696775  0.00587534  0.24840961  1
  V  V16  1  0.74642748  0.50217609  0.25176371  1
  V  V17  1  0.75456654  0.87161381  0.12673845  1
  V  V18  1  0.24861765  -0.00074885  0.23475643  1
  V  V19  1  0.62403164  0.12860727  0.00107100  1
  V  V20  1  0.74116391  0.63454420  0.37432395  1
  V  V21  1  0.25357636  0.75216741  -0.00561211  1
  V  V22  1  0.37006170  0.62414623  0.24855120  1
  V  V23  1  0.63347931  -0.00444445  0.62932439  1
  V  V24  1  0.25679213  0.25823394  0.50316821  1
  V  V25  1  0.49471783  0.38399637  0.87685843  1
  V  V26  1  0.12888186  0.76077343  0.38038982  1
  V  V27  1  0.01097403  0.00490152  -0.00233899  1
  V  V28  1  0.24123019  0.13247084  0.87934687  1
  V  V29  1  -0.01478716  0.48658585  0.01010889  1
  V  V30  1  0.74694554  0.74681015  -0.00006556  1
  V  V31  1  0.37368942  -0.00010163  0.37461072  1
  V  V32  1  0.25013795  0.12487732  0.37212694  1
  V  V33  1  0.00393987  0.12049719  0.61967290  1
  V  V34  1  0.86580128  0.11861446  0.74809030  1
  V  V35  1  0.87985891  -0.00364265  0.37410949  1
  V  V36  1  0.00098266  0.63473326  0.12045062  1
  V  V37  1  0.38033478  0.12817687  0.23690706  1
  V  V38  1  0.11674184  0.76201267  0.86895791  1
  V  V39  1  0.50081454  0.00514076  0.00162251  1
  V  V40  1  0.49971929  0.00293159  0.50648657  1
  V  V41  1  0.12151034  0.26558274  0.36954746  1
  V  V42  1  0.87592267  0.23813017  0.13121560  1
  V  V43  1  0.25164115  0.60760407  0.87561727  1
  V  V44  1  0.87366286  0.63447361  0.24672079  1
  V  V45  1  0.75472269  0.61386520  0.87046679  1
  V  V46  1  0.61604943  0.62051826  0.49312235  1
  V  V47  1  0.75671939  0.12864103  0.36979548  1
  V  V48  1  -0.00094534  -0.00580649  0.49395706  1
  V  V49  1  0.25168991  0.38726447  0.15232320  1
  V  V50  1  0.49719975  0.24807996  0.23694816  1
  V  V51  1  0.25533130  0.25704053  0.01174406  1
  V  V52  1  0.62043612  0.12539784  0.50310343  1
  V  V53  1  0.88581991  0.61016164  0.75257508  1
  V  V54  1  0.36550126  0.75695822  0.62489666  1
  V  V55  1  0.37759332  0.50349066  0.37604261  1
  V  V56  1  0.87407686  0.24936263  0.62335361  1
  V  V57  1  0.00942514  0.61801453  0.61546585  1
  V  V58  1  0.61999294  0.50668273  0.11521976  1
  V  V59  1  0.12613293  0.12356523  0.50152102  1
  V  V60  1  0.50229147  0.87318840  0.37778622  1
  V  V61  1  0.01025596  0.41034460  0.84515765  1
  V  V62  1  0.36168694  0.87383544  0.50261317  1
  V  V63  1  0.62345991  0.25233361  0.37308531  1
  V  V64  1  0.50135570  0.75191376  0.25119565  1
  V  V65  1  0.38210872  0.24872034  0.62220769  1
  V  V66  1  0.50164106  0.62476862  0.10935855  1
  V  V67  1  0.88492163  0.37848246  0.49488934  1
  V  V68  1  0.62208028  0.37651636  0.24928877  1
  V  V69  1  0.23777858  -0.00408051  0.74138974  1
  V  V70  1  0.86720971  -0.00883927  0.87172465  1
  V  V71  1  0.37677607  0.00610171  0.87236034  1
  V  V72  1  0.24496323  0.62556457  0.37565839  1
  V  V73  1  0.12984319  0.87997551  0.23270754  1
  V  V74  1  0.37032485  0.75527266  0.12255504  1
  V  V75  1  0.49943299  0.38098649  0.38175761  1
  V  V76  1  0.74430326  0.38464506  0.64180747  1
  V  V77  1  0.75742192  0.37814294  0.12192779  1
  V  V78  1  0.37038009  0.60932046  0.75157970  1
  Zn  Zn79  1  0.74896516  0.75113055  0.50601770  1
  Zn  Zn80  1  0.37825966  0.38127836  0.00894513  1
  Zn  Zn81  1  0.50436753  0.87764980  0.87322951  1
  Zn  Zn82  1  0.87054163  0.74528478  0.65681574  1
  Zn  Zn83  1  0.12505453  0.62250509  -0.00091236  1
  Zn  Zn84  1  0.12334329  0.49387125  0.13170792  1
  Zn  Zn85  1  0.37789401  0.12280105  0.74175886  1
  Zn  Zn86  1  0.64206828  0.87687794  0.75314738  1
  Zn  Zn87  1  0.14945644  0.40372442  0.71563001  1
  Zn  Zn88  1  0.76376233  0.87005626  0.62101122  1
  Zn  Zn89  1  0.74726787  0.12330551  0.86928050  1
  Zn  Zn90  1  0.10418746  0.23997179  0.90016269  1
  Zn  Zn91  1  0.00290685  0.24601640  0.25373002  1
  Zn  Zn92  1  0.37998860  0.39354039  0.51158727  1
  Zn  Zn93  1  0.13525080  0.63395337  0.51509515  1
  Zn  Zn94  1  0.19303749  0.19543952  0.18861002  1
  Zn  Zn95  1  0.21252214  0.22242970  0.71207052  1
  Zn  Zn96  1  0.18650890  0.69138328  0.18729037  1
  Zn  Zn97  1  0.18581713  0.69164770  0.69466940  1
  Zn  Zn98  1  0.68574455  0.19098674  0.18601418  1
  Zn  Zn99  1  0.68540408  0.19014892  0.68283667  1
  Zn  Zn100  1  0.68427864  0.68988033  0.18662843  1
  Zn  Zn101  1  0.68978631  0.68132706  0.68882317  1
  Zn  Zn102  1  0.31967438  0.31085631  0.31661556  1
  Zn  Zn103  1  0.31555500  0.32098758  0.81360858  1
  Zn  Zn104  1  0.31047653  0.81477005  0.31150824  1
  Zn  Zn105  1  0.31276247  0.81562192  0.81226242  1
  Zn  Zn106  1  0.81611422  0.31585919  0.30819742  1
  Zn  Zn107  1  0.82765886  0.31999056  0.81916238  1
  Zn  Zn108  1  0.84516760  0.79200766  0.36631789  1
  Zn  Zn109  1  0.80845675  0.80585266  0.80837549  1
  Zn  Zn110  1  0.19625417  0.44192328  0.43740162  1
  Zn  Zn111  1  0.17052252  0.43194649  0.95042239  1
  Zn  Zn112  1  0.18226040  0.93992919  0.43172295  1
  Zn  Zn113  1  0.19160866  0.93929250  0.93128490  1
  Zn  Zn114  1  0.68565777  0.44244078  0.44226195  1
  Zn  Zn115  1  0.68434918  0.43500877  0.93876514  1
  Zn  Zn116  1  0.69195690  0.93469036  0.44115532  1
  Zn  Zn117  1  0.68722054  0.93249328  0.93595441  1
  Zn  Zn118  1  0.31157869  0.06853619  0.05742722  1
  Zn  Zn119  1  0.31479745  0.06648584  0.56342545  1
  Zn  Zn120  1  0.31043971  0.55739684  0.06826241  1
  Zn  Zn121  1  0.31749478  0.57669221  0.55585706  1
  Zn  Zn122  1  0.81165185  0.06195436  0.05837458  1
  Zn  Zn123  1  0.81121770  0.06325639  0.55612512  1
  Zn  Zn124  1  0.81132957  0.56780885  0.06430863  1
  Zn  Zn125  1  0.80736892  0.56665588  0.56325063  1
  Zn  Zn126  1  0.43623046  0.43909528  0.18786845  1
  Zn  Zn127  1  0.44449887  0.42812100  0.69217903  1
  Zn  Zn128  1  0.43610120  0.94118935  0.18751883  1
  Zn  Zn129  1  0.43851817  0.93702795  0.68851194  1
  Zn  Zn130  1  0.93461487  0.44448443  0.18701408  1
  Zn  Zn131  1  0.93608216  0.43874378  0.68162323  1
  Zn  Zn132  1  0.94128426  0.94224686  0.18583155  1
  Zn  Zn133  1  0.92824444  0.94054676  0.68077871  1
  Zn  Zn134  1  0.06664382  0.06536544  0.30969249  1
  Zn  Zn135  1  0.05837395  0.05971551  0.81333654  1
  Zn  Zn136  1  0.06090014  0.56149414  0.30572740  1
  Zn  Zn137  1  0.06531427  0.57527117  0.81501813  1
  Zn  Zn138  1  0.56284501  0.06444812  0.31514758  1
  Zn  Zn139  1  0.56341232  0.06808307  0.81299252  1
  Zn  Zn140  1  0.55895589  0.56342577  0.30689422  1
  Zn  Zn141  1  0.57283644  0.56054641  0.80494634  1
  Zn  Zn142  1  0.43883447  0.18890442  0.42884633  1
  Zn  Zn143  1  0.43785125  0.19411913  0.93879484  1
  Zn  Zn144  1  0.43582593  0.69030179  0.43960546  1
  Zn  Zn145  1  0.43841460  0.55608304  0.93579879  1
  Zn  Zn146  1  0.93911503  0.18943874  0.43459964  1
  Zn  Zn147  1  0.93081525  0.17751220  0.94084309  1
  Zn  Zn148  1  0.95057379  0.66879212  0.43621138  1
  Zn  Zn149  1  0.92968712  0.69077316  0.93083509  1
  Zn  Zn150  1  0.07109864  0.30862385  0.07090823  1
  Zn  Zn151  1  0.06572653  0.30983910  0.56153964  1
  Zn  Zn152  1  0.06552116  0.81456178  0.05501379  1
  Zn  Zn153  1  -0.05288279  0.80853241  0.53599424  1
  Zn  Zn154  1  0.56746207  0.31935280  0.05862077  1
  Zn  Zn155  1  0.56535875  0.31873016  0.56427992  1
  Zn  Zn156  1  0.56010623  0.81557814  0.06280626  1
  Zn  Zn157  1  0.56494871  0.80681116  0.56099279  1
  O  O158  1  0.12107647  0.12745761  0.12511045  1
  O  O159  1  0.11288878  0.13039029  0.60889021  1
  O  O160  1  0.11012849  0.62394323  0.13088985  1
  O  O161  1  0.11406381  0.63028012  0.63253386  1
  O  O162  1  0.63168748  0.11572223  0.11491115  1
  O  O163  1  0.62974550  0.11746026  0.60922358  1
  O  O164  1  0.61376970  0.61945303  0.13105270  1
  O  O165  1  0.60886117  0.62434636  0.62044825  1
  O  O166  1  0.38308748  0.38707606  0.37601752  1
  O  O167  1  0.39243394  0.37764098  0.87217375  1
  O  O168  1  0.38186021  0.87946075  0.38175516  1
  O  O169  1  0.38010755  0.88769545  0.88519610  1
  O  O170  1  0.86960499  0.39096258  0.37800693  1
  O  O171  1  0.91717628  0.37180621  0.86771099  1
  O  O172  1  0.87954136  0.89819377  0.36847947  1
  O  O173  1  0.87173844  0.88615072  0.88270889  1
  O  O174  1  0.25357626  0.00995812  0.36596473  1
  O  O175  1  0.25866250  0.01304187  0.87156276  1
  O  O176  1  0.25868101  0.51657571  0.37128292  1
  O  O177  1  0.23613724  0.51046724  0.88007839  1
  O  O178  1  0.75959247  0.00869890  0.36911638  1
  O  O179  1  0.76260214  0.00160781  0.87932837  1
  O  O180  1  0.74927290  0.50809100  0.36239303  1
  O  O181  1  0.73971276  0.51627988  0.88583735  1
  O  O182  1  0.24379714  0.49429425  0.13823411  1
  O  O183  1  0.22834946  0.50699923  0.58854397  1
  O  O184  1  0.25276367  1.00656038  0.13588210  1
  O  O185  1  0.25751821  1.01102778  0.64310496  1
  O  O186  1  0.74404887  0.49856355  0.13397371  1
  O  O187  1  0.76012364  0.48129589  0.62169097  1
  O  O188  1  0.74215006  0.99529091  0.13027131  1
  O  O189  1  0.73629324  0.99978325  0.61618975  1
  O  O190  1  0.02551946  0.40638424  0.24698844  1
  O  O191  1  -0.00463998  0.34972452  0.74187519  1
  O  O192  1  0.01302381  0.86981180  0.24268481  1
  O  O193  1  0.03406315  0.87923590  0.72339963  1
  O  O194  1  0.50384830  0.36863739  0.25789585  1
  O  O195  1  0.50474368  0.36177639  0.76369479  1
  O  O196  1  0.50511071  0.87275989  0.25648932  1
  O  O197  1  0.50451907  0.86344914  0.75098969  1
  O  O198  1  0.49278272  0.13438887  0.25811470  1
  O  O199  1  0.49597925  0.14335819  0.75852070  1
  O  O200  1  0.49108298  0.64001594  0.24940837  1
  O  O201  1  0.48733279  0.63077547  0.74162562  1
  O  O202  1  1.00537939  0.12380484  0.23218432  1
  O  O203  1  0.98702569  0.12324862  0.73590091  1
  O  O204  1  0.99272091  0.63367982  0.24060410  1
  O  O205  1  0.99088465  0.62415097  0.74392186  1
  O  O206  1  0.36221539  0.25591445  -0.00326910  1
  O  O207  1  0.36581250  0.24499677  0.49998017  1
  O  O208  1  0.36995489  0.76184516  0.00794384  1
  O  O209  1  0.38071651  0.75903975  0.51474571  1
  O  O210  1  0.86377980  0.24508419  0.00955263  1
  O  O211  1  0.86740652  0.25513444  0.50286716  1
  O  O212  1  0.86322726  0.76629876  -0.00872405  1
  O  O213  1  0.87609274  0.74861781  0.46852915  1
  O  O214  1  0.13823490  0.24219243  0.48974908  1
  O  O215  1  0.14442165  0.24842509  1.00454471  1
  O  O216  1  0.12339342  0.74886043  0.47813786  1
  O  O217  1  0.13933788  0.74510971  0.99758020  1
  O  O218  1  0.63167861  0.24470460  0.49385231  1
  O  O219  1  0.63355852  0.24435560  0.99343184  1
  O  O220  1  0.62666943  0.72976521  0.50455182  1
  O  O221  1  0.63051755  0.75757564  0.98899349  1
  O  O222  1  0.50849392  0.25783969  0.13805161  1
  O  O223  1  0.50264062  0.25410379  0.63855718  1
  O  O224  1  0.49298137  0.74567891  0.13151410  1
  O  O225  1  0.49414728  0.74186391  0.63387379  1
  O  O226  1  0.99522877  0.23481361  0.12324158  1
  O  O227  1  0.98903175  0.23880013  0.62626638  1
  O  O228  1  1.00385109  0.74325340  0.13455601  1
  O  O229  1  0.97839859  0.72225599  0.61075891  1
  O  O230  1  0.01661100  0.24817234  0.37433980  1
  O  O231  1  -0.00443688  0.22653922  0.85720265  1
  O  O232  1  0.02037508  0.73577254  0.35835757  1
  O  O233  1  0.01932442  0.73987510  0.88542765  1
  O  O234  1  0.50632801  0.26057176  0.36612124  1
  O  O235  1  0.50928130  0.25835549  0.86746917  1
  O  O236  1  0.49201084  0.76342924  0.36471648  1
  O  O237  1  0.51340124  0.74786511  0.86667743  1
  O  O238  1  0.24433773  0.12689724  0.48904095  1
  O  O239  1  0.25520013  0.13700664  0.98860135  1
  O  O240  1  0.24969132  0.63572037  0.47938509  1
  O  O241  1  0.25664008  0.63216594  0.98632532  1
  O  O242  1  0.74360573  0.13736983  0.49037103  1
  O  O243  1  0.74058386  0.13568625  0.99790007  1
  O  O244  1  0.73968979  0.62669547  0.48881030  1
  O  O245  1  0.75671484  0.64105966  0.99536496  1
  O  O246  1  0.25253818  0.36123099  -0.01150822  1
  O  O247  1  0.26105515  0.35964820  0.49258157  1
  O  O248  1  0.26365986  0.86969249  -0.00452738  1
  O  O249  1  0.26307715  0.88443672  0.49344180  1
  O  O250  1  0.74322479  0.36464193  0.01092952  1
  O  O251  1  0.75622320  0.36411338  0.49892124  1
  O  O252  1  0.75529132  0.87033664  0.00926735  1
  O  O253  1  0.74993705  0.86639449  0.50418547  1
  O  O254  1  0.08708566  0.46372809  0.24689287  1
  O  O255  1  0.07594449  0.46829258  0.77490099  1
  O  O256  1  0.13249199  0.98720159  0.25499675  1
  O  O257  1  0.13768008  1.00699340  0.75241957  1
  O  O258  1  0.63253470  0.49738218  0.24359925  1
  O  O259  1  0.63319675  0.51947341  0.72389796  1
  O  O260  1  0.62918188  0.99636195  0.24293283  1
  O  O261  1  0.61739339  1.00641553  0.73134185  1
  O  O262  1  0.36866223  0.00632622  0.25515208  1
  O  O263  1  0.37780959  0.00337608  0.76113284  1
  O  O264  1  0.38198017  0.51633706  0.26081749  1
  O  O265  1  0.37262186  0.51146605  0.73778771  1
  O  O266  1  0.86478737  0.00265371  0.25648429  1
  O  O267  1  0.88417560  0.00381274  0.76374042  1
  O  O268  1  0.86410104  0.50916380  0.25817937  1
  O  O269  1  0.88455593  0.50778207  0.76136121  1
  O  O270  1  0.13080104  0.36387259  0.38602018  1
  O  O271  1  0.08879551  0.36114875  0.89223947  1
  O  O272  1  0.12789994  0.86377677  0.36528375  1
  O  O273  1  0.12435986  0.86183567  0.88546518  1
  O  O274  1  0.61954599  0.37349202  0.36980219  1
  O  O275  1  0.61917266  0.36382973  0.87712366  1
  O  O276  1  0.61507327  0.88643446  0.36361664  1
  O  O277  1  0.62396784  0.86358778  0.87022655  1
  O  O278  1  0.37622942  0.12146273  0.13794911  1
  O  O279  1  0.38024584  0.14154319  0.62316116  1
  O  O280  1  0.38296647  0.63392748  0.13263686  1
  O  O281  1  0.38212800  0.63619650  0.63167065  1
  O  O282  1  0.86964585  0.13601468  0.12718180  1
  O  O283  1  0.87914313  0.13086075  0.62538313  1
  O  O284  1  0.88189120  0.62788146  0.13969518  1
  O  O285  1  0.87221660  0.61706315  0.64453937  1
  O  O286  1  0.25477266  0.26186606  0.11734328  1
  O  O287  1  0.25988464  0.24245535  0.60617796  1
  O  O288  1  0.26310112  0.74091670  0.11319716  1
  O  O289  1  0.26716322  0.74479895  0.63003918  1
  O  O290  1  0.75595126  0.25860479  0.12164741  1
  O  O291  1  0.75923422  0.25281795  0.61432504  1
  O  O292  1  0.74072127  0.76336187  0.11712462  1
  O  O293  1  0.75828036  0.74315000  0.62306326  1
  O  O294  1  0.24518350  0.24210058  0.38247236  1
  O  O295  1  0.25195067  0.23661236  0.87826984  1
  O  O296  1  0.23813935  0.74081928  0.36386184  1
  O  O297  1  0.25020153  0.74632290  0.88443424  1
  O  O298  1  0.74586275  0.24780046  0.37738473  1
  O  O299  1  0.74840937  0.25565186  0.88326162  1
  O  O300  1  0.74337500  0.73551702  0.36459648  1
  O  O301  1  0.73764352  0.74267267  0.88336178  1
  O  O302  1  -0.00183502  0.11488701  0.01127244  1
  O  O303  1  0.00666605  0.12380410  0.50274493  1
  O  O304  1  -0.00706963  0.63173772  0.01644105  1
  O  O305  1  0.01873190  0.61331025  0.50629981  1
  O  O306  1  0.51262312  0.11810083  -0.00472913  1
  O  O307  1  0.51041782  0.11575243  0.48618944  1
  O  O308  1  0.49440012  0.62809602  0.01100404  1
  O  O309  1  0.50499473  0.62749881  0.51009328  1
  O  O310  1  0.49877476  0.36880529  0.48589359  1
  O  O311  1  0.49930116  0.36877087  0.98242359  1
  O  O312  1  0.49580670  0.88213223  0.49145590  1
  O  O313  1  0.49300507  0.88776398  0.99812762  1
  O  O314  1  0.98295014  0.36688246  0.50076454  1
  O  O315  1  0.99605978  0.38881488  1.02830775  1
  O  O316  1  1.00666673  0.89591572  0.49181660  1
  O  O317  1  0.98774151  0.89058457  1.01379254  1
  O  O318  1  0.49337181  0.49105915  0.36842340  1
  O  O319  1  0.51012225  0.48992796  0.87056642  1
  O  O320  1  0.49417675  0.99125323  0.38138967  1
  O  O321  1  0.49596943  1.00187409  0.88523900  1
  O  O322  1  0.98107466  0.51227586  0.37477860  1
  O  O323  1  1.00204569  0.50293132  0.90055574  1
  O  O324  1  0.98673579  1.01693281  0.37948903  1
  O  O325  1  0.98596136  1.00891710  0.89036233  1
  O  O326  1  -0.00365457  0.01453435  0.11432977  1
  O  O327  1  -0.01161695  0.01039977  0.60425317  1
  O  O328  1  -0.00386012  0.51903888  0.12092439  1
  O  O329  1  -0.00803224  0.51727723  0.62367231  1
  O  O330  1  0.51130428  -0.00326265  0.11552699  1
  O  O331  1  0.50564787  -0.00129451  0.61059233  1
  O  O332  1  0.50875514  0.51269341  0.13503360  1
  O  O333  1  0.49078017  0.51338301  0.62655075  1
  O  O334  1  0.25092722  0.37361117  0.25101722  1
  O  O335  1  0.22902442  0.33327433  0.74761620  1
  O  O336  1  0.24022673  0.88426942  0.25058984  1
  O  O337  1  0.25473014  0.89658947  0.75743225  1
  O  O338  1  0.74329256  0.38475314  0.24316823  1
  O  O339  1  0.76184439  0.36761318  0.73985100  1
  O  O340  1  0.73962288  0.88932790  0.24264636  1
  O  O341  1  0.75375624  0.87317797  0.73725060  1
  O  O342  1  0.25750488  0.12128059  0.25590235  1
  O  O343  1  0.25895975  0.12340840  0.76505193  1
  O  O344  1  0.26421237  0.63448399  0.25480194  1
  O  O345  1  0.26212951  0.62755736  0.76175313  1
  O  O346  1  0.73912977  0.11610404  0.25821725  1
  O  O347  1  0.76225875  0.12848099  0.74533401  1
  O  O348  1  0.75299957  0.62071017  0.25191544  1
  O  O349  1  0.75505489  0.62082800  0.76643261  1
  O  O350  1  0.36519178  0.11941443  0.36868411  1
  O  O351  1  0.37175000  0.11455206  0.87970751  1
  O  O352  1  0.36811051  0.62578254  0.36817745  1
  O  O353  1  0.36774706  0.61643634  0.86041112  1
  O  O354  1  0.86138917  0.12516527  0.37527546  1
  O  O355  1  0.86816004  0.11368518  0.86515707  1
  O  O356  1  0.86215877  0.61376460  0.36595057  1
  O  O357  1  0.86183209  0.61878276  0.87350968  1
  O  O358  1  0.14948747  0.37425399  0.12296079  1
  O  O359  1  0.12616416  0.38431181  0.61081790  1
  O  O360  1  0.12916472  0.87462778  0.13399442  1
  O  O361  1  0.08312545  0.86798105  0.66988168  1
  O  O362  1  0.63359117  0.38487601  0.13160361  1
  O  O363  1  0.64572322  0.36691824  0.62445540  1
  O  O364  1  0.63136120  0.88672391  0.13183410  1
  O  O365  1  0.62081830  0.89068707  0.62403583  1
  O  O366  1  0.12650616  0.25186445  0.26550720  1
  O  O367  1  0.10212546  0.23017621  0.74292692  1
  O  O368  1  0.12204159  0.76504306  0.25054087  1
  O  O369  1  0.13251643  0.75354302  0.76986084  1
  O  O370  1  0.61896945  0.25593458  0.25493430  1
  O  O371  1  0.61735399  0.24269197  0.75867483  1
  O  O372  1  0.61235790  0.76513272  0.24252420  1
  O  O373  1  0.61693828  0.74645243  0.75879017  1
  O  O374  1  0.38551068  0.23962849  0.25631196  1
  O  O375  1  0.38914948  0.25142566  0.74144212  1
  O  O376  1  0.38260255  0.75031581  0.24118532  1
  O  O377  1  0.38286312  0.74894207  0.74035405  1
  O  O378  1  0.88845791  0.26378683  0.23823549  1
  O  O379  1  0.88168188  0.23744736  0.73927896  1
  O  O380  1  0.88767735  0.74237373  0.26662679  1
  O  O381  1  0.87684705  0.72531016  0.76900846  1
  O  O382  1  0.37380318  0.50699551  0.48285443  1
  O  O383  1  0.37168373  0.49523760  1.00034240  1
  O  O384  1  0.38233251  0.99483043  0.49583234  1
  O  O385  1  0.38261307  0.99705899  0.99659046  1
  O  O386  1  0.86476179  0.49510439  0.48434487  1
  O  O387  1  0.88533834  0.50213228  1.01004941  1
  O  O388  1  0.88445992  1.00863775  0.48414511  1
  O  O389  1  0.87680237  0.99334910  0.98992747  1
  O  O390  1  0.10924008  -0.00441544  -0.00692698  1
  O  O391  1  0.10981985  0.01242040  0.48519676  1
  O  O392  1  0.10777913  0.50729348  0.01155939  1
  O  O393  1  0.17057210  0.50929242  0.53213835  1
  O  O394  1  0.62074273  0.00678594  0.00504312  1
  O  O395  1  0.61828427  0.00720402  0.50478434  1
  O  O396  1  0.62634582  0.49731924  0.01675517  1
  O  O397  1  0.62795887  0.51872723  0.50263123  1
  O  O398  1  0.35707812  0.38198240  0.12804531  1
  O  O399  1  0.38548871  0.35872908  0.62015963  1
  O  O400  1  0.38206957  0.86688093  0.11662898  1
  O  O401  1  0.37978320  0.86463581  0.61798756  1
  O  O402  1  0.86049849  0.37354575  0.13039900  1
  O  O403  1  0.86758288  0.36429946  0.61518826  1
  O  O404  1  0.86213272  0.88465882  0.11852841  1
  O  O405  1  0.88392681  0.85990699  0.62077960  1
  O  O406  1  0.13543949  0.13295145  0.37964472  1
  O  O407  1  0.13779532  0.12576844  0.87407815  1
  O  O408  1  0.13936069  0.62534123  0.36176874  1
  O  O409  1  0.14242771  0.63537721  0.87634726  1
  O  O410  1  0.63551774  0.12999087  0.38327559  1
  O  O411  1  0.63012534  0.13574971  0.88342751  1
  O  O412  1  0.62525334  0.62168731  0.38347293  1
  O  O413  1  0.63296397  0.63704870  0.87463019  1
