# generated using pymatgen
data_V79Zn79O256
_symmetry_space_group_name_H-M   'P 1'
_cell_length_a   16.90318193
_cell_length_b   16.88462887
_cell_length_c   16.89611637
_cell_angle_alpha   89.81843799
_cell_angle_beta   89.77078157
_cell_angle_gamma   89.93067267
_symmetry_Int_Tables_number   1
_chemical_formula_structural   V79Zn79O256
_chemical_formula_sum   'V79 Zn79 O256'
_cell_volume   4822.15215720
_cell_formula_units_Z   1
loop_
 _symmetry_equiv_pos_site_id
 _symmetry_equiv_pos_as_xyz
  1  'x, y, z'
loop_
 _atom_site_type_symbol
 _atom_site_label
 _atom_site_symmetry_multiplicity
 _atom_site_fract_x
 _atom_site_fract_y
 _atom_site_fract_z
 _atom_site_occupancy
  V  V0  1  0.61964889  0.11496758  0.00715155  1
  V  V1  1  0.01002074  0.25654407  0.24844491  1
  V  V2  1  0.12890183  0.37639185  0.76256577  1
  V  V3  1  0.50277404  -0.00817648  0.49407736  1
  V  V4  1  0.38358467  -0.01035605  0.87663968  1
  V  V5  1  0.37180985  0.37261048  0.00032951  1
  V  V6  1  0.62985277  0.36957100  0.74656049  1
  V  V7  1  0.37482974  0.74591160  0.13198902  1
  V  V8  1  0.74298322  0.74784339  0.49988437  1
  V  V9  1  0.00529784  0.62454027  0.61947611  1
  V  V10  1  0.92989206  -0.05831222  0.32386685  1
  V  V11  1  0.87655739  0.88095392  -0.01194118  1
  V  V12  1  0.75465095  0.26244743  0.50718972  1
  V  V13  1  0.87625683  0.87700274  0.49748955  1
  V  V14  1  0.87918125  0.62809970  0.25124459  1
  V  V15  1  0.62890857  -0.00005127  0.63615507  1
  V  V16  1  0.63525722  0.24924803  0.88262727  1
  V  V17  1  0.24460124  0.23519588  0.50174754  1
  V  V18  1  0.87574188  0.49357533  0.38023141  1
  V  V19  1  0.36251827  0.62030900  0.75497436  1
  V  V20  1  0.38867531  0.12809818  0.25471513  1
  V  V21  1  0.62052018  0.86941543  0.26581354  1
  V  V22  1  0.10698133  0.75751813  0.35744148  1
  V  V23  1  0.13284607  0.50389674  0.62422344  1
  V  V24  1  0.12758686  0.23739576  0.37881913  1
  V  V25  1  0.50199097  0.74697142  0.26527149  1
  V  V26  1  0.24540456  0.87445994  0.12736755  1
  V  V27  1  0.86826238  0.26803266  0.11387917  1
  V  V28  1  0.63102294  0.50125538  0.62947504  1
  V  V29  1  0.24791914  0.00631569  0.24858133  1
  V  V30  1  0.62485164  0.12505771  0.49761368  1
  V  V31  1  0.25106070  0.74770506  -0.00388897  1
  V  V32  1  0.75146654  0.12312674  0.37143741  1
  V  V33  1  0.25275582  0.37417096  0.62416745  1
  V  V34  1  0.49556240  0.62520374  0.62951034  1
  V  V35  1  0.25136925  -0.00352008  0.74599928  1
  V  V36  1  0.62256531  0.76719041  0.86831692  1
  V  V37  1  0.37153631  -0.00110740  0.37525607  1
  V  V38  1  0.00126277  0.00102266  0.50734436  1
  V  V39  1  0.12947303  0.00014879  0.12062291  1
  V  V40  1  0.62329856  0.62880976  0.49913835  1
  V  V41  1  0.13103500  0.87339293  0.72209256  1
  V  V42  1  0.74213587  0.48551187  0.24835527  1
  V  V43  1  0.12323024  0.77025249  0.87806816  1
  V  V44  1  0.49884980  0.50027019  0.00100751  1
  V  V45  1  -0.00248156  0.49705778  0.00295397  1
  V  V46  1  0.49787345  0.62317680  0.13094505  1
  V  V47  1  0.36343585  0.75836534  0.62472464  1
  V  V48  1  0.26665971  0.50099097  0.25680046  1
  V  V49  1  0.24400851  0.36999821  0.13138939  1
  V  V50  1  0.74483093  0.87092213  0.12242240  1
  V  V51  1  0.37496558  0.13346302  0.75903778  1
  V  V52  1  0.87383494  0.73656002  0.62899989  1
  V  V53  1  0.49942827  0.37012126  0.87026119  1
  V  V54  1  0.49078092  0.37433564  0.36632653  1
  V  V55  1  0.00605712  0.12616696  0.11776512  1
  V  V56  1  0.36317662  0.50366896  0.87436235  1
  V  V57  1  0.74962005  0.51957896  0.76475859  1
  V  V58  1  0.38734355  0.24174465  0.12597102  1
  V  V59  1  0.38674406  0.87322926  -0.00217399  1
  V  V60  1  -0.01988979  0.25551292  0.74685324  1
  V  V61  1  0.24178831  0.23090613  -0.00514087  1
  V  V62  1  0.62336954  0.25998293  0.36132552  1
  V  V63  1  0.88138351  0.74939388  0.12868768  1
  V  V64  1  0.74524646  0.62601840  0.37579089  1
  V  V65  1  0.74506849  -0.00171876  0.24716855  1
  V  V66  1  0.00414166  0.37211025  0.37981016  1
  V  V67  1  0.12828720  0.62412707  -0.00858755  1
  V  V68  1  0.12365273  0.49749966  0.13579664  1
  V  V69  1  0.75116740  0.88193671  0.63556069  1
  V  V70  1  0.87669498  0.12826848  0.24538623  1
  V  V71  1  0.38557425  0.25219960  0.61948172  1
  V  V72  1  0.75573983  0.10546875  0.87154570  1
  V  V73  1  0.36312235  0.87685108  0.49987342  1
  V  V74  1  0.48892421  0.49009106  0.49959012  1
  V  V75  1  0.00366329  0.00138080  -0.01686228  1
  V  V76  1  0.87176521  0.51465180  0.88350041  1
  V  V77  1  0.62916968  0.62642740  -0.00859100  1
  V  V78  1  -0.00059464  0.74878580  0.75365549  1
  Zn  Zn79  1  0.75869431  0.73832796  -0.00938704  1
  Zn  Zn80  1  0.50782939  0.12970435  0.63223816  1
  Zn  Zn81  1  0.90477681  0.32941697  0.56504696  1
  Zn  Zn82  1  0.24618084  0.62852306  0.37024370  1
  Zn  Zn83  1  0.60242007  -0.00451401  0.12513484  1
  Zn  Zn84  1  0.62686735  0.49406624  0.12965425  1
  Zn  Zn85  1  0.23554658  0.74108517  0.49401794  1
  Zn  Zn86  1  0.00195754  0.49424756  0.50340625  1
  Zn  Zn87  1  0.15024570  0.03471525  0.59136639  1
  Zn  Zn88  1  0.86571701  0.09516095  0.74088014  1
  Zn  Zn89  1  -0.00749453  0.14175339  0.61705923  1
  Zn  Zn90  1  -0.01915526  0.36891200  0.88447569  1
  Zn  Zn91  1  0.00732648  0.63091279  0.13108169  1
  Zn  Zn92  1  0.49356508  0.76653879  0.76509856  1
  Zn  Zn93  1  0.11465278  0.22678944  -0.12334627  1
  Zn  Zn94  1  0.19133349  0.18399213  0.18561623  1
  Zn  Zn95  1  0.18724349  0.19010423  0.69390835  1
  Zn  Zn96  1  0.18684071  0.68198577  0.19137174  1
  Zn  Zn97  1  0.18667381  0.68637757  0.69197341  1
  Zn  Zn98  1  0.68778028  0.19232344  0.18133279  1
  Zn  Zn99  1  0.69687728  0.18746754  0.68879014  1
  Zn  Zn100  1  0.68510375  0.68464131  0.18577299  1
  Zn  Zn101  1  0.68328550  0.69177457  0.68823667  1
  Zn  Zn102  1  0.31009153  0.31053254  0.31494144  1
  Zn  Zn103  1  0.31101133  0.31401850  0.81373195  1
  Zn  Zn104  1  0.30937299  0.81489661  0.31445467  1
  Zn  Zn105  1  0.30707372  0.81273830  0.81273229  1
  Zn  Zn106  1  0.81766488  0.30861873  0.31300785  1
  Zn  Zn107  1  0.80761596  0.32994548  0.82116604  1
  Zn  Zn108  1  0.80363148  0.80559325  0.31049050  1
  Zn  Zn109  1  0.80896604  0.80711846  0.81288260  1
  Zn  Zn110  1  0.18906337  0.42956548  0.44011010  1
  Zn  Zn111  1  0.18592283  0.43542939  0.94760132  1
  Zn  Zn112  1  0.18118339  0.93038737  0.42537097  1
  Zn  Zn113  1  0.19025305  1.05365177  0.92805461  1
  Zn  Zn114  1  0.68347531  0.44089524  0.43724430  1
  Zn  Zn115  1  0.68665012  0.43786824  0.94077271  1
  Zn  Zn116  1  0.69181905  0.93776498  0.44072621  1
  Zn  Zn117  1  0.68408484  0.93668697  0.93853202  1
  Zn  Zn118  1  0.43653050  0.05850300  0.05782447  1
  Zn  Zn119  1  0.32274537  0.06546665  0.56863683  1
  Zn  Zn120  1  0.30971773  0.56122288  0.06714913  1
  Zn  Zn121  1  0.31110425  0.56180712  0.56247333  1
  Zn  Zn122  1  0.80930792  0.06772808  0.05518744  1
  Zn  Zn123  1  0.81813678  0.06575625  0.56032265  1
  Zn  Zn124  1  0.81268642  0.55932622  0.06841168  1
  Zn  Zn125  1  0.83491788  0.51902169  0.58778830  1
  Zn  Zn126  1  0.43643277  0.42933235  0.18578489  1
  Zn  Zn127  1  0.43873527  0.43744376  0.68942453  1
  Zn  Zn128  1  0.43278011  0.92704497  0.19508045  1
  Zn  Zn129  1  0.44301226  0.94264215  0.69165804  1
  Zn  Zn130  1  0.93682945  0.44092178  0.19302239  1
  Zn  Zn131  1  0.94166745  0.44427397  0.70492778  1
  Zn  Zn132  1  0.93502588  0.93965348  0.16066190  1
  Zn  Zn133  1  0.94024406  0.92951290  0.68837066  1
  Zn  Zn134  1  0.06742549  0.06434679  0.30845661  1
  Zn  Zn135  1  0.07343549  0.07824498  0.76716264  1
  Zn  Zn136  1  0.06451083  0.56660547  0.32098444  1
  Zn  Zn137  1  0.06219354  0.56270179  0.81085218  1
  Zn  Zn138  1  0.56331092  0.06140748  0.31209512  1
  Zn  Zn139  1  0.55877822  0.06657409  0.81533414  1
  Zn  Zn140  1  0.55838316  0.55862247  0.31547680  1
  Zn  Zn141  1  0.55490473  0.56434155  0.81235495  1
  Zn  Zn142  1  0.43930820  0.18881708  0.43699516  1
  Zn  Zn143  1  0.43753161  0.18864539  0.93345181  1
  Zn  Zn144  1  0.42752413  0.68144554  0.44400183  1
  Zn  Zn145  1  0.43989695  0.68803829  0.93893183  1
  Zn  Zn146  1  0.93621554  0.18403465  0.43434229  1
  Zn  Zn147  1  0.93272289  0.18650197  0.93333120  1
  Zn  Zn148  1  0.93734684  0.68558898  0.43850375  1
  Zn  Zn149  1  0.94268034  0.68831012  0.94090619  1
  Zn  Zn150  1  0.06357565  0.31128345  0.06067507  1
  Zn  Zn151  1  0.07321516  0.31645720  0.56546917  1
  Zn  Zn152  1  0.06267135  0.81641927  0.06123410  1
  Zn  Zn153  1  0.05847807  0.80687924  0.54825769  1
  Zn  Zn154  1  0.56340855  0.30954036  0.05669727  1
  Zn  Zn155  1  0.57185930  0.31335520  0.55883658  1
  Zn  Zn156  1  0.56379933  0.80705727  0.06568234  1
  Zn  Zn157  1  0.54627109  0.82666335  0.59662042  1
  O  O158  1  0.11382946  0.11932223  0.12496100  1
  O  O159  1  0.10514083  0.11996286  0.65131202  1
  O  O160  1  0.12494574  0.61522265  0.11584607  1
  O  O161  1  0.12454297  0.61121377  0.63045063  1
  O  O162  1  0.62805652  0.12604478  0.10944372  1
  O  O163  1  0.63210969  0.11547169  0.61598669  1
  O  O164  1  0.61206957  0.62277773  0.11556120  1
  O  O165  1  0.61468737  0.62005479  0.62102633  1
  O  O166  1  0.39214376  0.36056588  0.37774219  1
  O  O167  1  0.38204917  0.38257413  0.87768370  1
  O  O168  1  0.37539728  0.88948971  0.38322942  1
  O  O169  1  0.37195234  0.88096724  0.88079536  1
  O  O170  1  0.88709303  0.38228134  0.37075189  1
  O  O171  1  0.86988823  0.40088863  0.88170293  1
  O  O172  1  0.86788839  0.87608490  0.37844227  1
  O  O173  1  0.86884263  0.87172783  0.89024983  1
  O  O174  1  0.25895809  -0.00346673  0.36219409  1
  O  O175  1  0.26479487  -0.00125591  0.85618012  1
  O  O176  1  0.24021627  0.48543733  0.35557293  1
  O  O177  1  0.26459041  0.49684181  0.88488780  1
  O  O178  1  0.74377373  0.01116864  0.36100113  1
  O  O179  1  0.74168429  0.00652700  0.86882707  1
  O  O180  1  0.75483345  0.50629796  0.36906023  1
  O  O181  1  0.75352762  0.50384017  0.87392966  1
  O  O182  1  0.24492359  0.49060490  0.13505176  1
  O  O183  1  0.24076666  0.49204471  0.62604926  1
  O  O184  1  0.24005417  0.99200187  0.12750459  1
  O  O185  1  0.25239442  1.00397547  0.63565166  1
  O  O186  1  0.74956757  0.50412187  0.14537910  1
  O  O187  1  0.73557525  0.51238605  0.64461022  1
  O  O188  1  0.75376801  0.99195588  0.13792749  1
  O  O189  1  0.74313194  0.99124096  0.61903537  1
  O  O190  1  -0.00161239  0.36275142  0.25948796  1
  O  O191  1  0.01069572  0.37068438  0.75998484  1
  O  O192  1  -0.01835418  0.88888147  0.25818157  1
  O  O193  1  0.01968425  0.85902438  0.73671692  1
  O  O194  1  0.50314825  0.38371963  0.26667693  1
  O  O195  1  0.51529080  0.38753404  0.76233048  1
  O  O196  1  0.50756051  0.85768336  0.25129878  1
  O  O197  1  0.51207908  0.85846412  0.70466533  1
  O  O198  1  0.48831144  0.12575019  0.25090707  1
  O  O199  1  0.48278312  0.12095526  0.74654478  1
  O  O200  1  0.50646534  0.63366477  0.24226729  1
  O  O201  1  0.49176767  0.62921852  0.73954267  1
  O  O202  1  0.99341710  0.13213430  0.24138699  1
  O  O203  1  0.98053203  0.14917139  0.75250398  1
  O  O204  1  0.98177685  0.61460092  0.24925268  1
  O  O205  1  1.01106917  0.64003697  0.73741327  1
  O  O206  1  0.36783024  0.24954594  0.01098261  1
  O  O207  1  0.36538210  0.24451168  0.51353631  1
  O  O208  1  0.36869702  0.75222633  0.00636579  1
  O  O209  1  0.37158195  0.76110643  0.50993839  1
  O  O210  1  0.88416060  0.25034415  0.01562309  1
  O  O211  1  0.86073602  0.24852757  0.49488030  1
  O  O212  1  0.87495146  0.76205689  0.00684100  1
  O  O213  1  0.86504984  0.75382130  0.50947691  1
  O  O214  1  0.13699520  0.24642082  0.49915471  1
  O  O215  1  0.13659450  0.25050335  0.99385509  1
  O  O216  1  0.12402113  0.75213046  0.47912556  1
  O  O217  1  0.12910366  0.74495807  0.99539563  1
  O  O218  1  0.63562059  0.24088133  0.49177671  1
  O  O219  1  0.62085504  0.23790614  0.98639586  1
  O  O220  1  0.63347844  0.73865526  0.51501940  1
  O  O221  1  0.62334753  0.73729586  0.99282045  1
  O  O222  1  0.48595169  0.25867224  0.12373227  1
  O  O223  1  0.48909501  0.25337363  0.61719420  1
  O  O224  1  0.49207064  0.73990476  0.13079859  1
  O  O225  1  0.48055737  0.73109973  0.61207295  1
  O  O226  1  0.99719764  0.24403094  0.13068805  1
  O  O227  1  0.99180519  0.26505563  0.63523004  1
  O  O228  1  0.98594077  0.75143433  0.12110904  1
  O  O229  1  0.99181310  0.74295925  0.62719885  1
  O  O230  1  0.00567176  0.25195496  0.36831987  1
  O  O231  1  -0.00202673  0.25463182  0.86612428  1
  O  O232  1  0.00461238  0.74544871  0.37191386  1
  O  O233  1  0.00950898  0.74383451  0.86365294  1
  O  O234  1  0.51442108  0.26062254  0.38282323  1
  O  O235  1  0.50768989  0.26383437  0.87692290  1
  O  O236  1  0.49282130  0.73711333  0.36330779  1
  O  O237  1  0.51389703  0.74643653  0.87663989  1
  O  O238  1  0.24901568  0.13487519  0.50857188  1
  O  O239  1  0.24718843  0.13145756  0.99934556  1
  O  O240  1  0.25829912  0.62489802  0.48899625  1
  O  O241  1  0.24298819  0.63827286  1.00988206  1
  O  O242  1  0.74342168  0.12705403  0.48743517  1
  O  O243  1  0.73314686  0.11987649  0.98464291  1
  O  O244  1  0.74091398  0.63108597  0.49435314  1
  O  O245  1  0.73193145  0.62045767  1.00836043  1
  O  O246  1  0.25720743  0.37158017  0.01325049  1
  O  O247  1  0.24783621  0.36405753  0.51802627  1
  O  O248  1  0.26113698  0.85916708  0.01496143  1
  O  O249  1  0.26192892  0.88200368  0.49817208  1
  O  O250  1  0.71146329  0.37748410  0.03698139  1
  O  O251  1  0.74576630  0.36220158  0.49453234  1
  O  O252  1  0.76119507  0.88166844  0.00983765  1
  O  O253  1  0.75767366  0.86560370  0.50253979  1
  O  O254  1  0.12276728  0.50224410  0.23709468  1
  O  O255  1  0.12051852  0.48667531  0.74198968  1
  O  O256  1  0.13645988  1.00727825  0.23740885  1
  O  O257  1  0.13074866  0.97874579  0.74167734  1
  O  O258  1  0.63700322  0.50065062  0.25182134  1
  O  O259  1  0.63001495  0.49772970  0.74984078  1
  O  O260  1  0.62974582  0.99101788  0.24563508  1
  O  O261  1  0.62206994  1.00697927  0.73390445  1
  O  O262  1  0.37225940  0.01053699  0.25759926  1
  O  O263  1  0.37014357  0.00266182  0.75408032  1
  O  O264  1  0.36629537  0.49428898  0.24965806  1
  O  O265  1  0.37909180  0.51187487  0.75794169  1
  O  O266  1  0.87057956  0.00343428  0.25482890  1
  O  O267  1  0.88023248  -0.01373993  0.75906074  1
  O  O268  1  0.86285511  0.50755107  0.26004621  1
  O  O269  1  0.85803006  0.50871520  0.76598011  1
  O  O270  1  0.11104251  0.36046069  0.38247163  1
  O  O271  1  0.13032122  0.37960163  0.86489886  1
  O  O272  1  0.12066478  0.86116947  0.36363961  1
  O  O273  1  0.11971958  0.86703228  0.87613246  1
  O  O274  1  0.62117082  0.36337203  0.37604116  1
  O  O275  1  0.61940682  0.36646044  0.87147890  1
  O  O276  1  0.63096488  0.87571093  0.36485125  1
  O  O277  1  0.61828957  0.86667771  0.87982142  1
  O  O278  1  0.38131713  0.13618689  0.13091135  1
  O  O279  1  0.38204155  0.13971968  0.63406583  1
  O  O280  1  0.38551000  0.63387004  0.11953670  1
  O  O281  1  0.37748050  0.62558542  0.63796500  1
  O  O282  1  0.88338738  0.12397304  0.13393451  1
  O  O283  1  0.87821366  0.12478191  0.63083873  1
  O  O284  1  0.87349696  0.63442131  0.13328870  1
  O  O285  1  0.88167637  0.63145486  0.62493003  1
  O  O286  1  0.25304462  0.25326504  0.11385874  1
  O  O287  1  0.25633805  0.25319877  0.61760643  1
  O  O288  1  0.25800090  0.75374707  0.12472572  1
  O  O289  1  0.26212179  0.74014440  0.61943049  1
  O  O290  1  0.77043944  0.24785896  0.13029733  1
  O  O291  1  0.74365089  0.25005208  0.60655459  1
  O  O292  1  0.75550660  0.75747785  0.11929385  1
  O  O293  1  0.75488004  0.75753537  0.62049967  1
  O  O294  1  0.24340140  0.25630905  0.39330288  1
  O  O295  1  0.25681934  0.25340315  0.89487638  1
  O  O296  1  0.24011952  0.75041609  0.37259997  1
  O  O297  1  0.24023843  0.75430167  0.88832189  1
  O  O298  1  0.74034366  0.24247854  0.37870834  1
  O  O299  1  0.73599707  0.25522273  0.87727859  1
  O  O300  1  0.75155522  0.73843780  0.38804951  1
  O  O301  1  0.73204070  0.75428822  0.87954907  1
  O  O302  1  -0.01059307  0.11165574  0.00875460  1
  O  O303  1  -0.00984455  0.10622701  0.49890027  1
  O  O304  1  0.01077830  0.61659151  0.00618208  1
  O  O305  1  -0.00197043  0.62044254  0.51565007  1
  O  O306  1  0.51182490  0.12335996  -0.00695369  1
  O  O307  1  0.51286484  0.11976073  0.50172075  1
  O  O308  1  0.50499509  0.61666311  0.00907955  1
  O  O309  1  0.50578865  0.61064418  0.50607747  1
  O  O310  1  0.51027654  0.38699000  0.49616295  1
  O  O311  1  0.49316555  0.38236787  0.99297162  1
  O  O312  1  0.48987467  0.88791475  0.50936306  1
  O  O313  1  0.48578775  0.86683303  1.00534966  1
  O  O314  1  0.99588270  0.37072581  0.49376394  1
  O  O315  1  1.01217313  0.39256758  0.99554035  1
  O  O316  1  0.98448888  0.88190898  0.49811171  1
  O  O317  1  0.98750546  0.88756346  1.00485749  1
  O  O318  1  0.50288848  0.48850322  0.38964332  1
  O  O319  1  0.49170985  0.49314972  0.88550657  1
  O  O320  1  0.48958288  1.00680693  0.38505117  1
  O  O321  1  0.48304520  0.99483635  0.86431940  1
  O  O322  1  0.99524812  0.48914456  0.37651030  1
  O  O323  1  0.98609422  0.50538211  0.88176606  1
  O  O324  1  0.99445129  1.00149749  0.37743602  1
  O  O325  1  1.00235615  1.00533019  0.88752611  1
  O  O326  1  0.01228338  0.00931734  0.12197266  1
  O  O327  1  0.00073143  -0.00661939  0.60866756  1
  O  O328  1  0.00677984  0.50073420  0.11947469  1
  O  O329  1  0.01227148  0.50969912  0.63056412  1
  O  O330  1  0.49160873  -0.00482131  0.13006212  1
  O  O331  1  0.51709934  0.00501377  0.61367528  1
  O  O332  1  0.50031411  0.50239201  0.11792500  1
  O  O333  1  0.50905001  0.50503525  0.61948292  1
  O  O334  1  0.25492121  0.37794105  0.23739541  1
  O  O335  1  0.23730595  0.36602428  0.74124964  1
  O  O336  1  0.26600041  0.88995655  0.23391698  1
  O  O337  1  0.23788557  0.87744305  0.74676829  1
  O  O338  1  0.75236412  0.38669132  0.25819383  1
  O  O339  1  0.73137425  0.39253690  0.75752690  1
  O  O340  1  0.74093595  0.87854566  0.24339177  1
  O  O341  1  0.75173695  0.87260194  0.73342497  1
  O  O342  1  0.26402747  0.11198906  0.24008916  1
  O  O343  1  0.26742212  0.11613365  0.74418553  1
  O  O344  1  0.25281261  0.60442373  0.24778704  1
  O  O345  1  0.26359416  0.62584341  0.75327391  1
  O  O346  1  0.75587035  0.11714693  0.25063201  1
  O  O347  1  0.75332140  0.13111904  0.76680725  1
  O  O348  1  0.75302016  0.62193891  0.26208167  1
  O  O349  1  0.73994415  0.61832011  0.75840970  1
  O  O350  1  0.37669472  0.12130061  0.36314988  1
  O  O351  1  0.37772281  0.11489138  0.86447361  1
  O  O352  1  0.35650841  0.61101618  0.39647658  1
  O  O353  1  0.38238046  0.61952498  0.86267624  1
  O  O354  1  0.86309696  0.13264708  0.35770948  1
  O  O355  1  0.85674848  0.12038702  0.88058293  1
  O  O356  1  0.86482345  0.61875318  0.36930557  1
  O  O357  1  0.87107548  0.61696101  0.88447426  1
  O  O358  1  0.13462237  0.38352659  0.11955530  1
  O  O359  1  0.13323252  0.38364784  0.63791262  1
  O  O360  1  0.13447941  0.88463073  0.11964498  1
  O  O361  1  0.13187091  0.86435576  0.62358513  1
  O  O362  1  0.64919626  0.37911747  0.09266105  1
  O  O363  1  0.61911075  0.38445588  0.63995646  1
  O  O364  1  0.63434240  0.87433315  0.12989295  1
  O  O365  1  0.64269914  0.88948515  0.61376321  1
  O  O366  1  0.11736654  0.24262388  0.25781750  1
  O  O367  1  0.11462352  0.26449259  0.75409927  1
  O  O368  1  0.11991763  0.74581518  0.25377613  1
  O  O369  1  0.12579988  0.76015316  0.75729549  1
  O  O370  1  0.62789013  0.24678527  0.26235800  1
  O  O371  1  0.62973341  0.26441900  0.75673109  1
  O  O372  1  0.61229304  0.75431533  0.24816574  1
  O  O373  1  0.62166347  0.74800624  0.76500733  1
  O  O374  1  0.36629214  0.23696122  0.23836305  1
  O  O375  1  0.36998288  0.23883555  0.74415775  1
  O  O376  1  0.38848766  0.75698110  0.24047064  1
  O  O377  1  0.37358703  0.74178948  0.74032372  1
  O  O378  1  0.88674014  0.24306109  0.24069134  1
  O  O379  1  0.88185331  0.27278050  0.75362243  1
  O  O380  1  0.86551142  0.73989449  0.24078055  1
  O  O381  1  0.88599624  0.75916416  0.73940500  1
  O  O382  1  0.39144476  0.49128726  0.51543167  1
  O  O383  1  0.38196022  0.49640033  0.99639180  1
  O  O384  1  0.38199462  0.99832842  0.49500261  1
  O  O385  1  0.37398025  0.99174595  0.98368979  1
  O  O386  1  0.87723696  0.50865023  0.48242290  1
  O  O387  1  0.88422901  0.50737374  0.99619262  1
  O  O388  1  0.88115192  0.98715417  0.49712562  1
  O  O389  1  0.88503982  0.98890289  1.00839283  1
  O  O390  1  0.11260991  0.00284920  0.00618663  1
  O  O391  1  0.10807179  -0.00839573  0.49362649  1
  O  O392  1  0.12063412  0.50830953  0.00896883  1
  O  O393  1  0.12233814  0.48846573  0.52070950  1
  O  O394  1  0.62191137  0.01010021  0.00423481  1
  O  O395  1  0.62071261  0.00880564  0.49876412  1
  O  O396  1  0.61188538  0.50996699  0.00066559  1
  O  O397  1  0.62369912  0.50885477  0.51283641  1
  O  O398  1  0.36690143  0.36138593  0.12064804  1
  O  O399  1  0.36826960  0.35958822  0.64021413  1
  O  O400  1  0.36881358  0.86288019  0.11733770  1
  O  O401  1  0.37095422  0.86170867  0.62044435  1
  O  O402  1  0.88013819  0.36725670  0.12725153  1
  O  O403  1  0.86991907  0.41524749  0.62454283  1
  O  O404  1  0.86235234  0.86531635  0.12070288  1
  O  O405  1  0.86369192  0.86623671  0.61533090  1
  O  O406  1  0.12258169  0.13700948  0.37699143  1
  O  O407  1  0.12938820  0.11720881  0.85643659  1
  O  O408  1  0.13060794  0.63920216  0.37034480  1
  O  O409  1  0.12465468  0.62558166  0.88850161  1
  O  O410  1  0.63143084  0.13421949  0.37866157  1
  O  O411  1  0.63056211  0.13617656  0.87540925  1
  O  O412  1  0.63238402  0.61675884  0.38830419  1
  O  O413  1  0.61872796  0.62334587  0.88986757  1
