# generated using pymatgen
data_V79Zn79O256
_symmetry_space_group_name_H-M   'P 1'
_cell_length_a   16.90740633
_cell_length_b   16.90591171
_cell_length_c   16.87960933
_cell_angle_alpha   90.04907976
_cell_angle_beta   89.88146960
_cell_angle_gamma   90.11642616
_symmetry_Int_Tables_number   1
_chemical_formula_structural   V79Zn79O256
_chemical_formula_sum   'V79 Zn79 O256'
_cell_volume   4824.76309662
_cell_formula_units_Z   1
loop_
 _symmetry_equiv_pos_site_id
 _symmetry_equiv_pos_as_xyz
  1  'x, y, z'
loop_
 _atom_site_type_symbol
 _atom_site_label
 _atom_site_symmetry_multiplicity
 _atom_site_fract_x
 _atom_site_fract_y
 _atom_site_fract_z
 _atom_site_occupancy
  V  V0  1  0.49897941  0.24639591  0.24116513  1
  V  V1  1  0.00001696  0.87380714  0.37215056  1
  V  V2  1  0.12205858  0.74864125  0.36840840  1
  V  V3  1  0.24315341  0.49336694  0.74905454  1
  V  V4  1  0.36809514  0.37006415  0.49742131  1
  V  V5  1  0.62589718  0.75330036  0.36982796  1
  V  V6  1  0.49867313  0.50567877  0.51471441  1
  V  V7  1  0.50102002  0.11263052  0.61668852  1
  V  V8  1  -0.00279857  0.13079371  0.64014412  1
  V  V9  1  0.37510358  0.50017466  0.36939525  1
  V  V10  1  0.23873995  0.26360017  0.00742888  1
  V  V11  1  0.74966578  0.49850323  0.24481213  1
  V  V12  1  0.62288809  0.73899870  0.87932601  1
  V  V13  1  0.12703923  0.49327591  0.12293545  1
  V  V14  1  0.86662509  0.36407615  0.00599619  1
  V  V15  1  0.24074879  0.37491118  0.62510418  1
  V  V16  1  0.62116601  0.52988039  0.11995614  1
  V  V17  1  0.86928073  0.62925764  0.75905747  1
  V  V18  1  0.62201929  0.62368873  0.51263869  1
  V  V19  1  0.24849349  -0.00299640  0.24710595  1
  V  V20  1  0.62581006  0.24475170  0.38269842  1
  V  V21  1  0.38443898  0.36972110  0.00507920  1
  V  V22  1  0.36592308  0.24952119  0.62113067  1
  V  V23  1  0.24979594  0.49424033  0.24346118  1
  V  V24  1  0.26761490  0.87643615  0.62015404  1
  V  V25  1  0.50237469  0.52137508  -0.00162294  1
  V  V26  1  0.86826424  0.36691993  0.50081774  1
  V  V27  1  0.86752565  0.00282490  0.85788900  1
  V  V28  1  0.75041004  0.74672414  0.50098829  1
  V  V29  1  0.24921468  0.12878530  0.38117701  1
  V  V30  1  0.38287218  0.74464693  0.10971615  1
  V  V31  1  0.50260493  0.37679952  0.37251515  1
  V  V32  1  0.12468004  0.63476385  -0.00125496  1
  V  V33  1  -0.00095209  0.49764598  0.00016338  1
  V  V34  1  0.74999600  0.14139118  0.88707529  1
  V  V35  1  0.38599697  -0.00510383  0.88557888  1
  V  V36  1  0.87956148  0.87577962  0.49712595  1
  V  V37  1  0.12201954  -0.00887379  0.62926120  1
  V  V38  1  -0.00574233  0.13018511  0.13659753  1
  V  V39  1  0.51457392  0.25778832  0.74729115  1
  V  V40  1  0.25157499  0.62508973  0.36995630  1
  V  V41  1  0.11524999  0.25582615  0.86630563  1
  V  V42  1  0.12459539  0.61983013  0.50190698  1
  V  V43  1  0.87943068  0.62656133  0.25051278  1
  V  V44  1  0.74786527  0.89613054  0.62607371  1
  V  V45  1  0.37933788  0.12118357  0.24693522  1
  V  V46  1  0.86379035  0.24876393  0.14383125  1
  V  V47  1  0.00776870  0.87491162  0.86717128  1
  V  V48  1  0.73750645  0.87518079  0.12771585  1
  V  V49  1  -0.00547467  0.49850445  0.49730848  1
  V  V50  1  0.49911680  0.87256486  0.38604831  1
  V  V51  1  0.25987743  0.75505289  0.49994532  1
  V  V52  1  0.37245210  0.49362715  0.87149642  1
  V  V53  1  0.86952597  0.50578387  0.88045244  1
  V  V54  1  0.12293733  0.36799842  0.24966258  1
  V  V55  1  0.75361168  0.74384750  -0.00499968  1
  V  V56  1  0.25761388  0.87554471  0.11815001  1
  V  V57  1  0.12448295  0.87261592  0.24427464  1
  V  V58  1  0.38042958  -0.01032471  0.38416530  1
  V  V59  1  0.24854593  0.63089078  0.87304122  1
  V  V60  1  0.87518620  0.74962527  0.62978346  1
  V  V61  1  0.61623024  0.00653908  0.12617816  1
  V  V62  1  0.75798136  -0.00046490  0.26192613  1
  V  V63  1  0.62531129  0.37013340  0.22324148  1
  V  V64  1  0.00366809  0.00397028  0.49800073  1
  V  V65  1  0.49983537  0.74787480  0.24762737  1
  V  V66  1  0.86720434  0.24517363  0.63896421  1
  V  V67  1  0.75188501  0.61520846  0.37476441  1
  V  V68  1  0.62287588  0.10797412  0.49597431  1
  V  V69  1  0.74117787  0.49786089  0.74405664  1
  V  V70  1  -0.00649511  0.36990358  0.36814033  1
  V  V71  1  0.37434970  0.12571625  0.74968854  1
  V  V72  1  -0.01468436  -0.00447588  0.00559291  1
  V  V73  1  0.00670397  0.61903076  0.62840031  1
  V  V74  1  0.88538870  0.75978949  0.12594424  1
  V  V75  1  0.63354278  0.89446044  0.76180776  1
  V  V76  1  0.12340646  0.11580470  0.00583670  1
  V  V77  1  0.24669495  -0.00275392  0.75138334  1
  V  V78  1  0.02243112  0.75195906  0.75226712  1
  Zn  Zn79  1  0.53348900  0.38021845  0.85943823  1
  Zn  Zn80  1  0.41545442  0.67470632  0.66871427  1
  Zn  Zn81  1  0.49637174  0.11518221  0.10736093  1
  Zn  Zn82  1  0.24768592  0.12744054  0.87779290  1
  Zn  Zn83  1  0.51569691  0.76015065  0.73953354  1
  Zn  Zn84  1  0.12637415  0.24926484  0.37648567  1
  Zn  Zn85  1  0.38444805  0.62014409  0.23710573  1
  Zn  Zn86  1  0.71829258  0.34730178  0.65147997  1
  Zn  Zn87  1  0.13119540  0.13124389  0.50699685  1
  Zn  Zn88  1  0.77509182  0.13427940  0.36759739  1
  Zn  Zn89  1  -0.00441004  0.37027577  0.85806142  1
  Zn  Zn90  1  0.00518154  0.63092012  0.13545725  1
  Zn  Zn91  1  0.36814428  0.25091969  0.12719843  1
  Zn  Zn92  1  0.25504543  0.76027710  -0.00935770  1
  Zn  Zn93  1  0.08020485  0.42397180  0.69451835  1
  Zn  Zn94  1  0.18575257  0.18310605  0.18760569  1
  Zn  Zn95  1  0.18470156  0.18476074  0.68535781  1
  Zn  Zn96  1  0.19270498  0.68825786  0.18209024  1
  Zn  Zn97  1  0.21601488  0.67728136  0.67637863  1
  Zn  Zn98  1  0.68691513  0.18100334  0.19177578  1
  Zn  Zn99  1  0.68923287  0.16391281  0.68950774  1
  Zn  Zn100  1  0.69437300  0.69437542  0.19014850  1
  Zn  Zn101  1  0.68851852  0.69196243  0.69425441  1
  Zn  Zn102  1  0.31223761  0.31197801  0.30954050  1
  Zn  Zn103  1  0.30630586  0.31037848  0.81429426  1
  Zn  Zn104  1  0.31598707  0.80843831  0.30643386  1
  Zn  Zn105  1  0.31590454  0.81960750  0.80829900  1
  Zn  Zn106  1  0.80392383  0.32014062  0.31601823  1
  Zn  Zn107  1  0.81156021  0.31651564  0.82009448  1
  Zn  Zn108  1  0.81233186  0.81117260  0.30948047  1
  Zn  Zn109  1  0.81679322  0.82465613  0.81523937  1
  Zn  Zn110  1  0.18358903  0.43734756  0.43538457  1
  Zn  Zn111  1  0.18372029  0.43638425  0.93437934  1
  Zn  Zn112  1  0.18797732  0.93912491  0.43749770  1
  Zn  Zn113  1  0.18979324  0.94171807  0.93344699  1
  Zn  Zn114  1  0.66557721  0.41400996  0.48108879  1
  Zn  Zn115  1  0.69221729  0.44704573  0.94242212  1
  Zn  Zn116  1  0.68631827  0.93178598  0.44118791  1
  Zn  Zn117  1  0.69272770  0.93814016  0.94847374  1
  Zn  Zn118  1  0.30889110  0.06404670  0.06286031  1
  Zn  Zn119  1  0.31582456  0.05766959  0.56303593  1
  Zn  Zn120  1  0.31374407  0.56179773  0.05632156  1
  Zn  Zn121  1  0.31017144  0.55561897  0.55899973  1
  Zn  Zn122  1  0.80726961  0.06502351  0.06682275  1
  Zn  Zn123  1  0.82620375  0.08005452  0.53171067  1
  Zn  Zn124  1  0.81316650  0.56769546  0.06699536  1
  Zn  Zn125  1  0.81292321  0.56235542  0.56542198  1
  Zn  Zn126  1  0.44170265  0.43805436  0.18131926  1
  Zn  Zn127  1  0.43087960  0.43478491  0.69001787  1
  Zn  Zn128  1  0.44011191  0.92819101  0.19317301  1
  Zn  Zn129  1  0.44278398  0.93433576  0.69865514  1
  Zn  Zn130  1  0.93671365  0.43898025  0.18358587  1
  Zn  Zn131  1  0.91196682  0.43495376  0.68740682  1
  Zn  Zn132  1  0.93712740  0.94295627  0.19172973  1
  Zn  Zn133  1  0.93849340  0.93699604  0.68716844  1
  Zn  Zn134  1  0.06357595  0.05610338  0.31226957  1
  Zn  Zn135  1  0.06253968  0.06406810  0.81913354  1
  Zn  Zn136  1  0.06213616  0.55498860  0.31555856  1
  Zn  Zn137  1  0.05944733  0.56541342  0.81730809  1
  Zn  Zn138  1  0.56799680  0.05257781  0.30539184  1
  Zn  Zn139  1  0.56540981  0.06846064  0.81297703  1
  Zn  Zn140  1  0.56699083  0.56432418  0.31389955  1
  Zn  Zn141  1  0.56164401  0.56751404  0.80750672  1
  Zn  Zn142  1  0.43710529  0.18518998  0.43234811  1
  Zn  Zn143  1  0.43357253  0.19632709  0.92616303  1
  Zn  Zn144  1  0.43947629  0.68636853  0.43647396  1
  Zn  Zn145  1  0.43168854  0.68478315  0.85125874  1
  Zn  Zn146  1  0.94216943  0.19033018  0.43616084  1
  Zn  Zn147  1  0.93408366  0.18187235  0.93712322  1
  Zn  Zn148  1  0.93653590  0.68735078  0.43595038  1
  Zn  Zn149  1  0.93951659  0.69419056  0.94071938  1
  Zn  Zn150  1  0.05235043  0.31115029  0.06431308  1
  Zn  Zn151  1  0.05798041  0.30248469  0.55244989  1
  Zn  Zn152  1  0.06334496  0.81885650  0.06084723  1
  Zn  Zn153  1  0.06739615  0.80681086  0.56122449  1
  Zn  Zn154  1  0.59473860  0.31177393  0.01588098  1
  Zn  Zn155  1  0.55428765  0.30674230  0.56672153  1
  Zn  Zn156  1  0.56100649  0.81410341  0.05311977  1
  Zn  Zn157  1  0.56063910  0.81209322  0.56755360  1
  O  O158  1  0.11083624  0.13128855  0.11381259  1
  O  O159  1  0.11289341  0.11615566  0.62502638  1
  O  O160  1  0.12505691  0.61682781  0.11510861  1
  O  O161  1  0.11766284  0.63438267  0.61253402  1
  O  O162  1  0.61793514  0.11153757  0.13124011  1
  O  O163  1  0.60986132  0.12621155  0.61048513  1
  O  O164  1  0.61834872  0.62740176  0.12862549  1
  O  O165  1  0.63462161  0.62877027  0.61151223  1
  O  O166  1  0.38188620  0.37818461  0.37806686  1
  O  O167  1  0.36783136  0.38322739  0.88800362  1
  O  O168  1  0.37770050  0.88413779  0.37153145  1
  O  O169  1  0.36368971  0.89615624  0.87900903  1
  O  O170  1  0.88764897  0.37127724  0.38094462  1
  O  O171  1  0.87933123  0.38535823  0.89121212  1
  O  O172  1  0.88774119  0.86082263  0.38568736  1
  O  O173  1  0.89297155  0.89104863  0.87200507  1
  O  O174  1  0.26133503  0.00308931  0.36616194  1
  O  O175  1  0.25540809  0.00799093  0.86489785  1
  O  O176  1  0.25326777  0.50674339  0.36567800  1
  O  O177  1  0.25436003  0.50133194  0.87029301  1
  O  O178  1  0.74719065  -0.01121831  0.36363081  1
  O  O179  1  0.76873098  -0.00900145  0.87908266  1
  O  O180  1  0.73717738  0.51223535  0.35824616  1
  O  O181  1  0.76455775  0.50116684  0.87044723  1
  O  O182  1  0.24019467  0.50525284  0.13228235  1
  O  O183  1  0.25160028  0.48577770  0.63558671  1
  O  O184  1  0.25703018  0.98622245  0.13367898  1
  O  O185  1  0.24338145  0.99176482  0.62730498  1
  O  O186  1  0.72926428  0.51129152  0.12952807  1
  O  O187  1  0.75429932  0.50129136  0.64224172  1
  O  O188  1  0.74463537  0.98887157  0.13284761  1
  O  O189  1  0.76039251  0.99249363  0.61186377  1
  O  O190  1  0.00611414  0.38616452  0.26227265  1
  O  O191  1  -0.00807945  0.38284924  0.74547527  1
  O  O192  1  0.01190093  0.88427348  0.26006762  1
  O  O193  1  0.00265704  0.86771748  0.75783671  1
  O  O194  1  0.50835152  0.36856685  0.25286636  1
  O  O195  1  0.50098818  0.36511744  0.74662636  1
  O  O196  1  0.49601126  0.85647880  0.26454911  1
  O  O197  1  0.52964299  0.87685237  0.74059077  1
  O  O198  1  0.48900463  0.13025790  0.25666120  1
  O  O199  1  0.49312132  0.13553054  0.73489731  1
  O  O200  1  0.49915334  0.63858163  0.25778692  1
  O  O201  1  0.48870265  0.63451765  0.75943702  1
  O  O202  1  1.00551557  0.11518654  0.23517523  1
  O  O203  1  0.99980995  0.12045276  0.73865671  1
  O  O204  1  0.98492571  0.61397683  0.25488030  1
  O  O205  1  0.99472272  0.63316770  0.74570527  1
  O  O206  1  0.36003430  0.25833685  -0.00344738  1
  O  O207  1  0.38165433  0.26136512  0.50542570  1
  O  O208  1  0.37546822  0.75251020  0.01059381  1
  O  O209  1  0.35879480  0.74598979  0.49227777  1
  O  O210  1  0.87811362  0.26238513  0.00344979  1
  O  O211  1  0.88049480  0.26395365  0.50767917  1
  O  O212  1  0.86871757  0.74746486  0.01633588  1
  O  O213  1  0.87424845  0.75539275  0.51051382  1
  O  O214  1  0.12638847  0.24200988  0.48961459  1
  O  O215  1  0.13013295  0.24844044  0.99831491  1
  O  O216  1  0.13413961  0.74068592  0.48908755  1
  O  O217  1  0.12795527  0.73700067  1.00538471  1
  O  O218  1  0.61186348  0.24186397  0.48419372  1
  O  O219  1  0.58984675  0.19613635  0.99730968  1
  O  O220  1  0.63159323  0.74085653  0.49238994  1
  O  O221  1  0.64238121  0.75780483  0.99005542  1
  O  O222  1  0.49634897  0.24361088  0.13923888  1
  O  O223  1  0.48358083  0.24548088  0.63198989  1
  O  O224  1  0.48915037  0.75826336  0.13011316  1
  O  O225  1  0.50155811  0.73851743  0.62600178  1
  O  O226  1  0.99078662  0.23621797  0.12590015  1
  O  O227  1  0.99371897  0.23550347  0.62429468  1
  O  O228  1  0.99015839  0.75034120  0.12110181  1
  O  O229  1  0.99444497  0.74390290  0.63256884  1
  O  O230  1  0.00298501  0.26565478  0.37399689  1
  O  O231  1  0.01131219  0.24938959  0.88235294  1
  O  O232  1  0.01283481  0.75853464  0.38153902  1
  O  O233  1  -0.00211785  0.76609148  0.86932233  1
  O  O234  1  0.50202815  0.25896006  0.36445103  1
  O  O235  1  0.49936504  0.25177430  0.85004657  1
  O  O236  1  0.50672427  0.75347557  0.37130743  1
  O  O237  1  0.52296017  0.75374272  0.88468865  1
  O  O238  1  0.25241884  0.11596028  0.48430476  1
  O  O239  1  0.23318251  0.13258740  1.00377479  1
  O  O240  1  0.24043243  0.62785364  0.48601680  1
  O  O241  1  0.23674669  0.62236475  0.99268344  1
  O  O242  1  0.72301241  0.12225302  0.49661186  1
  O  O243  1  0.74898615  0.11674895  0.98679915  1
  O  O244  1  0.74575019  0.62520939  0.49312695  1
  O  O245  1  0.75178255  0.64369049  1.00598362  1
  O  O246  1  0.25221142  0.36647787  0.00188466  1
  O  O247  1  0.26201118  0.38654863  0.50488602  1
  O  O248  1  0.24062034  0.87696051  0.01424121  1
  O  O249  1  0.24737514  0.87116499  0.50974570  1
  O  O250  1  0.76977835  0.38620558  0.00888013  1
  O  O251  1  0.77258697  0.38300426  0.47932495  1
  O  O252  1  0.75511833  0.86697015  0.02174869  1
  O  O253  1  0.76062681  0.86801650  0.50862406  1
  O  O254  1  0.13109785  0.49290532  0.24227724  1
  O  O255  1  0.13631363  0.50145719  0.75679273  1
  O  O256  1  0.13951771  0.98694099  0.25459296  1
  O  O257  1  0.13710185  1.01041929  0.74343740  1
  O  O258  1  0.62251146  0.49299626  0.23067764  1
  O  O259  1  0.64243014  0.50255373  0.76224597  1
  O  O260  1  0.63905537  0.99364468  0.23783308  1
  O  O261  1  0.63149217  0.99330145  0.75192872  1
  O  O262  1  0.36713018  0.00464107  0.25546349  1
  O  O263  1  0.36672722  0.00866504  0.75353282  1
  O  O264  1  0.36724020  0.49991390  0.24897199  1
  O  O265  1  0.36267364  0.49361809  0.76275039  1
  O  O266  1  0.85906782  0.00054512  0.24853588  1
  O  O267  1  0.87783137  0.00230271  0.75752165  1
  O  O268  1  0.85734908  0.50731533  0.23518017  1
  O  O269  1  0.86889118  0.51248561  0.76111896  1
  O  O270  1  0.11450482  0.37616623  0.36655297  1
  O  O271  1  0.11868754  0.36128200  0.87800478  1
  O  O272  1  0.12184680  0.86659490  0.36770915  1
  O  O273  1  0.10795578  0.88718398  0.87528889  1
  O  O274  1  0.61208326  0.36310015  0.38028679  1
  O  O275  1  0.62624602  0.36104592  0.91785576  1
  O  O276  1  0.61776998  0.85972386  0.38133916  1
  O  O277  1  0.64091260  0.87656285  0.86380967  1
  O  O278  1  0.37901393  0.12536930  0.13427218  1
  O  O279  1  0.38058316  0.13086586  0.62719476  1
  O  O280  1  0.36875376  0.63901751  0.12122945  1
  O  O281  1  0.31947361  0.63704048  0.63241423  1
  O  O282  1  0.88439094  0.13654579  0.12255654  1
  O  O283  1  0.88623448  0.13463414  0.61944233  1
  O  O284  1  0.87948553  0.63528896  0.13453558  1
  O  O285  1  0.88663849  0.63253444  0.63367436  1
  O  O286  1  0.24877324  0.24608954  0.11102212  1
  O  O287  1  0.25891711  0.25553474  0.62678626  1
  O  O288  1  0.26114670  0.76012215  0.12139184  1
  O  O289  1  0.24052274  0.77336413  0.61615099  1
  O  O290  1  0.76431563  0.24063728  0.12960156  1
  O  O291  1  0.76230085  0.23788851  0.63073413  1
  O  O292  1  0.75841355  0.75971855  0.12107633  1
  O  O293  1  0.76445469  0.74822708  0.62010114  1
  O  O294  1  0.25573765  0.23111486  0.36972334  1
  O  O295  1  0.23762800  0.24763743  0.88907944  1
  O  O296  1  0.24276586  0.74363872  0.37790818  1
  O  O297  1  0.25651685  0.73502607  0.87511392  1
  O  O298  1  0.72927625  0.24722780  0.36913375  1
  O  O299  1  0.76208057  0.24124047  0.88520003  1
  O  O300  1  0.74352251  0.74334790  0.38012038  1
  O  O301  1  0.75669907  0.75929937  0.89128894  1
  O  O302  1  0.00690737  0.11505360  0.00662344  1
  O  O303  1  0.00476646  0.11130791  0.50625525  1
  O  O304  1  0.01396820  0.61887004  -0.00179115  1
  O  O305  1  0.00372119  0.61956552  0.50657845  1
  O  O306  1  0.51745034  0.15855549  -0.00100120  1
  O  O307  1  0.50017017  0.12797544  0.51050516  1
  O  O308  1  0.49228069  0.61581706  -0.00684357  1
  O  O309  1  0.50293621  0.61229371  0.49718727  1
  O  O310  1  0.48844160  0.38730772  0.49163039  1
  O  O311  1  0.48474850  0.36418224  0.99611049  1
  O  O312  1  0.50049731  0.86895862  0.48625400  1
  O  O313  1  0.50452036  0.88738520  0.99298155  1
  O  O314  1  0.99286175  0.38092235  0.49145122  1
  O  O315  1  0.99071212  0.38856436  1.00186727  1
  O  O316  1  0.99856395  0.87788316  0.49408455  1
  O  O317  1  1.00545264  0.89083676  0.99305865  1
  O  O318  1  0.49446638  0.48943030  0.37098855  1
  O  O319  1  0.49481537  0.49526428  0.88609029  1
  O  O320  1  0.48682713  0.98917085  0.36435056  1
  O  O321  1  0.48364722  1.00824702  0.86234065  1
  O  O322  1  1.00088905  0.48828259  0.38777985  1
  O  O323  1  0.99044743  0.49987823  0.88550960  1
  O  O324  1  1.00978491  0.98550297  0.38651989  1
  O  O325  1  0.99181559  0.99726167  0.88412094  1
  O  O326  1  -0.00739700  0.01041916  0.11295644  1
  O  O327  1  0.00491052  0.00757617  0.62003331  1
  O  O328  1  0.00912045  0.50664801  0.11722596  1
  O  O329  1  0.00230680  0.51187080  0.62249209  1
  O  O330  1  0.51036118  -0.00172501  0.13671385  1
  O  O331  1  0.49104400  0.01515493  0.62709014  1
  O  O332  1  0.50981475  0.50183152  0.11099186  1
  O  O333  1  0.48860751  0.50030969  0.61316107  1
  O  O334  1  0.24076637  0.38675205  0.25657142  1
  O  O335  1  0.24985712  0.37966800  0.73926454  1
  O  O336  1  0.24497371  0.87881256  0.24212851  1
  O  O337  1  0.25298401  0.88711248  0.73446575  1
  O  O338  1  0.73353715  0.38713682  0.25337454  1
  O  O339  1  0.75840648  0.39073698  0.75030839  1
  O  O340  1  0.75567898  0.88067391  0.23810151  1
  O  O341  1  0.74776965  0.87693968  0.73387886  1
  O  O342  1  0.25843418  0.11545887  0.25313021  1
  O  O343  1  0.26070809  0.11581940  0.74370423  1
  O  O344  1  0.24661629  0.61441564  0.25790987  1
  O  O345  1  0.24188410  0.61333450  0.77038591  1
  O  O346  1  0.74474344  0.10868947  0.26015459  1
  O  O347  1  0.74259105  0.11674148  0.77481836  1
  O  O348  1  0.75595598  0.61900637  0.25533001  1
  O  O349  1  0.76346959  0.61792472  0.74808239  1
  O  O350  1  0.36782007  0.11322575  0.36671609  1
  O  O351  1  0.36991782  0.12427591  0.86086155  1
  O  O352  1  0.36296477  0.61890587  0.37273653  1
  O  O353  1  0.35540289  0.60684096  0.89006327  1
  O  O354  1  0.86581793  0.11198169  0.42403171  1
  O  O355  1  0.86671585  0.11186109  0.87716948  1
  O  O356  1  0.86204505  0.63208879  0.36723594  1
  O  O357  1  0.88409542  0.62061395  0.86820303  1
  O  O358  1  0.11449579  0.38537599  0.13374412  1
  O  O359  1  0.13591959  0.36730796  0.61367118  1
  O  O360  1  0.13834269  0.86472418  0.13687669  1
  O  O361  1  0.12248187  0.88878138  0.62381889  1
  O  O362  1  0.62103895  0.36156203  0.12360423  1
  O  O363  1  0.63621436  0.37754827  0.58636895  1
  O  O364  1  0.63537039  0.87198562  0.13062498  1
  O  O365  1  0.64564151  0.87546912  0.62276981  1
  O  O366  1  0.13294465  0.26404243  0.25195952  1
  O  O367  1  0.13003509  0.24229367  0.76788461  1
  O  O368  1  0.13213066  0.75580049  0.25943081  1
  O  O369  1  0.11950237  0.73939279  0.74431656  1
  O  O370  1  0.61689776  0.25607176  0.25732210  1
  O  O371  1  0.61273539  0.24942495  0.73023452  1
  O  O372  1  0.61926104  0.74296431  0.26290019  1
  O  O373  1  0.63578265  0.76030876  0.76744757  1
  O  O374  1  0.38039113  0.24060994  0.24920878  1
  O  O375  1  0.37460948  0.24208499  0.74054766  1
  O  O376  1  0.38185534  0.74300268  0.23976758  1
  O  O377  1  0.39368078  0.75447327  0.76364503  1
  O  O378  1  0.87075175  0.25709827  0.24376814  1
  O  O379  1  0.87600461  0.25682710  0.73712044  1
  O  O380  1  0.87016842  0.73883480  0.23768550  1
  O  O381  1  0.87965625  0.74553692  0.74427328  1
  O  O382  1  0.38377551  0.49478029  0.49112384  1
  O  O383  1  0.38623095  0.48822558  0.99800703  1
  O  O384  1  0.37570794  1.00088817  0.48281469  1
  O  O385  1  0.37644970  1.02225824  0.98367306  1
  O  O386  1  0.88799136  0.48815841  0.51367102  1
  O  O387  1  0.88242331  0.50165307  0.99905359  1
  O  O388  1  0.89014590  0.98042586  0.50959487  1
  O  O389  1  0.88532535  1.00233444  0.99726228  1
  O  O390  1  0.11975280  0.01375250  -0.00161121  1
  O  O391  1  0.11903155  0.00288519  0.50928861  1
  O  O392  1  0.11871446  0.50358043  0.00673969  1
  O  O393  1  0.11567904  0.51265800  0.49608931  1
  O  O394  1  0.62712525  -0.00951444  0.02557922  1
  O  O395  1  0.61406474  0.00896786  0.48762601  1
  O  O396  1  0.61494579  0.51016240  0.01044215  1
  O  O397  1  0.60460719  0.50985982  0.49225369  1
  O  O398  1  0.37576826  0.37236141  0.11048760  1
  O  O399  1  0.36499370  0.36735433  0.61622434  1
  O  O400  1  0.36291322  0.86530470  0.12881909  1
  O  O401  1  0.36619352  0.88265742  0.62351110  1
  O  O402  1  0.88387498  0.35934870  0.11812946  1
  O  O403  1  0.86627636  0.36062652  0.61350851  1
  O  O404  1  0.87538102  0.86168587  0.13312759  1
  O  O405  1  0.86980782  0.86595515  0.62023923  1
  O  O406  1  0.14319680  0.12054325  0.36817351  1
  O  O407  1  0.12232086  0.13592858  0.89157996  1
  O  O408  1  0.13017371  0.62997632  0.37876451  1
  O  O409  1  0.13456226  0.61977518  0.88986837  1
  O  O410  1  0.60955788  0.13485397  0.38174716  1
  O  O411  1  0.64553315  0.12649572  0.86389073  1
  O  O412  1  0.63348014  0.63271659  0.38417667  1
  O  O413  1  0.63086139  0.63988618  0.87289160  1
