# generated using pymatgen
data_V79Zn79O256
_symmetry_space_group_name_H-M   'P 1'
_cell_length_a   16.95215487
_cell_length_b   16.97452379
_cell_length_c   16.91396959
_cell_angle_alpha   90.06639246
_cell_angle_beta   89.94772202
_cell_angle_gamma   90.24731287
_symmetry_Int_Tables_number   1
_chemical_formula_structural   V79Zn79O256
_chemical_formula_sum   'V79 Zn79 O256'
_cell_volume   4867.02457881
_cell_formula_units_Z   1
loop_
 _symmetry_equiv_pos_site_id
 _symmetry_equiv_pos_as_xyz
  1  'x, y, z'
loop_
 _atom_site_type_symbol
 _atom_site_label
 _atom_site_symmetry_multiplicity
 _atom_site_fract_x
 _atom_site_fract_y
 _atom_site_fract_z
 _atom_site_occupancy
  V  V0  1  0.37615112  0.37631473  -0.00700538  1
  V  V1  1  0.86147710  0.78474100  0.62707761  1
  V  V2  1  0.36095035  0.00112680  0.36423513  1
  V  V3  1  0.86832665  0.50154242  0.86435460  1
  V  V4  1  0.73370606  0.91913700  0.62531859  1
  V  V5  1  0.00453127  0.12476756  0.61429628  1
  V  V6  1  0.24797352  -0.00229107  0.74663749  1
  V  V7  1  0.75465262  0.74317576  -0.01218626  1
  V  V8  1  0.36900289  0.37431084  0.49792169  1
  V  V9  1  0.12752047  0.24408102  0.37302350  1
  V  V10  1  0.88824618  -0.00233832  0.87856600  1
  V  V11  1  0.37409792  0.74823691  0.12324067  1
  V  V12  1  0.49922123  0.25283115  0.24508877  1
  V  V13  1  0.02029868  0.09760223  0.12133795  1
  V  V14  1  0.87624457  0.38395797  0.01350914  1
  V  V15  1  0.88232255  0.87232817  -0.00183624  1
  V  V16  1  0.25089018  0.87158362  0.62079274  1
  V  V17  1  0.49976495  0.37615242  0.37053686  1
  V  V18  1  0.71818400  0.37493890  0.12481344  1
  V  V19  1  0.12657532  0.36845354  0.76291065  1
  V  V20  1  0.11964269  0.61499805  0.01497469  1
  V  V21  1  0.87925201  0.37831587  0.49976411  1
  V  V22  1  0.50992386  0.74131885  0.24011952  1
  V  V23  1  0.37575989  0.87101729  0.00063165  1
  V  V24  1  0.23576276  0.24917914  -0.00466763  1
  V  V25  1  0.49942365  0.12169194  0.61633466  1
  V  V26  1  0.50044842  0.00038251  0.49329312  1
  V  V27  1  0.13405715  0.62084752  0.50509060  1
  V  V28  1  0.87587710  0.00651714  0.39863483  1
  V  V29  1  0.87297183  0.25604175  0.62888135  1
  V  V30  1  0.49797502  0.12458175  0.12286097  1
  V  V31  1  0.50556399  0.64371371  0.62631686  1
  V  V32  1  0.37237062  0.87048491  0.49800417  1
  V  V33  1  0.74669626  0.26117911  0.50252183  1
  V  V34  1  0.61884501  0.62852428  0.01152486  1
  V  V35  1  0.24133167  0.37931321  0.12444238  1
  V  V36  1  0.37216572  0.24538178  0.62496406  1
  V  V37  1  0.13332122  0.74035115  0.37184896  1
  V  V38  1  -0.00116451  0.37706660  0.88327127  1
  V  V39  1  0.00392064  0.24746075  0.75938980  1
  V  V40  1  0.00259790  0.49851998  0.50086285  1
  V  V41  1  0.37429015  0.64523433  0.74749832  1
  V  V42  1  0.63009166  0.12204520  -0.00806368  1
  V  V43  1  0.24939890  0.37139097  0.62733648  1
  V  V44  1  0.00101257  0.38065683  0.37210076  1
  V  V45  1  0.25499430  0.74451781  0.50082842  1
  V  V46  1  0.50165652  -0.00680432  -0.00459409  1
  V  V47  1  0.75691276  0.86974083  0.12202054  1
  V  V48  1  0.61738100  0.89328670  0.75789956  1
  V  V49  1  -0.01514163  0.85798375  0.38004637  1
  V  V50  1  0.76023511  0.11632239  0.88010448  1
  V  V51  1  0.00215874  0.86174283  0.86916362  1
  V  V52  1  0.12288828  0.00533014  0.60989128  1
  V  V53  1  0.37160518  0.24764849  0.12087928  1
  V  V54  1  0.87251278  0.12082173  0.75398935  1
  V  V55  1  0.62701775  0.00157612  0.12760468  1
  V  V56  1  0.76323876  0.00569271  0.25018768  1
  V  V57  1  0.50551707  0.50180423  0.01733098  1
  V  V58  1  0.62500742  0.87461662  0.25233413  1
  V  V59  1  0.37860141  0.12611812  0.74837410  1
  V  V60  1  0.12059557  0.86665680  0.74475655  1
  V  V61  1  0.00962152  0.63627738  0.64428432  1
  V  V62  1  0.24312552  0.23615240  0.49432980  1
  V  V63  1  0.61988326  0.25307521  0.37378935  1
  V  V64  1  0.12687045  0.49426842  0.63218270  1
  V  V65  1  0.62958613  0.74128987  0.39032369  1
  V  V66  1  0.75686961  0.24481734  0.00035764  1
  V  V67  1  0.38528590  0.62148533  0.24309207  1
  V  V68  1  0.73629860  0.50869234  0.29797341  1
  V  V69  1  0.75153043  0.13243533  0.36845995  1
  V  V70  1  0.38281228  -0.00370053  0.87508460  1
  V  V71  1  0.50224041  0.50497121  0.51096595  1
  V  V72  1  0.36971796  0.50760409  0.37453732  1
  V  V73  1  0.24499637  0.50849282  0.24567039  1
  V  V74  1  0.25600426  0.49957247  0.75987478  1
  V  V75  1  0.38680001  0.49877638  0.87081122  1
  V  V76  1  0.23782017  0.12552806  0.87967022  1
  V  V77  1  0.25293938  0.73683248  -0.01652014  1
  V  V78  1  0.87922184  0.23744776  0.13611912  1
  Zn  Zn79  1  0.69016526  0.53478451  0.68653750  1
  Zn  Zn80  1  0.71932720  0.60709074  0.84035983  1
  Zn  Zn81  1  0.19735109  0.07398176  0.31173119  1
  Zn  Zn82  1  0.49654314  0.87321631  0.37158313  1
  Zn  Zn83  1  0.36516304  0.12147725  0.24770416  1
  Zn  Zn84  1  0.16396115  0.90024571  0.23758075  1
  Zn  Zn85  1  -0.07489289  0.70543303  0.19274896  1
  Zn  Zn86  1  -0.00322719  0.23389761  0.25522976  1
  Zn  Zn87  1  0.62933466  0.12164524  0.50351593  1
  Zn  Zn88  1  0.12770683  0.73161670  0.86598170  1
  Zn  Zn89  1  0.80522959  0.65839780  0.35923617  1
  Zn  Zn90  1  0.87051591  0.64570233  0.75126628  1
  Zn  Zn91  1  0.61003426  0.75338127  0.86195992  1
  Zn  Zn92  1  0.11590394  0.38247569  0.24606499  1
  Zn  Zn93  1  0.56529377  0.28264175  0.82280238  1
  Zn  Zn94  1  0.17870488  0.19199350  0.18285413  1
  Zn  Zn95  1  0.18752595  0.18506201  0.68863452  1
  Zn  Zn96  1  0.19167436  0.71013321  0.19136646  1
  Zn  Zn97  1  0.19623518  0.68635194  0.68862433  1
  Zn  Zn98  1  0.68777493  0.19487525  0.18614108  1
  Zn  Zn99  1  0.68135676  0.28210282  0.69504616  1
  Zn  Zn100  1  0.72753662  0.70319600  0.20991847  1
  Zn  Zn101  1  0.68787225  0.71119679  0.68252439  1
  Zn  Zn102  1  0.30939220  0.31541985  0.30766491  1
  Zn  Zn103  1  0.31288258  0.30900053  0.81432847  1
  Zn  Zn104  1  0.31254352  0.80626986  0.31253177  1
  Zn  Zn105  1  0.44310864  0.81585642  0.81202531  1
  Zn  Zn106  1  0.80395843  0.32984432  0.30470719  1
  Zn  Zn107  1  0.81714633  0.31007860  0.82203111  1
  Zn  Zn108  1  0.81049359  0.82618602  0.31998490  1
  Zn  Zn109  1  0.80271854  0.82532340  0.80253185  1
  Zn  Zn110  1  0.18595345  0.43583439  0.43391532  1
  Zn  Zn111  1  0.18646064  0.44628606  0.94386429  1
  Zn  Zn112  1  0.14402077  0.94731950  0.41228427  1
  Zn  Zn113  1  0.21300330  0.90717719  0.91000864  1
  Zn  Zn114  1  0.71108855  0.47501525  0.49862938  1
  Zn  Zn115  1  0.65740255  0.45970720  0.88479653  1
  Zn  Zn116  1  0.68772579  0.93811537  0.43649311  1
  Zn  Zn117  1  0.69284577  0.93815036  0.93499542  1
  Zn  Zn118  1  0.30359181  0.05938228  0.06362336  1
  Zn  Zn119  1  0.31115043  0.05552632  0.55482353  1
  Zn  Zn120  1  0.31341340  0.56493229  0.06265011  1
  Zn  Zn121  1  0.31887435  0.56108510  0.57238773  1
  Zn  Zn122  1  0.82377219  0.05588090  0.06400513  1
  Zn  Zn123  1  0.80838155  0.08109355  0.56608120  1
  Zn  Zn124  1  0.79799007  0.55395122  0.06451060  1
  Zn  Zn125  1  0.82347977  0.58879406  0.55786009  1
  Zn  Zn126  1  0.43427775  0.43391329  0.18459850  1
  Zn  Zn127  1  0.44555282  0.42826250  0.69090031  1
  Zn  Zn128  1  0.43820419  0.93216275  0.18500741  1
  Zn  Zn129  1  0.43705868  0.94136848  0.68214240  1
  Zn  Zn130  1  0.90841099  0.44869139  0.20544423  1
  Zn  Zn131  1  0.94027138  0.43719742  0.69080375  1
  Zn  Zn132  1  0.97265250  0.88770408  0.16573809  1
  Zn  Zn133  1  0.93984603  0.94406593  0.68611627  1
  Zn  Zn134  1  0.01755490  0.01938228  0.27089411  1
  Zn  Zn135  1  0.05973747  0.05443628  0.80702748  1
  Zn  Zn136  1  0.07002901  0.57930118  0.30439400  1
  Zn  Zn137  1  0.06522335  0.55704085  0.82793029  1
  Zn  Zn138  1  0.55653875  0.06633695  0.31317186  1
  Zn  Zn139  1  0.62108703  0.10380227  0.75753211  1
  Zn  Zn140  1  0.56558986  0.56004996  0.31871180  1
  Zn  Zn141  1  0.55166929  0.58016083  0.81422676  1
  Zn  Zn142  1  0.42728080  0.18524147  0.43264243  1
  Zn  Zn143  1  0.43622417  0.18339244  0.93353184  1
  Zn  Zn144  1  0.44639660  0.68850829  0.43318827  1
  Zn  Zn145  1  0.43847598  0.67899302  0.93478933  1
  Zn  Zn146  1  0.93596191  0.19353866  0.43370143  1
  Zn  Zn147  1  0.94517932  0.18656208  0.94917981  1
  Zn  Zn148  1  0.94062782  0.69270382  0.46806736  1
  Zn  Zn149  1  0.94139127  0.67919441  0.93785750  1
  Zn  Zn150  1  0.05737696  0.30995934  0.06653847  1
  Zn  Zn151  1  0.06252755  0.30778159  0.56470635  1
  Zn  Zn152  1  0.05046261  0.76730754  0.05449829  1
  Zn  Zn153  1  0.05505308  0.81636998  0.55390405  1
  Zn  Zn154  1  0.55361171  0.30070774  0.02193843  1
  Zn  Zn155  1  0.55503320  0.31266301  0.56139934  1
  Zn  Zn156  1  0.56548049  0.81134039  0.06030476  1
  Zn  Zn157  1  0.56561881  0.82554329  0.56961098  1
  O  O158  1  0.11829185  0.12133111  0.11447400  1
  O  O159  1  0.11624476  0.11729947  0.63261957  1
  O  O160  1  0.14018918  0.64076016  0.11234782  1
  O  O161  1  0.12818605  0.60830041  0.62781512  1
  O  O162  1  0.62216256  0.11489872  0.11895980  1
  O  O163  1  0.59922546  0.12663512  0.61893652  1
  O  O164  1  0.63274925  0.62185133  0.10738353  1
  O  O165  1  0.60614994  0.62753738  0.63690659  1
  O  O166  1  0.37983578  0.38055142  0.38151532  1
  O  O167  1  0.36879212  0.38087443  0.88582086  1
  O  O168  1  0.37339958  0.87981674  0.37977962  1
  O  O169  1  0.37622472  0.88904582  0.88162920  1
  O  O170  1  0.88886661  0.36289821  0.39342374  1
  O  O171  1  0.87933684  0.38245339  0.88814474  1
  O  O172  1  0.87955142  0.88917336  0.38839316  1
  O  O173  1  0.88204647  0.87943114  0.87606782  1
  O  O174  1  0.25965874  -0.00678013  0.37840054  1
  O  O175  1  0.25900887  0.00683684  0.86802843  1
  O  O176  1  0.26116287  0.49086147  0.36044442  1
  O  O177  1  0.26022579  0.49525732  0.86480257  1
  O  O178  1  0.75525525  0.01115022  0.37107485  1
  O  O179  1  0.77016053  0.00871817  0.88187631  1
  O  O180  1  0.74236567  0.51834696  0.39845187  1
  O  O181  1  0.76760270  0.50807489  0.88755178  1
  O  O182  1  0.26031041  0.49178816  0.13660898  1
  O  O183  1  0.24532140  0.48979383  0.63661884  1
  O  O184  1  0.23166907  0.98627825  0.12438182  1
  O  O185  1  0.24384647  0.99536196  0.63009641  1
  O  O186  1  0.74180706  0.47481607  0.12441610  1
  O  O187  1  0.74992190  0.51425062  0.59681344  1
  O  O188  1  0.74367486  0.99566299  0.13106364  1
  O  O189  1  0.73713929  1.01941897  0.62977013  1
  O  O190  1  -0.00555620  0.39388537  0.26548443  1
  O  O191  1  0.00812602  0.36622638  0.76043416  1
  O  O192  1  -0.00079310  0.89117550  0.28299197  1
  O  O193  1  0.01211032  0.87957839  0.75283268  1
  O  O194  1  0.48981117  0.36510047  0.25916966  1
  O  O195  1  0.53202526  0.35819908  0.72308642  1
  O  O196  1  0.51305047  0.86437901  0.24539117  1
  O  O197  1  0.50724982  0.88135399  0.74423479  1
  O  O198  1  0.48986738  0.13353590  0.24066308  1
  O  O199  1  0.48174454  0.11645005  0.72923815  1
  O  O200  1  0.49764348  0.63030485  0.25374264  1
  O  O201  1  0.48522202  0.63048066  0.73786940  1
  O  O202  1  1.00177266  0.12400990  0.22584532  1
  O  O203  1  0.99363161  0.13374653  0.74920102  1
  O  O204  1  0.96409795  0.61919503  0.27848187  1
  O  O205  1  1.01019296  0.61387202  0.74428627  1
  O  O206  1  0.36429079  0.25771649  0.00548009  1
  O  O207  1  0.36239527  0.25773112  0.50090985  1
  O  O208  1  0.37364358  0.75055582  0.00291644  1
  O  O209  1  0.36746508  0.75859859  0.48749830  1
  O  O210  1  0.87314691  0.25427538  0.01636850  1
  O  O211  1  0.86798723  0.25685403  0.51028556  1
  O  O212  1  0.86133349  0.75328333  -0.00573249  1
  O  O213  1  0.93259999  0.78259184  0.55020486  1
  O  O214  1  0.13230033  0.25944350  0.48696923  1
  O  O215  1  0.13700328  0.25756459  0.99949068  1
  O  O216  1  0.13304818  0.73959300  0.49295962  1
  O  O217  1  0.14709429  0.75111802  0.99396372  1
  O  O218  1  0.63060138  0.25302611  0.49487246  1
  O  O219  1  0.64470577  0.22874784  1.00719383  1
  O  O220  1  0.61434736  0.76309510  0.48682610  1
  O  O221  1  0.63478794  0.74107707  1.00120825  1
  O  O222  1  0.48915765  0.24573391  0.12511582  1
  O  O223  1  0.47856522  0.23337860  0.60757525  1
  O  O224  1  0.49684945  0.75009075  0.13347705  1
  O  O225  1  0.49874004  0.74151774  0.61520208  1
  O  O226  1  0.98711041  0.24594063  0.13021004  1
  O  O227  1  0.99585410  0.24455586  0.63894406  1
  O  O228  1  0.99992673  0.77879057  0.15231321  1
  O  O229  1  1.03937123  0.73063845  0.63917627  1
  O  O230  1  0.00944690  0.26013098  0.37310379  1
  O  O231  1  -0.00808266  0.25844130  0.86771695  1
  O  O232  1  0.00023758  0.75479239  0.38757071  1
  O  O233  1  0.00159906  0.75919841  0.86989372  1
  O  O234  1  0.49749395  0.25465924  0.36705457  1
  O  O235  1  0.51015822  0.26449398  0.91668835  1
  O  O236  1  0.51115467  0.75479936  0.36010344  1
  O  O237  1  0.49946813  0.75769487  0.88687371  1
  O  O238  1  0.25339075  0.13748061  0.49792444  1
  O  O239  1  0.25205110  0.13058100  0.98641922  1
  O  O240  1  0.24552164  0.63305558  0.51904514  1
  O  O241  1  0.24822948  0.63131914  0.99631728  1
  O  O242  1  0.74593423  0.14443503  0.48999791  1
  O  O243  1  0.75037772  0.12336634  0.99908706  1
  O  O244  1  0.83608748  0.65450187  0.46843824  1
  O  O245  1  0.74424479  0.63647552  1.00075580  1
  O  O246  1  0.25587964  0.37160397  0.00448410  1
  O  O247  1  0.25750340  0.37189899  0.50565996  1
  O  O248  1  0.26891960  0.86024173  -0.00488617  1
  O  O249  1  0.25525610  0.86309817  0.50491512  1
  O  O250  1  0.76658953  0.35991997  0.01029690  1
  O  O251  1  0.76146296  0.36636022  0.49555086  1
  O  O252  1  0.75739872  0.86520222  0.00329313  1
  O  O253  1  0.73968715  0.89498272  0.52584043  1
  O  O254  1  0.14160133  0.50524719  0.25314741  1
  O  O255  1  0.13537121  0.48931017  0.74932016  1
  O  O256  1  0.12575647  0.98693038  0.29930592  1
  O  O257  1  0.13417560  0.99146275  0.74099023  1
  O  O258  1  0.63966863  0.48598017  0.27545816  1
  O  O259  1  0.63778063  0.51378292  0.78252462  1
  O  O260  1  0.62672612  0.99481942  0.24240835  1
  O  O261  1  0.61928091  0.99495110  0.75588553  1
  O  O262  1  0.37445500  -0.00865457  0.25990465  1
  O  O263  1  0.36561947  0.00521513  0.75491539  1
  O  O264  1  0.37367333  0.50492367  0.25589039  1
  O  O265  1  0.37036410  0.48690539  0.75638235  1
  O  O266  1  0.86118124  -0.00125015  0.26040920  1
  O  O267  1  0.88445347  0.01308245  0.76211012  1
  O  O268  1  0.81930572  0.44670642  0.27644481  1
  O  O269  1  0.86771376  0.48675606  0.76342606  1
  O  O270  1  0.11467600  0.37153244  0.37112059  1
  O  O271  1  0.11688144  0.38342689  0.86969607  1
  O  O272  1  0.12636165  0.84050244  0.36141480  1
  O  O273  1  0.11746915  0.87399283  0.86265704  1
  O  O274  1  0.60523683  0.35985574  0.38154230  1
  O  O275  1  0.66445902  0.35050953  0.84993685  1
  O  O276  1  0.62520513  0.87304430  0.36127226  1
  O  O277  1  0.63006043  0.87823019  0.86284076  1
  O  O278  1  0.37823998  0.13434311  0.11627725  1
  O  O279  1  0.36911144  0.12983507  0.62885102  1
  O  O280  1  0.38049446  0.62932561  0.13562510  1
  O  O281  1  0.38492217  0.62496910  0.63955900  1
  O  O282  1  0.86707282  0.13737895  0.13295051  1
  O  O283  1  0.88355376  0.13654308  0.63628428  1
  O  O284  1  0.88553059  0.60057158  0.13472402  1
  O  O285  1  0.90312361  0.63705427  0.63357534  1
  O  O286  1  0.25478661  0.25873816  0.11470941  1
  O  O287  1  0.25357059  0.25237149  0.61595487  1
  O  O288  1  0.27245289  0.74142330  0.10856583  1
  O  O289  1  0.24433355  0.76238785  0.61473494  1
  O  O290  1  0.76175314  0.25257777  0.11650726  1
  O  O291  1  0.76022572  0.25247681  0.61701936  1
  O  O292  1  0.74500355  0.76406638  0.11174190  1
  O  O293  1  0.76932471  0.75096241  0.60510600  1
  O  O294  1  0.23667171  0.26033179  0.37963809  1
  O  O295  1  0.25315689  0.23368243  0.87924315  1
  O  O296  1  0.24104439  0.73826197  0.38785447  1
  O  O297  1  0.25631765  0.74796182  0.88500445  1
  O  O298  1  0.73914818  0.25073487  0.37698497  1
  O  O299  1  0.77270392  0.22914785  0.89384816  1
  O  O300  1  0.73191707  0.75607242  0.37468508  1
  O  O301  1  0.74860556  0.75377905  0.88529588  1
  O  O302  1  -0.01618734  0.11465892  0.02605097  1
  O  O303  1  -0.00471453  0.13888921  0.51632083  1
  O  O304  1  0.01883259  0.65361849  0.01604962  1
  O  O305  1  0.01617108  0.61461790  0.52310873  1
  O  O306  1  0.51077641  0.11401348  0.00503974  1
  O  O307  1  0.49051913  0.11772030  0.50282353  1
  O  O308  1  0.50732710  0.61397225  0.00405565  1
  O  O309  1  0.48928068  0.61390014  0.51310368  1
  O  O310  1  0.48412368  0.38113285  0.49430098  1
  O  O311  1  0.48472630  0.39361876  1.00541177  1
  O  O312  1  0.48731470  0.88395077  0.49990870  1
  O  O313  1  0.49613204  0.88686295  1.00355124  1
  O  O314  1  0.99882415  0.37975822  0.49713538  1
  O  O315  1  0.98702019  0.36567727  0.99387788  1
  O  O316  1  1.03157589  0.89428034  0.46437966  1
  O  O317  1  0.98665794  0.85823288  0.98940239  1
  O  O318  1  0.48757319  0.49247201  0.38384490  1
  O  O319  1  0.48912714  0.49737591  0.87714714  1
  O  O320  1  0.48690352  0.99498004  0.37750575  1
  O  O321  1  0.48828397  1.01000832  0.88836117  1
  O  O322  1  1.01426727  0.49325200  0.39550772  1
  O  O323  1  0.98680511  0.48348402  0.87419263  1
  O  O324  1  0.97291768  1.02038946  0.38028073  1
  O  O325  1  0.99467163  0.98507341  0.87499037  1
  O  O326  1  0.00586068  -0.00403342  0.14285772  1
  O  O327  1  0.01056130  0.01167565  0.62761771  1
  O  O328  1  -0.05691035  0.54337957  0.14660965  1
  O  O329  1  0.01513064  0.49871650  0.62477812  1
  O  O330  1  0.50824344  0.00385168  0.11834803  1
  O  O331  1  0.48234968  0.01429863  0.60607464  1
  O  O332  1  0.50067899  0.50024269  0.11673253  1
  O  O333  1  0.49043829  0.50053296  0.61254592  1
  O  O334  1  0.25120923  0.38770668  0.23908015  1
  O  O335  1  0.24293967  0.37682479  0.74864957  1
  O  O336  1  0.23041109  0.81297683  0.23786203  1
  O  O337  1  0.24218196  0.88835025  0.73774098  1
  O  O338  1  0.71851982  0.34489332  0.22230581  1
  O  O339  1  0.72001368  0.35806542  0.78128678  1
  O  O340  1  0.74207646  0.88722811  0.24184125  1
  O  O341  1  0.73454977  0.88776350  0.73582158  1
  O  O342  1  0.25401882  0.12766731  0.23499115  1
  O  O343  1  0.25705654  0.11652253  0.75744401  1
  O  O344  1  0.26561104  0.61064175  0.24527627  1
  O  O345  1  0.26648929  0.61112833  0.74168661  1
  O  O346  1  0.73905616  0.11915882  0.26016577  1
  O  O347  1  0.76888578  0.13087963  0.76707107  1
  O  O348  1  0.75271988  0.60532401  0.26373010  1
  O  O349  1  0.75514032  0.63215682  0.73648203  1
  O  O350  1  0.37290604  0.10620134  0.36938064  1
  O  O351  1  0.36845570  0.11710092  0.86643075  1
  O  O352  1  0.38205572  0.61394436  0.36494047  1
  O  O353  1  0.38164774  0.61259686  0.85460471  1
  O  O354  1  0.85862930  0.12313493  0.38075649  1
  O  O355  1  0.88082280  0.11539229  0.87466844  1
  O  O356  1  0.91915327  0.60984651  0.34490730  1
  O  O357  1  0.88849080  0.60805205  0.86506513  1
  O  O358  1  0.13647435  0.37195963  0.12668773  1
  O  O359  1  0.12859653  0.37856110  0.63817251  1
  O  O360  1  0.13236030  0.89641411  0.11929077  1
  O  O361  1  0.12983781  0.88392889  0.62580013  1
  O  O362  1  0.62379505  0.36163940  0.09506019  1
  O  O363  1  0.59366148  0.36131454  0.66054491  1
  O  O364  1  0.63391438  0.88509056  0.12969178  1
  O  O365  1  0.62869382  0.89165424  0.63576347  1
  O  O366  1  0.12006664  0.26035115  0.26086114  1
  O  O367  1  0.11813145  0.25901098  0.74915614  1
  O  O368  1  0.11403287  0.69679968  0.27997481  1
  O  O369  1  0.14237364  0.76396743  0.75405533  1
  O  O370  1  0.60541582  0.24131252  0.25739961  1
  O  O371  1  0.61785007  0.21214203  0.75395896  1
  O  O372  1  0.62562458  0.75806286  0.24996184  1
  O  O373  1  0.62553741  0.77661788  0.74813874  1
  O  O374  1  0.38001023  0.25177134  0.23603971  1
  O  O375  1  0.36721072  0.24052884  0.73747033  1
  O  O376  1  0.38883928  0.74003805  0.24364046  1
  O  O377  1  0.36822127  0.74298407  0.75380171  1
  O  O378  1  0.87451634  0.26075113  0.23852503  1
  O  O379  1  0.88361526  0.24641153  0.74604443  1
  O  O380  1  0.83598733  0.73634302  0.25613192  1
  O  O381  1  0.87584705  0.76404459  0.73085743  1
  O  O382  1  0.37465421  0.49201850  0.49369871  1
  O  O383  1  0.38368434  0.49857811  0.99284113  1
  O  O384  1  0.37721317  0.98949658  0.48460816  1
  O  O385  1  0.38063557  0.99195423  0.99680183  1
  O  O386  1  0.89374255  0.48682714  0.51433856  1
  O  O387  1  0.87293498  0.48532442  0.99901814  1
  O  O388  1  0.86859500  1.01068638  0.49726416  1
  O  O389  1  0.87518040  0.98328640  0.99128040  1
  O  O390  1  0.17319666  -0.04859134  0.07783970  1
  O  O391  1  0.13921634  0.00351436  0.51170870  1
  O  O392  1  0.12427978  0.51363460  0.01084725  1
  O  O393  1  0.12638591  0.49991891  0.51532368  1
  O  O394  1  0.62220476  0.00198148  0.00943756  1
  O  O395  1  0.60474052  0.00524549  0.48595530  1
  O  O396  1  0.60983877  0.50819348  -0.01263709  1
  O  O397  1  0.59855871  0.49111605  0.49810366  1
  O  O398  1  0.36519072  0.36666372  0.11424241  1
  O  O399  1  0.37025425  0.36354716  0.61770604  1
  O  O400  1  0.38375995  0.86199194  0.11202223  1
  O  O401  1  0.36069078  0.88463538  0.61138038  1
  O  O402  1  0.88023298  0.37117396  0.11732137  1
  O  O403  1  0.88671696  0.36192735  0.61903903  1
  O  O404  1  0.86399285  0.88204122  0.11292940  1
  O  O405  1  0.85031954  0.88969787  0.63598996  1
  O  O406  1  0.12353557  0.14571628  0.37228283  1
  O  O407  1  0.13989879  0.11456793  0.86831718  1
  O  O408  1  0.12281433  0.61837295  0.40254962  1
  O  O409  1  0.12057272  0.62335000  0.89809237  1
  O  O410  1  0.62818177  0.13814932  0.37899726  1
  O  O411  1  0.64440237  0.11037336  0.88864742  1
  O  O412  1  0.61789030  0.64182405  0.38181002  1
  O  O413  1  0.62171629  0.63706834  0.89018280  1
