# generated using pymatgen
data_V79Zn79O256
_symmetry_space_group_name_H-M   'P 1'
_cell_length_a   16.89871829
_cell_length_b   16.95065425
_cell_length_c   16.91054830
_cell_angle_alpha   90.03883765
_cell_angle_beta   89.90619449
_cell_angle_gamma   89.88757211
_symmetry_Int_Tables_number   1
_chemical_formula_structural   V79Zn79O256
_chemical_formula_sum   'V79 Zn79 O256'
_cell_volume   4843.91375538
_cell_formula_units_Z   1
loop_
 _symmetry_equiv_pos_site_id
 _symmetry_equiv_pos_as_xyz
  1  'x, y, z'
loop_
 _atom_site_type_symbol
 _atom_site_label
 _atom_site_symmetry_multiplicity
 _atom_site_fract_x
 _atom_site_fract_y
 _atom_site_fract_z
 _atom_site_occupancy
  V  V0  1  0.87268045  0.12245107  0.25352183  1
  V  V1  1  0.49891121  0.00246331  -0.01273262  1
  V  V2  1  0.62135194  0.24601899  0.37912714  1
  V  V3  1  0.85912016  0.62258814  0.73340118  1
  V  V4  1  0.63127199  0.63249193  -0.01345317  1
  V  V5  1  0.37796092  0.00209296  0.38312439  1
  V  V6  1  0.24560878  0.13655108  0.37774658  1
  V  V7  1  0.74832610  0.73613721  0.45979101  1
  V  V8  1  0.11487613  0.88433400  0.25712952  1
  V  V9  1  0.36996932  0.24937610  0.61988231  1
  V  V10  1  0.50468616  0.86855167  0.37693981  1
  V  V11  1  0.87379097  -0.01321982  0.37794456  1
  V  V12  1  0.50991905  0.37583770  0.86899840  1
  V  V13  1  0.11968824  0.38867279  0.24915884  1
  V  V14  1  0.62579173  0.48292700  0.62723106  1
  V  V15  1  -0.00165986  0.12334243  0.12539520  1
  V  V16  1  0.50430395  0.12343013  0.61025474  1
  V  V17  1  0.24783799  0.49821149  0.74858959  1
  V  V18  1  0.49852019  0.75495212  0.74116582  1
  V  V19  1  0.37526959  0.63002952  0.74150687  1
  V  V20  1  0.62403690  0.00081209  0.61603976  1
  V  V21  1  0.25595781  0.00187820  0.75231049  1
  V  V22  1  0.50086791  0.50253861  -0.00437531  1
  V  V23  1  0.24484864  0.37117609  0.62448547  1
  V  V24  1  0.37932523  0.86074511  0.49881454  1
  V  V25  1  0.38059635  0.75817774  0.11513445  1
  V  V26  1  0.12371677  0.62151133  0.01037595  1
  V  V27  1  0.00388976  0.74851078  0.22568479  1
  V  V28  1  -0.00714463  -0.00016030  -0.00744560  1
  V  V29  1  0.62241810  0.23606248  0.87799354  1
  V  V30  1  0.13175575  0.13074508  -0.00158082  1
  V  V31  1  0.37255660  0.63401664  0.25105569  1
  V  V32  1  0.37758185  0.12175566  0.75189231  1
  V  V33  1  0.36466312  0.37547626  0.49794244  1
  V  V34  1  0.50646242  0.25354865  0.74713467  1
  V  V35  1  0.62627395  0.37299370  0.24161663  1
  V  V36  1  0.12512012  0.13648910  0.49808502  1
  V  V37  1  -0.00544210  -0.01356893  0.49730939  1
  V  V38  1  0.86874359  0.25761809  0.12922132  1
  V  V39  1  0.76741936  0.11840995  0.87938453  1
  V  V40  1  0.36864656  0.37273689  -0.00546124  1
  V  V41  1  0.86668169  0.24584789  0.61815636  1
  V  V42  1  0.24833796  0.75953941  -0.00864845  1
  V  V43  1  0.87504370  0.52048259  0.88902278  1
  V  V44  1  0.12696562  0.00051600  0.62171158  1
  V  V45  1  0.25131927  0.00061324  0.24867358  1
  V  V46  1  0.12602608  0.00080623  0.12162852  1
  V  V47  1  0.62901749  0.87916289  0.75982502  1
  V  V48  1  0.87329436  0.63452775  0.23826797  1
  V  V49  1  0.73512483  0.00166339  0.23792094  1
  V  V50  1  0.25267111  0.13370909  0.87596728  1
  V  V51  1  0.10239371  0.49880832  0.62388290  1
  V  V52  1  0.74559739  0.85463186  0.12604838  1
  V  V53  1  0.51183141  0.12087793  0.11801954  1
  V  V54  1  0.75439108  0.49551235  0.25993097  1
  V  V55  1  0.50550430  0.62862531  0.62107254  1
  V  V56  1  0.63142662  0.49840249  0.12086764  1
  V  V57  1  0.24548487  0.38295038  0.12073455  1
  V  V58  1  0.48403462  0.87297268  0.87621109  1
  V  V59  1  -0.01187980  0.87538552  0.86762211  1
  V  V60  1  0.00590441  0.25015354  0.25901888  1
  V  V61  1  0.36733679  0.25057573  0.11725347  1
  V  V62  1  0.50325455  0.62907622  0.12341123  1
  V  V63  1  0.25592612  0.86412305  0.61643984  1
  V  V64  1  0.36504870  0.50175180  0.36862114  1
  V  V65  1  0.13093924  0.87201442  0.75738828  1
  V  V66  1  0.37197828  0.12737779  0.24693678  1
  V  V67  1  0.75441005  0.75104187  -0.02785096  1
  V  V68  1  0.75848285  0.00734605  0.75129941  1
  V  V69  1  0.88154918  0.37062175  -0.00947793  1
  V  V70  1  -0.01036955  0.23527984  0.75740510  1
  V  V71  1  0.74052366  0.12106263  0.38515277  1
  V  V72  1  0.49623747  0.25307737  0.24612034  1
  V  V73  1  0.74422464  0.25020958  0.00439010  1
  V  V74  1  0.00948462  0.73270111  0.74635805  1
  V  V75  1  0.37424029  0.50439008  0.87142644  1
  V  V76  1  0.61657548  0.86259209  0.24531736  1
  V  V77  1  0.49827955  0.50513533  0.49729183  1
  V  V78  1  0.10992447  0.37121851  0.76044194  1
  Zn  Zn79  1  0.12277847  0.25808238  0.88554103  1
  Zn  Zn80  1  0.74463803  0.25349528  0.50698315  1
  Zn  Zn81  1  0.11852318  0.63430431  0.51022860  1
  Zn  Zn82  1  0.07797341  0.30729174  0.41905774  1
  Zn  Zn83  1  0.26199285  0.88283077  0.11790355  1
  Zn  Zn84  1  0.24031269  0.50841376  0.24224942  1
  Zn  Zn85  1  0.12380386  0.76829596  0.39144415  1
  Zn  Zn86  1  0.73195129  0.48592726  0.76625956  1
  Zn  Zn87  1  0.88358721  0.86684116  0.01573065  1
  Zn  Zn88  1  0.23536073  0.64080816  0.86518978  1
  Zn  Zn89  1  0.00950426  0.49418017  0.01096915  1
  Zn  Zn90  1  0.24477695  0.64550972  0.39844530  1
  Zn  Zn91  1  0.82428908  0.82493469  0.57971287  1
  Zn  Zn92  1  0.49436438  0.37463445  0.37422101  1
  Zn  Zn93  1  -0.00594505  0.12147582  0.62755041  1
  Zn  Zn94  1  0.18672463  0.19107287  0.18730995  1
  Zn  Zn95  1  0.18264754  0.18902773  0.68889407  1
  Zn  Zn96  1  0.19347958  0.69848404  0.19074074  1
  Zn  Zn97  1  0.18598007  0.68163366  0.67745773  1
  Zn  Zn98  1  0.68756669  0.18649938  0.19138230  1
  Zn  Zn99  1  0.68795649  0.18339062  0.68914158  1
  Zn  Zn100  1  0.69008688  0.67986682  0.30356830  1
  Zn  Zn101  1  0.67991448  0.68877167  0.70025696  1
  Zn  Zn102  1  0.30494549  0.31857299  0.30811758  1
  Zn  Zn103  1  0.31467731  0.31182681  0.80908006  1
  Zn  Zn104  1  0.30868614  0.81129144  0.31435534  1
  Zn  Zn105  1  0.31601510  0.81557982  0.80645589  1
  Zn  Zn106  1  0.80769481  0.31014119  0.31582199  1
  Zn  Zn107  1  0.80567861  0.31013633  0.81127976  1
  Zn  Zn108  1  0.91688765  0.78359193  0.39282536  1
  Zn  Zn109  1  0.82630748  0.81947513  0.77658676  1
  Zn  Zn110  1  0.14808150  0.48715818  0.41174228  1
  Zn  Zn111  1  0.18761752  0.44465077  0.93743087  1
  Zn  Zn112  1  0.19290794  0.94501038  0.43889040  1
  Zn  Zn113  1  0.19266739  0.94315937  0.93632291  1
  Zn  Zn114  1  0.67745672  0.43667922  0.43374312  1
  Zn  Zn115  1  0.69512224  0.43592630  0.94240490  1
  Zn  Zn116  1  0.69577763  0.92742410  0.43254901  1
  Zn  Zn117  1  0.67871909  0.94100466  0.94261916  1
  Zn  Zn118  1  0.32061040  0.06010608  0.05692095  1
  Zn  Zn119  1  0.31038783  0.06404942  0.56298656  1
  Zn  Zn120  1  0.30762205  0.57244566  0.05996896  1
  Zn  Zn121  1  0.30964892  0.56294409  0.56132694  1
  Zn  Zn122  1  0.81179233  0.06621333  0.06113478  1
  Zn  Zn123  1  0.81432197  0.06438828  0.56683154  1
  Zn  Zn124  1  0.81063986  0.56733741  0.06597826  1
  Zn  Zn125  1  0.75845960  0.61224236  0.57788669  1
  Zn  Zn126  1  0.43523969  0.44114271  0.18118596  1
  Zn  Zn127  1  0.43714043  0.43836985  0.68389119  1
  Zn  Zn128  1  0.44095722  0.94227491  0.18815307  1
  Zn  Zn129  1  0.44205518  0.93754316  0.67921888  1
  Zn  Zn130  1  0.94003600  0.44021339  0.18662915  1
  Zn  Zn131  1  0.89785704  0.42798590  0.70638395  1
  Zn  Zn132  1  0.93134216  0.93484536  0.18487301  1
  Zn  Zn133  1  0.93938580  0.93938087  0.68482576  1
  Zn  Zn134  1  0.05879695  0.06248083  0.31789828  1
  Zn  Zn135  1  0.06858284  0.05981391  0.81509740  1
  Zn  Zn136  1  0.01300995  0.62437616  0.37502583  1
  Zn  Zn137  1  0.06219584  0.55479134  0.83106691  1
  Zn  Zn138  1  0.55640430  0.06362142  0.31250267  1
  Zn  Zn139  1  0.56064669  0.06104726  0.80753457  1
  Zn  Zn140  1  0.55207970  0.55423286  0.30363182  1
  Zn  Zn141  1  0.56130324  0.56357302  0.80653301  1
  Zn  Zn142  1  0.43219884  0.18897938  0.43412620  1
  Zn  Zn143  1  0.43808433  0.18693110  0.93624280  1
  Zn  Zn144  1  0.55160196  0.68592307  0.43349895  1
  Zn  Zn145  1  0.43843399  0.69077262  0.93317286  1
  Zn  Zn146  1  0.93548937  0.17618231  0.44142006  1
  Zn  Zn147  1  0.94045581  0.18905345  0.93981266  1
  Zn  Zn148  1  0.93589133  0.68010719  0.55562896  1
  Zn  Zn149  1  0.94966047  0.69789563  0.94191512  1
  Zn  Zn150  1  0.05849632  0.31046511  0.07209738  1
  Zn  Zn151  1  0.01040302  0.35230387  0.59850044  1
  Zn  Zn152  1  0.06873936  0.81394868  0.05741000  1
  Zn  Zn153  1  0.06123623  0.81183649  0.57149401  1
  Zn  Zn154  1  0.55762594  0.31323631  0.05828904  1
  Zn  Zn155  1  0.55433128  0.31463111  0.55930708  1
  Zn  Zn156  1  0.56589820  0.81511925  0.05550228  1
  Zn  Zn157  1  0.65115825  0.80824258  0.57307477  1
  O  O158  1  0.12163210  0.11743693  0.11909049  1
  O  O159  1  0.13085344  0.11532765  0.61359928  1
  O  O160  1  0.14779491  0.63102381  0.10852428  1
  O  O161  1  0.11759332  0.60204878  0.63251125  1
  O  O162  1  0.60958844  0.13709657  0.12372388  1
  O  O163  1  0.61635468  0.11435424  0.62934228  1
  O  O164  1  0.61290722  0.61428520  0.10886889  1
  O  O165  1  0.60895300  0.61695257  0.63062218  1
  O  O166  1  0.37055259  0.38076827  0.38108694  1
  O  O167  1  0.38175873  0.38255045  0.87741963  1
  O  O168  1  0.37589918  0.88145169  0.38040801  1
  O  O169  1  0.38535262  0.88496511  0.86571910  1
  O  O170  1  0.83072115  0.37126989  0.41373143  1
  O  O171  1  0.87843028  0.36694654  0.89065791  1
  O  O172  1  0.87316381  0.88837114  0.36813864  1
  O  O173  1  0.88852010  0.87749926  0.86369944  1
  O  O174  1  0.25739404  0.01064392  0.36486020  1
  O  O175  1  0.24813659  0.01104106  0.85840770  1
  O  O176  1  0.26134422  0.50289742  0.36858272  1
  O  O177  1  0.26100359  0.49854971  0.86174779  1
  O  O178  1  0.75353221  0.00465616  0.36559618  1
  O  O179  1  0.74355262  0.01341548  0.87447187  1
  O  O180  1  0.73712421  0.49661341  0.35763319  1
  O  O181  1  0.76928437  0.49452403  0.87701858  1
  O  O182  1  0.26057760  0.48610574  0.12236898  1
  O  O183  1  0.24578102  0.48979783  0.63853327  1
  O  O184  1  0.24451140  1.00512900  0.13117046  1
  O  O185  1  0.24368645  0.99489103  0.63223967  1
  O  O186  1  0.73536232  0.50458995  0.13229328  1
  O  O187  1  0.72339045  0.50807136  0.60955162  1
  O  O188  1  0.74502062  1.01147874  0.13741399  1
  O  O189  1  0.73824225  1.01329704  0.64312612  1
  O  O190  1  0.01193492  0.36513165  0.24536093  1
  O  O191  1  0.00789755  0.36584443  0.75530651  1
  O  O192  1  0.01325153  0.89190643  0.25337165  1
  O  O193  1  0.01301673  0.87725121  0.75850241  1
  O  O194  1  0.50198154  0.36479018  0.24522132  1
  O  O195  1  0.49003316  0.36345119  0.75698501  1
  O  O196  1  0.51077768  0.87985675  0.25554646  1
  O  O197  1  0.50276873  0.87320101  0.75516766  1
  O  O198  1  0.49321086  0.13670043  0.23888588  1
  O  O199  1  0.49243916  0.13381394  0.74214502  1
  O  O200  1  0.48512974  0.61890383  0.23206281  1
  O  O201  1  0.49414216  0.63456459  0.74387035  1
  O  O202  1  0.99056376  0.12809827  0.24708022  1
  O  O203  1  1.01077575  0.13237945  0.74878134  1
  O  O204  1  1.02631974  0.65730523  0.20689155  1
  O  O205  1  1.01170211  0.63405960  0.75660631  1
  O  O206  1  0.38164621  0.26160008  0.00496116  1
  O  O207  1  0.37830880  0.25962340  0.51119500  1
  O  O208  1  0.36862000  0.74766128  0.00870622  1
  O  O209  1  0.37460514  0.76582058  0.49613183  1
  O  O210  1  0.86972444  0.25410893  0.00871088  1
  O  O211  1  0.87144191  0.23897093  0.51338963  1
  O  O212  1  0.85874294  0.75594742  -0.00880026  1
  O  O213  1  0.86566462  0.75269547  0.49251497  1
  O  O214  1  0.11887692  0.23555638  0.50102162  1
  O  O215  1  0.11930295  0.23428400  1.00440359  1
  O  O216  1  0.12205003  0.75090058  0.50250819  1
  O  O217  1  0.14379781  0.74814670  1.00282377  1
  O  O218  1  0.62551985  0.26310571  0.48384733  1
  O  O219  1  0.63224493  0.25707420  0.99019384  1
  O  O220  1  0.64001652  0.74403486  0.47915139  1
  O  O221  1  0.63283195  0.73810990  0.99502920  1
  O  O222  1  0.48938340  0.24409490  0.12774571  1
  O  O223  1  0.49315610  0.24460965  0.63087446  1
  O  O224  1  0.49115557  0.74224259  0.11193234  1
  O  O225  1  0.50402232  0.74256017  0.63716901  1
  O  O226  1  0.98817169  0.24111395  0.13726438  1
  O  O227  1  0.99644115  0.24337238  0.64291493  1
  O  O228  1  0.98712613  0.79320277  0.13278108  1
  O  O229  1  0.99294381  0.74757819  0.64282237  1
  O  O230  1  -0.00540500  0.24228363  0.36421472  1
  O  O231  1  0.00531059  0.24345679  0.86318815  1
  O  O232  1  0.01482787  0.74647576  0.34646921  1
  O  O233  1  0.00130036  0.76668346  0.85993784  1
  O  O234  1  0.50184276  0.24847912  0.36162375  1
  O  O235  1  0.50480541  0.25667886  0.86817161  1
  O  O236  1  0.49572427  0.77015288  0.37195011  1
  O  O237  1  0.49304463  0.76481460  0.86130621  1
  O  O238  1  0.23596842  0.12032594  0.49252909  1
  O  O239  1  0.24478927  0.11509746  0.98823299  1
  O  O240  1  0.23588319  0.62342898  0.50820238  1
  O  O241  1  0.24815332  0.64035721  0.98992275  1
  O  O242  1  0.74905733  0.12489580  0.48714758  1
  O  O243  1  0.75338391  0.13464941  0.98799147  1
  O  O244  1  0.76016938  0.63540782  0.46779884  1
  O  O245  1  0.74100988  0.63919957  1.00077058  1
  O  O246  1  0.26192259  0.37923906  0.00133109  1
  O  O247  1  0.25856538  0.37978061  0.51580729  1
  O  O248  1  0.24845749  0.86687120  0.00060733  1
  O  O249  1  0.25849667  0.87870180  0.50981837  1
  O  O250  1  0.76107916  0.35698674  -0.00241356  1
  O  O251  1  0.76968543  0.36785450  0.46767227  1
  O  O252  1  0.73710450  0.85973831  0.00835791  1
  O  O253  1  0.74418554  0.85162093  0.50151759  1
  O  O254  1  0.12085378  0.48683690  0.24136634  1
  O  O255  1  0.12865611  0.48791819  0.75085697  1
  O  O256  1  0.13062769  1.00035414  0.24263841  1
  O  O257  1  0.13529062  0.99390993  0.74010794  1
  O  O258  1  0.62783313  0.49068516  0.23904785  1
  O  O259  1  0.62153776  0.49713710  0.73528982  1
  O  O260  1  0.63341866  1.00067666  0.25173133  1
  O  O261  1  0.62852079  0.99373482  0.74475252  1
  O  O262  1  0.36558270  0.00741754  0.25304331  1
  O  O263  1  0.36868556  0.01289122  0.73684682  1
  O  O264  1  0.37474140  0.50577276  0.25479735  1
  O  O265  1  0.36882835  0.50534758  0.75401909  1
  O  O266  1  0.86566707  0.00905455  0.25518859  1
  O  O267  1  0.85679753  0.00170761  0.74925346  1
  O  O268  1  0.84972408  0.46615727  0.25064648  1
  O  O269  1  0.89062375  0.52723114  0.77233115  1
  O  O270  1  0.13245597  0.38388453  0.35712563  1
  O  O271  1  0.13177536  0.37491029  0.86390744  1
  O  O272  1  0.13142084  0.88616276  0.35928615  1
  O  O273  1  0.12993646  0.87958230  0.85968748  1
  O  O274  1  0.61408692  0.36502537  0.36033316  1
  O  O275  1  0.61334166  0.37138923  0.87766681  1
  O  O276  1  0.61125982  0.88437529  0.36330593  1
  O  O277  1  0.60856387  0.88556695  0.86252649  1
  O  O278  1  0.37910888  0.13591555  0.12759741  1
  O  O279  1  0.38016055  0.13268144  0.62966186  1
  O  O280  1  0.38489602  0.63493467  0.12438638  1
  O  O281  1  0.38637868  0.61359998  0.63617524  1
  O  O282  1  0.87815668  0.13058669  0.13669440  1
  O  O283  1  0.87825393  0.13635915  0.63016059  1
  O  O284  1  0.88495895  0.60797851  0.14074020  1
  O  O285  1  0.86963222  0.61624461  0.63160987  1
  O  O286  1  0.26187916  0.25894744  0.12732601  1
  O  O287  1  0.26007895  0.25798339  0.63413122  1
  O  O288  1  0.26680391  0.75750085  0.11352460  1
  O  O289  1  0.24933922  0.76651670  0.63001196  1
  O  O290  1  0.75720985  0.23809402  0.11611578  1
  O  O291  1  0.75984861  0.24622659  0.62665891  1
  O  O292  1  0.75168299  0.75886747  0.12857565  1
  O  O293  1  0.74032362  0.73127319  0.61132961  1
  O  O294  1  0.25164713  0.23602129  0.36803879  1
  O  O295  1  0.24683173  0.23795709  0.86804791  1
  O  O296  1  0.22702542  0.74119432  0.34384998  1
  O  O297  1  0.26212771  0.75505824  0.88628787  1
  O  O298  1  0.73545218  0.23549451  0.37008186  1
  O  O299  1  0.74216775  0.23735704  0.87877410  1
  O  O300  1  0.76095982  0.75267609  0.36166807  1
  O  O301  1  0.75164621  0.75963505  0.87515412  1
  O  O302  1  0.00820415  0.11682195  0.00365930  1
  O  O303  1  0.01474906  0.11324195  0.50336307  1
  O  O304  1  0.02158291  0.64093259  0.00740758  1
  O  O305  1  0.00449598  0.62251717  0.49087664  1
  O  O306  1  0.49517998  0.11637300  0.00803242  1
  O  O307  1  0.49562694  0.13165212  0.51099369  1
  O  O308  1  0.50931337  0.62231995  -0.00010087  1
  O  O309  1  0.49336999  0.61571620  0.50825795  1
  O  O310  1  0.48094276  0.38394735  0.49903650  1
  O  O311  1  0.48979464  0.38206303  0.98814499  1
  O  O312  1  0.48578299  0.88099226  0.48287559  1
  O  O313  1  0.50129311  0.87738879  0.98065935  1
  O  O314  1  1.00054374  0.36483893  0.48457604  1
  O  O315  1  0.98489276  0.36971659  1.00700848  1
  O  O316  1  0.99730901  0.88627376  0.50718761  1
  O  O317  1  1.00041106  0.87893453  0.98241048  1
  O  O318  1  0.48420600  0.49703826  0.38081850  1
  O  O319  1  0.49257075  0.49274911  0.87338083  1
  O  O320  1  0.48338674  0.99350213  0.36416826  1
  O  O321  1  0.49594847  0.99668392  0.88130609  1
  O  O322  1  0.96622683  0.44607435  0.45270097  1
  O  O323  1  0.98144865  0.50178372  0.89583154  1
  O  O324  1  0.98665386  1.00592102  0.38578862  1
  O  O325  1  1.00866603  0.98763004  0.88147676  1
  O  O326  1  0.00692986  0.00418565  0.11586623  1
  O  O327  1  0.00999772  0.00123464  0.61976497  1
  O  O328  1  0.00047960  0.50144566  0.12089526  1
  O  O329  1  0.00414171  0.47754240  0.63858617  1
  O  O330  1  0.50262024  0.02074709  0.13255437  1
  O  O331  1  0.51333679  0.01011547  0.62644298  1
  O  O332  1  0.50466408  0.50809567  0.11390534  1
  O  O333  1  0.50551053  0.50508202  0.61773013  1
  O  O334  1  0.23792832  0.37884082  0.23822185  1
  O  O335  1  0.24630129  0.38082535  0.74315606  1
  O  O336  1  0.24394375  0.89186284  0.24457589  1
  O  O337  1  0.25077524  0.88343933  0.73796915  1
  O  O338  1  0.73120160  0.37475630  0.24991890  1
  O  O339  1  0.79188130  0.39502573  0.74138789  1
  O  O340  1  0.73376902  0.88983611  0.23698909  1
  O  O341  1  0.73438809  0.89256013  0.76586036  1
  O  O342  1  0.25095330  0.11835992  0.25513493  1
  O  O343  1  0.25696022  0.12036081  0.75324910  1
  O  O344  1  0.26852691  0.61977981  0.23182244  1
  O  O345  1  0.25716083  0.61749180  0.74838187  1
  O  O346  1  0.75334247  0.11608187  0.25803588  1
  O  O347  1  0.74306004  0.11633499  0.76874278  1
  O  O348  1  0.76805131  0.60867543  0.25316739  1
  O  O349  1  0.75733715  0.61470527  0.74785741  1
  O  O350  1  0.36694960  0.12026109  0.36826786  1
  O  O351  1  0.36973984  0.13175133  0.86075183  1
  O  O352  1  0.37105962  0.62038157  0.35476053  1
  O  O353  1  0.37955018  0.61388117  0.86242642  1
  O  O354  1  0.86267221  0.11823105  0.36620116  1
  O  O355  1  0.86612997  0.12344481  0.87706171  1
  O  O356  1  0.92757204  0.58604558  0.30852226  1
  O  O357  1  0.87238589  0.61909284  0.89916268  1
  O  O358  1  0.13647566  0.36668260  0.13243299  1
  O  O359  1  0.12901955  0.38026680  0.64379540  1
  O  O360  1  0.12882731  0.89485519  0.12806176  1
  O  O361  1  0.13826300  0.88374458  0.63264696  1
  O  O362  1  0.61357294  0.38569382  0.12901288  1
  O  O363  1  0.62189081  0.38275994  0.62227035  1
  O  O364  1  0.62953197  0.87091720  0.13487406  1
  O  O365  1  0.62108015  0.89151434  0.64297033  1
  O  O366  1  0.11230647  0.25267480  0.24814427  1
  O  O367  1  0.11823749  0.26178221  0.75230935  1
  O  O368  1  0.11918252  0.78098611  0.22984736  1
  O  O369  1  0.11679819  0.75783089  0.74098322  1
  O  O370  1  0.61407133  0.25518540  0.25245037  1
  O  O371  1  0.61306230  0.24564530  0.75866230  1
  O  O372  1  0.62780894  0.76557060  0.25245527  1
  O  O373  1  0.61656008  0.77025747  0.74928572  1
  O  O374  1  0.37984877  0.24923184  0.24015290  1
  O  O375  1  0.38388429  0.24213848  0.73951441  1
  O  O376  1  0.37207596  0.73917969  0.23622055  1
  O  O377  1  0.38121587  0.73838161  0.74956797  1
  O  O378  1  0.87637285  0.24236918  0.24807475  1
  O  O379  1  0.88661272  0.24531198  0.75057845  1
  O  O380  1  0.89327450  0.73635031  0.25222386  1
  O  O381  1  0.88700088  0.71937315  0.76359655  1
  O  O382  1  0.37790558  0.49402698  0.49230152  1
  O  O383  1  0.37917494  0.49569797  0.98762558  1
  O  O384  1  0.36632517  0.99773670  0.48666283  1
  O  O385  1  0.39958083  0.99004401  1.01849127  1
  O  O386  1  0.92008634  0.47914102  0.49883836  1
  O  O387  1  0.86498135  0.48293423  0.99853603  1
  O  O388  1  0.88105751  1.00460482  0.49232146  1
  O  O389  1  0.88959699  0.99650406  1.00590288  1
  O  O390  1  0.11886284  0.00878795  0.00492729  1
  O  O391  1  0.11791409  -0.00045370  0.50913249  1
  O  O392  1  0.12668304  0.51355635  0.00149351  1
  O  O393  1  0.11945738  0.48290123  0.52566289  1
  O  O394  1  0.59946224  -0.00813322  0.00759941  1
  O  O395  1  0.63888991  -0.01006277  0.51889804  1
  O  O396  1  0.62349409  0.50648714  0.00288896  1
  O  O397  1  0.60464704  0.48937276  0.50520657  1
  O  O398  1  0.37017885  0.36906042  0.11361353  1
  O  O399  1  0.36652109  0.36845605  0.62072756  1
  O  O400  1  0.38298682  0.86075273  0.13208037  1
  O  O401  1  0.36661262  0.88118108  0.61132861  1
  O  O402  1  0.87378182  0.35924687  0.12119501  1
  O  O403  1  0.89180746  0.34886496  0.62313883  1
  O  O404  1  0.84745524  0.88746210  0.12417205  1
  O  O405  1  0.86569425  0.85851061  0.67330613  1
  O  O406  1  0.13116966  0.11766723  0.38922859  1
  O  O407  1  0.13558370  0.12613470  0.88358741  1
  O  O408  1  0.12590543  0.59614125  0.38590568  1
  O  O409  1  0.12732562  0.62422823  0.89132595  1
  O  O410  1  0.62700033  0.13399369  0.36864064  1
  O  O411  1  0.62003138  0.13499751  0.87745804  1
  O  O412  1  0.61292935  0.62486233  0.36156369  1
  O  O413  1  0.62261247  0.61732128  0.88748120  1
