# generated using pymatgen
data_V79Zn79O256
_symmetry_space_group_name_H-M   'P 1'
_cell_length_a   16.89340443
_cell_length_b   16.87125141
_cell_length_c   16.88858724
_cell_angle_alpha   90.12851997
_cell_angle_beta   89.91665685
_cell_angle_gamma   90.03087347
_symmetry_Int_Tables_number   1
_chemical_formula_structural   V79Zn79O256
_chemical_formula_sum   'V79 Zn79 O256'
_cell_volume   4813.44688321
_cell_formula_units_Z   1
loop_
 _symmetry_equiv_pos_site_id
 _symmetry_equiv_pos_as_xyz
  1  'x, y, z'
loop_
 _atom_site_type_symbol
 _atom_site_label
 _atom_site_symmetry_multiplicity
 _atom_site_fract_x
 _atom_site_fract_y
 _atom_site_fract_z
 _atom_site_occupancy
  V  V0  1  0.13185983  0.25060615  0.38596809  1
  V  V1  1  0.00889122  0.00497620  0.50722686  1
  V  V2  1  0.37949754  0.50186669  0.37433973  1
  V  V3  1  0.51903195  0.11697442  0.11279865  1
  V  V4  1  0.13106183  0.61547221  0.49956395  1
  V  V5  1  0.72975982  0.62465226  0.37555440  1
  V  V6  1  0.87061779  0.00979657  0.38211398  1
  V  V7  1  0.75221573  0.50053733  0.24339520  1
  V  V8  1  0.00601664  0.62393231  0.12583847  1
  V  V9  1  0.73637268  0.12747453  0.87795306  1
  V  V10  1  0.50288435  0.26011644  0.76077379  1
  V  V11  1  0.87700409  0.12596900  0.75321489  1
  V  V12  1  0.62805241  0.49322923  0.60633694  1
  V  V13  1  -0.00898992  0.37951708  0.37575597  1
  V  V14  1  0.25663138  0.62955664  0.37366164  1
  V  V15  1  -0.00671727  0.87486056  0.38333355  1
  V  V16  1  0.37377985  0.73174217  0.13556650  1
  V  V17  1  0.50207095  0.37706504  0.37834449  1
  V  V18  1  0.37426317  0.61865827  0.75181898  1
  V  V19  1  0.49928549  0.24275494  0.25103058  1
  V  V20  1  0.75735787  0.87300476  0.61918169  1
  V  V21  1  0.12514269  0.37962039  0.24691650  1
  V  V22  1  0.86751143  0.26614661  0.61351525  1
  V  V23  1  0.87224120  0.87120376  0.00029608  1
  V  V24  1  0.50125422  0.12813040  0.62594225  1
  V  V25  1  0.25797126  0.87821485  0.12227878  1
  V  V26  1  0.25868803  0.75437562  -0.00290946  1
  V  V27  1  0.00658366  0.49607370  -0.00025915  1
  V  V28  1  0.62798667  0.37469509  0.24069262  1
  V  V29  1  0.13252925  0.38695298  0.74962538  1
  V  V30  1  0.62845794  0.37937293  0.76316351  1
  V  V31  1  0.12359223  0.84890501  0.75370612  1
  V  V32  1  -0.00053327  0.00302400  0.00129353  1
  V  V33  1  0.50794822  0.62178195  0.60931481  1
  V  V34  1  0.63971067  0.13387527  0.49695295  1
  V  V35  1  0.12423595  0.87598388  0.25193321  1
  V  V36  1  0.36836672  0.37204913  0.49716992  1
  V  V37  1  0.25295347  0.01145823  0.25232338  1
  V  V38  1  0.61235554  0.51673419  0.11773497  1
  V  V39  1  0.62442276  0.87101570  0.74810742  1
  V  V40  1  0.36728469  0.25235606  0.61999905  1
  V  V41  1  0.87076583  0.37600371  0.00879307  1
  V  V42  1  0.49690033  0.88119188  0.88844205  1
  V  V43  1  0.37517034  0.24195626  0.12838256  1
  V  V44  1  0.50938439  0.74224959  0.24955759  1
  V  V45  1  0.50019660  0.75256099  0.74738212  1
  V  V46  1  0.50109073  -0.00141602  0.49961297  1
  V  V47  1  0.62886456  0.00074376  0.62649344  1
  V  V48  1  0.74410768  0.63196157  0.88491772  1
  V  V49  1  0.87824523  0.62277988  0.26171576  1
  V  V50  1  0.12919774  0.25465326  0.87603253  1
  V  V51  1  0.11931340  0.00945429  0.12746066  1
  V  V52  1  -0.01642989  0.49996642  0.49650496  1
  V  V53  1  -0.00651561  0.26461924  0.75887865  1
  V  V54  1  0.12661569  0.63552617  -0.00271969  1
  V  V55  1  0.37192666  -0.00087503  0.88540321  1
  V  V56  1  0.87441045  0.75035240  0.12441906  1
  V  V57  1  0.12705458  0.12737748  -0.00420060  1
  V  V58  1  0.24520610  0.87695495  0.62448820  1
  V  V59  1  0.00601768  0.62430548  0.63167857  1
  V  V60  1  0.25255905  0.62413667  0.87181730  1
  V  V61  1  0.13163459  0.75186082  0.38401048  1
  V  V62  1  0.36692448  0.74867282  0.62022836  1
  V  V63  1  0.73951777  0.74984773  0.49255584  1
  V  V64  1  0.87747129  0.74707751  0.62350797  1
  V  V65  1  0.24716053  0.37743867  0.11981736  1
  V  V66  1  0.39070172  0.37852364  -0.00510064  1
  V  V67  1  0.37450635  0.00602177  0.37081097  1
  V  V68  1  0.88100574  0.23700377  0.12250396  1
  V  V69  1  0.00394862  0.86057662  0.87294333  1
  V  V70  1  0.25350390  0.50411520  0.24613155  1
  V  V71  1  0.51314024  0.87309426  0.36620123  1
  V  V72  1  0.87192726  0.49429841  0.87252051  1
  V  V73  1  0.37033655  0.12395277  0.75436654  1
  V  V74  1  0.24066303  0.00187746  0.75125136  1
  V  V75  1  0.37013550  0.87083975  0.49772827  1
  V  V76  1  0.73814283  0.87375031  0.12731401  1
  V  V77  1  0.74243367  0.00221956  0.24792082  1
  V  V78  1  0.73718792  0.24947166  0.00130581  1
  Zn  Zn79  1  0.25558163  0.24755663  -0.00542427  1
  Zn  Zn80  1  0.14210454  0.12736685  0.51704029  1
  Zn  Zn81  1  0.00396083  0.12843763  0.62992369  1
  Zn  Zn82  1  0.75111014  0.50024948  0.74177230  1
  Zn  Zn83  1  0.24255492  0.38836160  0.61952774  1
  Zn  Zn84  1  0.87959001  0.12023176  0.24733290  1
  Zn  Zn85  1  0.87503449  0.63121429  0.75261104  1
  Zn  Zn86  1  0.62988417  0.74802160  0.90118576  1
  Zn  Zn87  1  0.87545589  -0.00141008  0.87513280  1
  Zn  Zn88  1  0.75389076  -0.00052126  0.75246809  1
  Zn  Zn89  1  0.00102481  0.74858629  0.25454685  1
  Zn  Zn90  1  0.37585389  0.49205338  0.87320822  1
  Zn  Zn91  1  0.26154428  0.13678878  0.38229491  1
  Zn  Zn92  1  0.00713312  0.23911375  0.24606330  1
  Zn  Zn93  1  0.63354671  0.24928755  0.37622889  1
  Zn  Zn94  1  0.18681708  0.19226812  0.19009271  1
  Zn  Zn95  1  0.18561882  0.19211119  0.69108900  1
  Zn  Zn96  1  0.18713809  0.68892645  0.18855141  1
  Zn  Zn97  1  0.18928324  0.56421684  0.68831352  1
  Zn  Zn98  1  0.69283284  0.18771272  0.18657229  1
  Zn  Zn99  1  0.69097275  0.19512497  0.68913062  1
  Zn  Zn100  1  0.68912732  0.68836457  0.18471790  1
  Zn  Zn101  1  0.69175517  0.68239415  0.69003707  1
  Zn  Zn102  1  0.31305363  0.31500936  0.30809156  1
  Zn  Zn103  1  0.31254761  0.31136359  0.81018694  1
  Zn  Zn104  1  0.31344480  0.81871008  0.31057302  1
  Zn  Zn105  1  0.31441725  0.81144913  0.81102688  1
  Zn  Zn106  1  0.81358005  0.31488433  0.30511742  1
  Zn  Zn107  1  0.80673188  0.31427673  0.81778576  1
  Zn  Zn108  1  0.81058188  0.81340404  0.30956271  1
  Zn  Zn109  1  0.81328602  0.80986791  0.81159050  1
  Zn  Zn110  1  0.18826775  0.43833706  0.43303698  1
  Zn  Zn111  1  0.18915599  0.43876346  0.93369425  1
  Zn  Zn112  1  0.18927344  0.94278050  0.43894431  1
  Zn  Zn113  1  0.18599521  0.93586780  0.93499462  1
  Zn  Zn114  1  0.69490415  0.43438971  0.42635236  1
  Zn  Zn115  1  0.68747619  0.43784789  0.94106631  1
  Zn  Zn116  1  0.69076480  0.94008310  0.43947575  1
  Zn  Zn117  1  0.68495943  0.94331294  0.94010386  1
  Zn  Zn118  1  0.30861997  0.06400672  0.06371536  1
  Zn  Zn119  1  0.31280801  0.05982488  0.56408485  1
  Zn  Zn120  1  0.31353261  0.56006894  0.05872958  1
  Zn  Zn121  1  0.31913676  0.56126341  0.55530551  1
  Zn  Zn122  1  0.80461191  0.05899181  0.06021511  1
  Zn  Zn123  1  0.82130437  0.06704714  0.56609798  1
  Zn  Zn124  1  0.81148847  0.56442842  0.06390900  1
  Zn  Zn125  1  0.80977211  0.56697435  0.56039095  1
  Zn  Zn126  1  0.43719807  0.43423281  0.18588692  1
  Zn  Zn127  1  0.44121122  0.43960219  0.67993552  1
  Zn  Zn128  1  0.44111689  0.93940552  0.18727665  1
  Zn  Zn129  1  0.43391129  0.94042274  0.68797430  1
  Zn  Zn130  1  0.93674057  0.43897364  0.18632067  1
  Zn  Zn131  1  0.94209287  0.43989268  0.68379183  1
  Zn  Zn132  1  0.93536843  0.93912949  0.19118023  1
  Zn  Zn133  1  0.94107361  0.93496079  0.69081483  1
  Zn  Zn134  1  0.05907056  0.06583186  0.31650360  1
  Zn  Zn135  1  0.05736152  0.06571622  0.81833664  1
  Zn  Zn136  1  0.06582543  0.56152874  0.31403804  1
  Zn  Zn137  1  0.05987739  0.56749932  0.82208322  1
  Zn  Zn138  1  0.56374302  0.06307226  0.31348946  1
  Zn  Zn139  1  0.55819827  0.06196798  0.81365686  1
  Zn  Zn140  1  0.55917198  0.55967592  0.30178344  1
  Zn  Zn141  1  0.56588867  0.56656053  0.80384181  1
  Zn  Zn142  1  0.44439985  0.18994009  0.43972895  1
  Zn  Zn143  1  0.43940543  0.18722731  0.94129094  1
  Zn  Zn144  1  0.44047412  0.69002804  0.43117437  1
  Zn  Zn145  1  0.45222499  0.69190201  0.94556997  1
  Zn  Zn146  1  0.94274511  0.18953215  0.43502342  1
  Zn  Zn147  1  0.93751005  0.18762927  0.93638861  1
  Zn  Zn148  1  0.93914368  0.69319343  0.44548936  1
  Zn  Zn149  1  0.93199410  0.68263426  0.93934587  1
  Zn  Zn150  1  0.06045912  0.31478819  0.06276548  1
  Zn  Zn151  1  0.05466656  0.31408055  0.56844956  1
  Zn  Zn152  1  0.06327011  0.81471361  0.06370091  1
  Zn  Zn153  1  0.06464190  0.81086938  0.56382690  1
  Zn  Zn154  1  0.55996517  0.31132495  0.06515501  1
  Zn  Zn155  1  0.56020226  0.31444430  0.56464689  1
  Zn  Zn156  1  0.55602831  0.80285650  0.06362893  1
  Zn  Zn157  1  0.56051235  0.81161036  0.55945905  1
  O  O158  1  0.12620365  0.11559059  0.11986663  1
  O  O159  1  0.11638322  0.13707955  0.62568306  1
  O  O160  1  0.11539764  0.62863780  0.11669950  1
  O  O161  1  0.11295383  0.62430349  0.61648090  1
  O  O162  1  0.61863726  0.12662025  0.12464554  1
  O  O163  1  0.62040064  0.11939013  0.62225004  1
  O  O164  1  0.62388596  0.61758516  0.12495916  1
  O  O165  1  0.61306452  0.61732687  0.62764980  1
  O  O166  1  0.38135899  0.37902072  0.37885413  1
  O  O167  1  0.36782069  0.37298389  0.88984310  1
  O  O168  1  0.37924516  0.88386377  0.38281094  1
  O  O169  1  0.38577614  0.88693318  0.86816526  1
  O  O170  1  0.89300259  0.37383589  0.36701114  1
  O  O171  1  0.87182365  0.38856019  0.88594509  1
  O  O172  1  0.88945825  0.87785426  0.37048525  1
  O  O173  1  0.88133771  0.87514438  0.88281962  1
  O  O174  1  0.25845522  0.00028772  0.36658899  1
  O  O175  1  0.26483516  -0.00892039  0.86632971  1
  O  O176  1  0.25887584  0.50807400  0.36650011  1
  O  O177  1  0.25700795  0.51838658  0.88403158  1
  O  O178  1  0.76461846  -0.01188643  0.36565168  1
  O  O179  1  0.75341833  0.01239342  0.87407185  1
  O  O180  1  0.74639982  0.51858076  0.36446765  1
  O  O181  1  0.76239314  0.50688136  0.87703260  1
  O  O182  1  0.25666804  0.48972627  0.13387490  1
  O  O183  1  0.25750508  0.50115466  0.62628088  1
  O  O184  1  0.24105369  0.99639227  0.13200580  1
  O  O185  1  0.25859802  0.98527094  0.63759542  1
  O  O186  1  0.74091858  0.51070992  0.13889708  1
  O  O187  1  0.73271785  0.50988680  0.62428064  1
  O  O188  1  0.75498439  0.98607563  0.13577427  1
  O  O189  1  0.74389462  0.99198715  0.62487434  1
  O  O190  1  0.00910989  0.38397789  0.25986388  1
  O  O191  1  0.00864111  0.36878369  0.75254381  1
  O  O192  1  0.01313004  0.87825227  0.26055984  1
  O  O193  1  0.01605015  0.87667960  0.75586382  1
  O  O194  1  0.50795041  0.36350953  0.25506593  1
  O  O195  1  0.50113278  0.36495754  0.75000822  1
  O  O196  1  0.49867084  0.87248717  0.26220782  1
  O  O197  1  0.51033919  0.87003573  0.74097708  1
  O  O198  1  0.50926359  0.13875525  0.24563281  1
  O  O199  1  0.49504677  0.13200123  0.74087535  1
  O  O200  1  0.49473225  0.64345466  0.25982973  1
  O  O201  1  0.49440140  0.63740105  0.74240572  1
  O  O202  1  0.99302800  0.12701729  0.25139532  1
  O  O203  1  0.99093260  0.13726871  0.75469387  1
  O  O204  1  0.99652444  0.62165646  0.24189828  1
  O  O205  1  1.00107552  0.61770361  0.73445548  1
  O  O206  1  0.37271425  0.25959533  0.00674715  1
  O  O207  1  0.38021433  0.25713196  0.50882804  1
  O  O208  1  0.36761681  0.74428655  0.01746789  1
  O  O209  1  0.38153414  0.76228066  0.50510401  1
  O  O210  1  0.87724245  0.25815044  0.00749068  1
  O  O211  1  0.88836837  0.24784651  0.51622564  1
  O  O212  1  0.88120976  0.75970120  0.01175489  1
  O  O213  1  0.86176379  0.74588684  0.51356675  1
  O  O214  1  0.11960643  0.25726051  0.48797626  1
  O  O215  1  0.11836847  0.24710456  0.98882571  1
  O  O216  1  0.12330311  0.73925464  0.48951585  1
  O  O217  1  0.13808284  0.74284663  1.00734811  1
  O  O218  1  0.62142969  0.23661701  0.50427665  1
  O  O219  1  0.63877681  0.25526779  1.00352140  1
  O  O220  1  0.63983456  0.74901841  0.50370098  1
  O  O221  1  0.56005380  0.72386149  0.98516525  1
  O  O222  1  0.49470104  0.24053288  0.13217707  1
  O  O223  1  0.49152412  0.24217910  0.63294867  1
  O  O224  1  0.48068258  0.75996757  0.14039187  1
  O  O225  1  0.49351028  0.74285544  0.62890857  1
  O  O226  1  0.98506995  0.25695556  0.12745309  1
  O  O227  1  0.98868712  0.25248454  0.64368047  1
  O  O228  1  0.99430119  0.74191353  0.12855432  1
  O  O229  1  0.99294870  0.73305628  0.61248383  1
  O  O230  1  0.00948192  0.26625309  0.37230204  1
  O  O231  1  0.00625848  0.25274864  0.86533042  1
  O  O232  1  0.01142689  0.75847720  0.37664203  1
  O  O233  1  -0.00516488  0.76084288  0.87991260  1
  O  O234  1  0.50311264  0.25784091  0.36655700  1
  O  O235  1  0.49835885  0.24371858  0.85850638  1
  O  O236  1  0.49419146  0.76474679  0.36317244  1
  O  O237  1  0.48699760  0.77023868  0.85530424  1
  O  O238  1  0.25176349  0.11903567  0.49398286  1
  O  O239  1  0.23255495  0.13005418  1.00375517  1
  O  O240  1  0.24407824  0.62191956  0.48508994  1
  O  O241  1  0.24462291  0.63390979  0.99674539  1
  O  O242  1  0.73805435  0.12137672  0.50680485  1
  O  O243  1  0.75213337  0.13298362  0.98735546  1
  O  O244  1  0.75111561  0.63413431  0.48319706  1
  O  O245  1  0.75501709  0.62471782  0.98535852  1
  O  O246  1  0.24651421  0.37175394  0.01054342  1
  O  O247  1  0.26344775  0.37724489  0.49816111  1
  O  O248  1  0.24134834  0.86561878  0.01027710  1
  O  O249  1  0.25958228  0.88252358  0.50971191  1
  O  O250  1  0.75943208  0.35803825  -0.00935780  1
  O  O251  1  0.75575058  0.33927258  0.45677505  1
  O  O252  1  0.76371175  0.88274506  0.01197052  1
  O  O253  1  0.74722722  0.86322400  0.50756050  1
  O  O254  1  0.13870230  0.48969915  0.25781771  1
  O  O255  1  0.12049651  0.49181469  0.75652123  1
  O  O256  1  0.13088115  0.99558311  0.24663982  1
  O  O257  1  0.14004487  1.00931888  0.75875557  1
  O  O258  1  0.63194602  0.49508290  0.24027355  1
  O  O259  1  0.62040233  0.48763433  0.74144534  1
  O  O260  1  0.64349565  1.00051403  0.26024087  1
  O  O261  1  0.62466473  0.99225951  0.73912530  1
  O  O262  1  0.36350695  -0.00709417  0.25986581  1
  O  O263  1  0.36712990  0.00772554  0.75483683  1
  O  O264  1  0.36328455  0.48957860  0.26044401  1
  O  O265  1  0.39127666  0.51379570  0.75570364  1
  O  O266  1  0.87030245  -0.00149357  0.26393423  1
  O  O267  1  0.87496883  0.01092291  0.75113226  1
  O  O268  1  0.86559790  0.51214050  0.24236071  1
  O  O269  1  0.87805956  0.49585745  0.76557955  1
  O  O270  1  0.12094602  0.36828467  0.36704801  1
  O  O271  1  0.12474531  0.36588468  0.86729780  1
  O  O272  1  0.12321468  0.87000578  0.37036682  1
  O  O273  1  0.11980723  0.87407034  0.86257421  1
  O  O274  1  0.61400545  0.37673295  0.36311279  1
  O  O275  1  0.61990171  0.38413681  0.86252539  1
  O  O276  1  0.61138614  0.87894703  0.38036394  1
  O  O277  1  0.61278018  0.87230540  0.86586259  1
  O  O278  1  0.37488423  0.13927404  0.12020935  1
  O  O279  1  0.38412000  0.13025350  0.63217365  1
  O  O280  1  0.37087729  0.63240083  0.12994000  1
  O  O281  1  0.38617996  0.63093255  0.62838467  1
  O  O282  1  0.87743481  0.13494226  0.11566849  1
  O  O283  1  0.87942683  0.13532763  0.64046985  1
  O  O284  1  0.88299176  0.63432873  0.13062414  1
  O  O285  1  0.88622218  0.62819360  0.62600416  1
  O  O286  1  0.25806239  0.26019801  0.12681067  1
  O  O287  1  0.26597492  0.25893937  0.63607326  1
  O  O288  1  0.25926783  0.75656866  0.12258563  1
  O  O289  1  0.26509472  0.76245974  0.62626602  1
  O  O290  1  0.76249553  0.24320263  0.10710758  1
  O  O291  1  0.76783779  0.24968578  0.62859188  1
  O  O292  1  0.76264944  0.76236757  0.13122761  1
  O  O293  1  0.75366436  0.75329514  0.61490833  1
  O  O294  1  0.23742536  0.25359230  0.36961977  1
  O  O295  1  0.23380056  0.25061380  0.87430196  1
  O  O296  1  0.24308709  0.74306661  0.36782566  1
  O  O297  1  0.26052342  0.74319508  0.88815564  1
  O  O298  1  0.75059355  0.27948354  0.39965863  1
  O  O299  1  0.75376842  0.23744446  0.88662417  1
  O  O300  1  0.75266634  0.74404471  0.38418908  1
  O  O301  1  0.74519141  0.74005149  0.87430661  1
  O  O302  1  0.00875413  0.11200270  -0.00526662  1
  O  O303  1  0.00142446  0.11153782  0.50059552  1
  O  O304  1  0.00757921  0.62188643  0.00656110  1
  O  O305  1  0.00779171  0.61359823  0.50099436  1
  O  O306  1  0.50321763  0.13054301  0.01346473  1
  O  O307  1  0.50714317  0.11931783  0.51248618  1
  O  O308  1  0.49710351  0.57533179  -0.04067238  1
  O  O309  1  0.50133242  0.63355396  0.51060334  1
  O  O310  1  0.49211272  0.36902736  0.48455636  1
  O  O311  1  0.48985577  0.37136620  0.99873714  1
  O  O312  1  0.49304519  0.87853588  0.49008789  1
  O  O313  1  0.49897309  0.87878573  0.98631273  1
  O  O314  1  1.00472159  0.39031388  0.48984513  1
  O  O315  1  0.99373271  0.39189679  1.00352577  1
  O  O316  1  1.00976181  0.88591954  0.49170961  1
  O  O317  1  0.99627015  0.88085333  0.99308144  1
  O  O318  1  0.49025216  0.48892654  0.36137195  1
  O  O319  1  0.49512812  0.52783499  0.89616507  1
  O  O320  1  0.49433883  0.98968983  0.37671728  1
  O  O321  1  0.48899158  0.98862933  0.86738467  1
  O  O322  1  1.00413390  0.49182832  0.38446706  1
  O  O323  1  0.98402624  0.51183029  0.89143298  1
  O  O324  1  0.99060537  0.99426002  0.38465691  1
  O  O325  1  0.99966375  0.98854015  0.88643952  1
  O  O326  1  0.01127936  -0.01046321  0.11527238  1
  O  O327  1  -0.00763420  -0.00181345  0.60892468  1
  O  O328  1  -0.00837786  0.51261855  0.11000190  1
  O  O329  1  -0.00407088  0.51176113  0.60903185  1
  O  O330  1  0.49427686  0.02059470  0.13411370  1
  O  O331  1  0.50813265  0.00775552  0.62207632  1
  O  O332  1  0.51249840  0.50122663  0.13452397  1
  O  O333  1  0.50824796  0.51469526  0.62047020  1
  O  O334  1  0.24401168  0.38280934  0.24113036  1
  O  O335  1  0.23556401  0.37638011  0.75221860  1
  O  O336  1  0.23975822  0.88530876  0.24385414  1
  O  O337  1  0.23840946  0.87840890  0.74720501  1
  O  O338  1  0.74122415  0.39059304  0.25872311  1
  O  O339  1  0.73351940  0.37717927  0.75398182  1
  O  O340  1  0.75269969  0.88204391  0.23604408  1
  O  O341  1  0.73845857  0.87453693  0.74148853  1
  O  O342  1  0.24520765  0.11480357  0.25584689  1
  O  O343  1  0.26386730  0.11999594  0.74493970  1
  O  O344  1  0.24269649  0.61535473  0.25948467  1
  O  O345  1  0.26031061  0.62639934  0.75943264  1
  O  O346  1  0.75892525  0.10727129  0.24140450  1
  O  O347  1  0.75776950  0.12893732  0.76209850  1
  O  O348  1  0.75713557  0.62572351  0.26164752  1
  O  O349  1  0.75573919  0.61808072  0.76052914  1
  O  O350  1  0.38271408  0.10994378  0.38033917  1
  O  O351  1  0.38563057  0.11147146  0.86477684  1
  O  O352  1  0.36740350  0.61677014  0.38032803  1
  O  O353  1  0.37033713  0.63223695  0.86484409  1
  O  O354  1  0.87419892  0.11253417  0.37625547  1
  O  O355  1  0.86939604  0.12348214  0.86661095  1
  O  O356  1  0.87938120  0.63338998  0.36288668  1
  O  O357  1  0.86646254  0.61660504  0.87257917  1
  O  O358  1  0.13333015  0.36988089  0.13477619  1
  O  O359  1  0.12470100  0.36957844  0.64460235  1
  O  O360  1  0.13225848  0.88330129  0.13476692  1
  O  O361  1  0.13449496  0.86552916  0.63897830  1
  O  O362  1  0.62225316  0.37793448  0.13841435  1
  O  O363  1  0.61473419  0.39067166  0.63046433  1
  O  O364  1  0.64019171  0.86409420  0.11325472  1
  O  O365  1  0.63238851  0.88233403  0.62758903  1
  O  O366  1  0.12324897  0.26364871  0.25777579  1
  O  O367  1  0.11457652  0.25823118  0.76232527  1
  O  O368  1  0.12437509  0.76051137  0.25924310  1
  O  O369  1  0.12553130  0.75360813  0.75548343  1
  O  O370  1  0.62542941  0.25724405  0.25418360  1
  O  O371  1  0.61174978  0.26442517  0.74156519  1
  O  O372  1  0.60843372  0.75143636  0.24000314  1
  O  O373  1  0.61558000  0.75849870  0.74442944  1
  O  O374  1  0.38692816  0.25787776  0.24009998  1
  O  O375  1  0.38516682  0.24456276  0.74435752  1
  O  O376  1  0.37282306  0.75172259  0.23924268  1
  O  O377  1  0.38151818  0.74449403  0.73763412  1
  O  O378  1  0.86606127  0.24701107  0.23060690  1
  O  O379  1  0.88430497  0.25071777  0.75489293  1
  O  O380  1  0.87996590  0.74251158  0.24183515  1
  O  O381  1  0.87123423  0.74949110  0.73125751  1
  O  O382  1  0.37730528  0.48938046  0.48308686  1
  O  O383  1  0.37317988  0.48212538  1.00082353  1
  O  O384  1  0.38302118  0.98961261  0.49421885  1
  O  O385  1  0.36846637  1.00539563  0.98445743  1
  O  O386  1  0.88453771  0.50503691  0.49450915  1
  O  O387  1  0.87890144  0.49433706  0.99505044  1
  O  O388  1  0.88122561  1.00057356  0.48797708  1
  O  O389  1  0.88498614  0.99002521  1.00305954  1
  O  O390  1  0.12064527  0.00638271  0.00644239  1
  O  O391  1  0.11253508  0.00585619  0.49534395  1
  O  O392  1  0.11041902  0.50795047  -0.00590339  1
  O  O393  1  0.12114807  0.51168267  0.49401095  1
  O  O394  1  0.61198088  -0.00651061  0.00557591  1
  O  O395  1  0.62189757  0.00841687  0.50974142  1
  O  O396  1  0.63106558  0.49093136  0.02131865  1
  O  O397  1  0.63104577  0.48978661  0.50651541  1
  O  O398  1  0.36902649  0.36650898  0.11375205  1
  O  O399  1  0.37997187  0.36869245  0.61295786  1
  O  O400  1  0.35967551  0.87838935  0.12869783  1
  O  O401  1  0.37113734  0.86930632  0.61766495  1
  O  O402  1  0.87357345  0.37083346  0.11403679  1
  O  O403  1  0.87677527  0.36696064  0.62745707  1
  O  O404  1  0.87606172  0.86663635  0.11918254  1
  O  O405  1  0.86289772  0.86892418  0.63077357  1
  O  O406  1  0.12244976  0.14549398  0.37626757  1
  O  O407  1  0.11970385  0.14083139  0.88337055  1
  O  O408  1  0.13339133  0.63292819  0.37997417  1
  O  O409  1  0.13491947  0.62591021  0.88718632  1
  O  O410  1  0.62324622  0.12603612  0.39301472  1
  O  O411  1  0.63713398  0.12352232  0.86765651  1
  O  O412  1  0.63166941  0.62790864  0.36864982  1
  O  O413  1  0.64102491  0.62291987  0.86932221  1
