# generated using pymatgen
data_V79Zn79O256
_symmetry_space_group_name_H-M   'P 1'
_cell_length_a   16.89621461
_cell_length_b   16.88445493
_cell_length_c   16.89799028
_cell_angle_alpha   89.91973570
_cell_angle_beta   90.21084301
_cell_angle_gamma   90.04641321
_symmetry_Int_Tables_number   1
_chemical_formula_structural   V79Zn79O256
_chemical_formula_sum   'V79 Zn79 O256'
_cell_volume   4820.67674900
_cell_formula_units_Z   1
loop_
 _symmetry_equiv_pos_site_id
 _symmetry_equiv_pos_as_xyz
  1  'x, y, z'
loop_
 _atom_site_type_symbol
 _atom_site_label
 _atom_site_symmetry_multiplicity
 _atom_site_fract_x
 _atom_site_fract_y
 _atom_site_fract_z
 _atom_site_occupancy
  V  V0  1  0.37884260  0.37784787  0.00164728  1
  V  V1  1  0.37991231  0.61941777  0.25737179  1
  V  V2  1  0.87300337  0.12463650  0.74821851  1
  V  V3  1  0.36979245  0.00092662  0.87257993  1
  V  V4  1  -0.00131096  0.38500280  0.87338928  1
  V  V5  1  0.37971255  0.24744580  0.13898143  1
  V  V6  1  0.61965438  0.49775662  0.12122018  1
  V  V7  1  0.00985063  0.50265215  0.01514776  1
  V  V8  1  0.75551817  0.86189246  0.11583100  1
  V  V9  1  0.74375471  0.48530642  0.75494604  1
  V  V10  1  0.61291032  0.51325400  0.61400529  1
  V  V11  1  0.50017321  0.37631854  0.87551264  1
  V  V12  1  0.12300984  0.74580590  0.37843037  1
  V  V13  1  0.75167292  0.24887555  -0.00097687  1
  V  V14  1  0.37813291  0.50102547  0.87840985  1
  V  V15  1  0.74886327  0.37288266  0.12484213  1
  V  V16  1  0.61988818  0.62213511  -0.00258052  1
  V  V17  1  0.74331301  0.62611247  0.37486193  1
  V  V18  1  0.37910508  0.75497368  0.62510370  1
  V  V19  1  0.50065052  0.25363264  0.74876214  1
  V  V20  1  0.11370368  0.75634513  0.86810618  1
  V  V21  1  0.87661272  0.87547864  0.51848497  1
  V  V22  1  0.00451311  0.12882826  0.11778181  1
  V  V23  1  0.12322887  0.00595325  0.11577384  1
  V  V24  1  0.36669311  0.87051349  0.01035170  1
  V  V25  1  0.74304935  0.00059539  0.72931371  1
  V  V26  1  0.74943456  0.50058965  0.24826245  1
  V  V27  1  0.24657752  0.24654917  0.49904586  1
  V  V28  1  0.50269384  0.87491139  0.87730677  1
  V  V29  1  0.26405008  0.12610044  0.37286795  1
  V  V30  1  0.62292953  0.12457432  0.00359466  1
  V  V31  1  0.24259563  0.50130436  0.74856455  1
  V  V32  1  0.49989863  0.62356828  0.12523973  1
  V  V33  1  0.36943454  0.12291248  0.75092601  1
  V  V34  1  0.74842091  0.13912772  0.37719148  1
  V  V35  1  0.50239324  0.11535949  0.61652194  1
  V  V36  1  0.50760678  0.76503678  0.25005696  1
  V  V37  1  -0.01141909  -0.00215811  -0.01294310  1
  V  V38  1  0.24322361  0.12772106  0.88080674  1
  V  V39  1  0.24499101  0.24799399  0.00109655  1
  V  V40  1  0.24997758  0.63431846  0.88106960  1
  V  V41  1  0.38041161  -0.02347727  0.37475849  1
  V  V42  1  0.25758375  0.76422954  0.49320791  1
  V  V43  1  0.86924446  0.25856119  0.61632007  1
  V  V44  1  -0.00165541  0.74548927  0.23561318  1
  V  V45  1  0.24659633  0.88550659  0.64053305  1
  V  V46  1  0.12380509  0.87890511  0.24138645  1
  V  V47  1  0.87976749  0.62633716  0.23649908  1
  V  V48  1  0.75598284  0.75029026  0.51222351  1
  V  V49  1  0.49830823  0.37517755  0.38186622  1
  V  V50  1  0.74812794  -0.00760687  0.25130044  1
  V  V51  1  0.88076625  0.25038195  0.12890568  1
  V  V52  1  0.24976982  0.38182898  0.12542819  1
  V  V53  1  0.50000535  0.12976672  0.14631135  1
  V  V54  1  0.25118252  0.49969731  0.26111233  1
  V  V55  1  0.62358513  0.25262231  0.87080172  1
  V  V56  1  0.61805386  0.36065406  0.25623079  1
  V  V57  1  0.62416344  0.87871901  0.73312663  1
  V  V58  1  0.37881632  0.62750255  0.74768142  1
  V  V59  1  0.73804005  0.37101638  0.60317598  1
  V  V60  1  -0.00241784  0.36998163  0.38086449  1
  V  V61  1  -0.00286556  0.88146173  0.38135854  1
  V  V62  1  0.11010510  0.11197277  0.49895209  1
  V  V63  1  0.87974636  0.50106872  0.38248472  1
  V  V64  1  0.37227499  0.24949918  0.62123924  1
  V  V65  1  0.87370717  0.62894449  0.73805113  1
  V  V66  1  0.25274254  0.00608812  0.24202316  1
  V  V67  1  -0.00435313  0.24977811  0.74986136  1
  V  V68  1  0.74953855  0.11365185  0.87502831  1
  V  V69  1  0.11680387  0.37412033  0.24536600  1
  V  V70  1  0.88304109  0.12336586  0.24861305  1
  V  V71  1  0.63239378  0.77192181  0.36658514  1
  V  V72  1  0.75809003  0.62124823  0.87663140  1
  V  V73  1  0.37726794  0.39278459  0.49829201  1
  V  V74  1  0.87595543  0.38322194  -0.00389860  1
  V  V75  1  0.12895031  0.62738059  0.01426892  1
  V  V76  1  0.50183701  0.00343500  0.00199646  1
  V  V77  1  0.24272331  0.38003853  0.62568574  1
  V  V78  1  0.62767576  0.74962475  0.88164014  1
  Zn  Zn79  1  0.11651860  0.37969606  0.74503992  1
  Zn  Zn80  1  0.88269977  0.85058548  0.00580872  1
  Zn  Zn81  1  -0.00076858  0.62137389  0.62734262  1
  Zn  Zn82  1  0.25507786  0.61580459  0.38672452  1
  Zn  Zn83  1  0.12753546  0.61906297  0.51607841  1
  Zn  Zn84  1  0.12052522  0.25004230  0.87670417  1
  Zn  Zn85  1  0.62150826  -0.00882250  0.13841990  1
  Zn  Zn86  1  0.11895762  0.24302402  0.36835587  1
  Zn  Zn87  1  0.50536803  0.74363379  0.74836339  1
  Zn  Zn88  1  0.35675760  0.74853551  0.12252997  1
  Zn  Zn89  1  0.50928493  -0.03834861  0.50730463  1
  Zn  Zn90  1  0.62935964  0.12424354  0.49659481  1
  Zn  Zn91  1  0.88024946  0.00410236  0.38422569  1
  Zn  Zn92  1  0.01407863  0.49732938  0.51462246  1
  Zn  Zn93  1  0.11415701  -0.00557323  0.63197104  1
  Zn  Zn94  1  0.18851025  0.19113832  0.18675835  1
  Zn  Zn95  1  0.16227642  0.15723797  0.70351956  1
  Zn  Zn96  1  0.18869878  0.68835099  0.19254321  1
  Zn  Zn97  1  0.18996892  0.69722623  0.68850630  1
  Zn  Zn98  1  0.69221430  0.18060215  0.18989331  1
  Zn  Zn99  1  0.68457696  0.18850178  0.68126239  1
  Zn  Zn100  1  0.68869760  0.68681927  0.18675867  1
  Zn  Zn101  1  0.68588949  0.68518613  0.69276065  1
  Zn  Zn102  1  0.31281173  0.31623900  0.31761247  1
  Zn  Zn103  1  0.31103560  0.31170806  0.81074104  1
  Zn  Zn104  1  0.30464116  0.80588529  0.28708094  1
  Zn  Zn105  1  0.30907932  0.81471922  0.81437271  1
  Zn  Zn106  1  0.81452103  0.31558444  0.31101140  1
  Zn  Zn107  1  0.81375218  0.30906310  0.81510089  1
  Zn  Zn108  1  0.81758560  0.81269470  0.30683949  1
  Zn  Zn109  1  0.79985024  0.80624500  0.80278446  1
  Zn  Zn110  1  0.18555738  0.43212263  0.43786806  1
  Zn  Zn111  1  0.18642070  0.43778925  0.93420701  1
  Zn  Zn112  1  0.18703477  0.94125446  0.43314402  1
  Zn  Zn113  1  0.18626129  0.93796707  0.93588306  1
  Zn  Zn114  1  0.68194646  0.44110779  0.43504073  1
  Zn  Zn115  1  0.68515522  0.43752815  0.93881257  1
  Zn  Zn116  1  0.69453799  0.94429739  0.44653107  1
  Zn  Zn117  1  0.69015906  0.93385757  0.94330829  1
  Zn  Zn118  1  0.31854871  0.06513017  0.06391418  1
  Zn  Zn119  1  0.32236899  0.05650253  0.55088320  1
  Zn  Zn120  1  0.31393028  0.56240789  0.06572806  1
  Zn  Zn121  1  0.30623907  0.57165256  0.56498844  1
  Zn  Zn122  1  0.81407440  0.05694075  0.06443108  1
  Zn  Zn123  1  0.82090281  0.06482828  0.56130529  1
  Zn  Zn124  1  0.81109796  0.56510059  0.05703987  1
  Zn  Zn125  1  0.80243823  0.55866289  0.56323973  1
  Zn  Zn126  1  0.43769436  0.43640669  0.19169951  1
  Zn  Zn127  1  0.43543174  0.44029815  0.68795472  1
  Zn  Zn128  1  0.43999711  0.94624958  0.19118132  1
  Zn  Zn129  1  0.43493821  0.93553092  0.68772802  1
  Zn  Zn130  1  0.93506611  0.44003741  0.18699295  1
  Zn  Zn131  1  0.92578698  0.44226222  0.68693569  1
  Zn  Zn132  1  0.93778377  0.93832171  0.18405316  1
  Zn  Zn133  1  0.92758243  0.92383474  0.70810561  1
  Zn  Zn134  1  0.06644134  0.06667877  0.31080680  1
  Zn  Zn135  1  0.05358615  0.03810499  0.78864618  1
  Zn  Zn136  1  0.06533816  0.56023804  0.31207403  1
  Zn  Zn137  1  0.06032697  0.57029086  0.81740004  1
  Zn  Zn138  1  0.57691625  0.04216304  0.34397563  1
  Zn  Zn139  1  0.56046494  0.06351511  0.80922715  1
  Zn  Zn140  1  0.55907202  0.55711243  0.31632100  1
  Zn  Zn141  1  0.56547902  0.55713153  0.80442963  1
  Zn  Zn142  1  0.44077229  0.19379352  0.43044735  1
  Zn  Zn143  1  0.43283481  0.19071539  0.94255924  1
  Zn  Zn144  1  0.44186034  0.69277089  0.43085890  1
  Zn  Zn145  1  0.43824989  0.68945987  0.93960929  1
  Zn  Zn146  1  0.93100914  0.19116973  0.43442356  1
  Zn  Zn147  1  0.93686233  0.18711276  0.93496172  1
  Zn  Zn148  1  0.93733441  0.68607135  0.44197386  1
  Zn  Zn149  1  0.94334596  0.68505738  0.93884688  1
  Zn  Zn150  1  0.06311607  0.31559614  0.06266224  1
  Zn  Zn151  1  0.06007622  0.30518773  0.56277178  1
  Zn  Zn152  1  0.06713044  0.81714187  0.05189664  1
  Zn  Zn153  1  0.06558077  0.81018411  0.56917324  1
  Zn  Zn154  1  0.56120921  0.30960873  0.06368256  1
  Zn  Zn155  1  0.56406388  0.30818300  0.55801589  1
  Zn  Zn156  1  0.56843914  0.81233239  0.06667308  1
  Zn  Zn157  1  0.55108367  0.75850400  0.53707837  1
  O  O158  1  0.11465730  0.12075046  0.13004410  1
  O  O159  1  0.12329971  0.13803748  0.59632494  1
  O  O160  1  0.13384368  0.62680275  0.11401915  1
  O  O161  1  0.11761574  0.63713272  0.62907214  1
  O  O162  1  0.61810849  0.12846939  0.11349130  1
  O  O163  1  0.60482863  0.12377494  0.62746055  1
  O  O164  1  0.62160448  0.61661008  0.11790744  1
  O  O165  1  0.62679551  0.61398914  0.62778206  1
  O  O166  1  0.38072893  0.37691981  0.39027243  1
  O  O167  1  0.37955514  0.38069394  0.88190507  1
  O  O168  1  0.36435027  0.87866011  0.36034090  1
  O  O169  1  0.38393655  0.88128232  0.88303670  1
  O  O170  1  0.88759768  0.38846706  0.36330818  1
  O  O171  1  0.88181481  0.36955485  0.88919367  1
  O  O172  1  0.89126228  0.87511492  0.37321881  1
  O  O173  1  0.88077834  0.86902180  0.86370597  1
  O  O174  1  0.26045388  0.00769611  0.36827427  1
  O  O175  1  0.26367404  0.01031602  0.88600550  1
  O  O176  1  0.25545424  0.49587553  0.36388849  1
  O  O177  1  0.26171435  0.50480145  0.86918826  1
  O  O178  1  0.76050699  0.00288083  0.36088140  1
  O  O179  1  0.74016059  0.01175644  0.87180204  1
  O  O180  1  0.75912375  0.50313755  0.36568627  1
  O  O181  1  0.73498365  0.50988335  0.86469014  1
  O  O182  1  0.25570539  0.48619240  0.13337099  1
  O  O183  1  0.25757119  0.49154833  0.63589791  1
  O  O184  1  0.24167236  1.01226936  0.13551133  1
  O  O185  1  0.26361811  0.98420377  0.61641845  1
  O  O186  1  0.74204567  0.49432966  0.13037890  1
  O  O187  1  0.74131625  0.48444719  0.63115656  1
  O  O188  1  0.74694395  1.00232835  0.13875261  1
  O  O189  1  0.73980895  1.00765746  0.63070325  1
  O  O190  1  0.01299957  0.38269331  0.25259508  1
  O  O191  1  -0.00702525  0.37050688  0.75889735  1
  O  O192  1  0.00426268  0.86475745  0.25763397  1
  O  O193  1  -0.05540600  0.87692583  0.81895560  1
  O  O194  1  0.51306515  0.37427773  0.25417720  1
  O  O195  1  0.48983495  0.36270827  0.76186636  1
  O  O196  1  0.50523321  0.86334529  0.23744089  1
  O  O197  1  0.51102108  0.87951194  0.76217786  1
  O  O198  1  0.51344437  0.11942808  0.24196569  1
  O  O199  1  0.48959924  0.13281891  0.74197019  1
  O  O200  1  0.49563607  0.62236377  0.24287969  1
  O  O201  1  0.48375986  0.62627216  0.75894086  1
  O  O202  1  0.99176298  0.12191082  0.23826364  1
  O  O203  1  0.98186809  0.13843739  0.76091572  1
  O  O204  1  0.99703857  0.63686810  0.25246977  1
  O  O205  1  0.97438248  0.61105469  0.75548410  1
  O  O206  1  0.36659145  0.26196166  0.00793535  1
  O  O207  1  0.36597595  0.25455604  0.50764487  1
  O  O208  1  0.38119791  0.76419514  0.00661293  1
  O  O209  1  0.36369132  0.74737838  0.51054179  1
  O  O210  1  0.87037184  0.25890253  0.00837230  1
  O  O211  1  0.87705189  0.24643826  0.51798156  1
  O  O212  1  0.86877640  0.74116742  -0.00684231  1
  O  O213  1  0.86562294  0.76252970  0.49255129  1
  O  O214  1  0.13648927  0.24990024  0.49137810  1
  O  O215  1  0.14089254  0.25708906  1.00094323  1
  O  O216  1  0.13477699  0.75471689  0.48501927  1
  O  O217  1  0.11937746  0.73120666  0.99514266  1
  O  O218  1  0.62809375  0.23615460  0.50575175  1
  O  O219  1  0.62916447  0.24224345  0.99241562  1
  O  O220  1  0.65104671  0.75521846  0.47646164  1
  O  O221  1  0.62066414  0.73703409  0.99142468  1
  O  O222  1  0.49136570  0.24163966  0.12137916  1
  O  O223  1  0.48933403  0.24583455  0.63250261  1
  O  O224  1  0.51115804  0.73647518  0.13693554  1
  O  O225  1  0.48205474  0.75591044  0.63271400  1
  O  O226  1  0.99072965  0.24418347  0.11717810  1
  O  O227  1  0.98134464  0.26337840  0.63684799  1
  O  O228  1  1.00766944  0.75489294  0.13806358  1
  O  O229  1  1.01577616  0.73576200  0.63369269  1
  O  O230  1  -0.00458180  0.26681493  0.37181823  1
  O  O231  1  -0.00173879  0.26120761  0.86908072  1
  O  O232  1  0.01199659  0.75765431  0.37151939  1
  O  O233  1  0.01443236  0.73721958  0.86896012  1
  O  O234  1  0.49526111  0.27143483  0.37150902  1
  O  O235  1  0.50336459  0.25434390  0.86906789  1
  O  O236  1  0.52091138  0.75239986  0.36026572  1
  O  O237  1  0.50690902  0.75981173  0.87273052  1
  O  O238  1  0.24961898  0.13177612  0.49147676  1
  O  O239  1  0.26136411  0.13736589  0.99363617  1
  O  O240  1  0.24502287  0.64282557  0.49859337  1
  O  O241  1  0.23830445  0.61367315  0.99431977  1
  O  O242  1  0.75404493  0.11143285  0.47931497  1
  O  O243  1  0.74169844  0.12754913  0.99478702  1
  O  O244  1  0.76517766  0.64137154  0.48597103  1
  O  O245  1  0.73553339  0.61398576  0.98501721  1
  O  O246  1  0.25803028  0.37115475  0.00708010  1
  O  O247  1  0.26034810  0.36878286  0.50450655  1
  O  O248  1  0.26851534  0.88204389  0.00047964  1
  O  O249  1  0.25094675  0.86600559  0.49790973  1
  O  O250  1  0.75709240  0.37172766  0.00378867  1
  O  O251  1  0.74838429  0.37486950  0.50470432  1
  O  O252  1  0.76247746  0.87951565  0.00952610  1
  O  O253  1  0.76574065  0.86607517  0.49787305  1
  O  O254  1  0.14008208  0.48964963  0.25350761  1
  O  O255  1  0.13974403  0.50208659  0.75941779  1
  O  O256  1  0.12632861  0.99717154  0.23792908  1
  O  O257  1  0.14923300  1.04659170  0.73026679  1
  O  O258  1  0.63544549  0.49351675  0.24087403  1
  O  O259  1  0.63705965  0.50129701  0.73653330  1
  O  O260  1  0.64404799  1.00348689  0.25474266  1
  O  O261  1  0.63035846  0.99031024  0.75202355  1
  O  O262  1  0.35539947  -0.00149591  0.24942560  1
  O  O263  1  0.38237893  0.00938579  0.76304544  1
  O  O264  1  0.36474933  0.50641056  0.24672862  1
  O  O265  1  0.36725021  0.50712531  0.75885953  1
  O  O266  1  0.87025806  0.01132230  0.24800143  1
  O  O267  1  0.85088256  0.00969730  0.74408535  1
  O  O268  1  0.86487822  0.50483324  0.25259026  1
  O  O269  1  0.84884426  0.50802622  0.74804682  1
  O  O270  1  0.11229809  0.37504283  0.36302624  1
  O  O271  1  0.11495186  0.37136004  0.86940172  1
  O  O272  1  0.11475428  0.86990977  0.36683523  1
  O  O273  1  0.12604651  0.85524204  0.89301445  1
  O  O274  1  0.61826017  0.37502028  0.36347137  1
  O  O275  1  0.61344833  0.36274805  0.88438999  1
  O  O276  1  0.63933204  0.86938247  0.36521173  1
  O  O277  1  0.61830786  0.86633451  0.87927275  1
  O  O278  1  0.38701776  0.13508644  0.12444975  1
  O  O279  1  0.37838065  0.13195946  0.63151194  1
  O  O280  1  0.38370266  0.62768691  0.13244033  1
  O  O281  1  0.36362670  0.64132207  0.63748153  1
  O  O282  1  0.88262528  0.13269770  0.12891366  1
  O  O283  1  0.86123324  0.14185698  0.63815630  1
  O  O284  1  0.87094393  0.61944702  0.13695471  1
  O  O285  1  0.86694315  0.62096129  0.63528368  1
  O  O286  1  0.25875310  0.25880046  0.11990896  1
  O  O287  1  0.26034720  0.25875762  0.61741581  1
  O  O288  1  0.26488266  0.76760829  0.18248061  1
  O  O289  1  0.25488838  0.76540025  0.61334890  1
  O  O290  1  0.75829777  0.25289571  0.11774018  1
  O  O291  1  0.75440996  0.26262542  0.63029705  1
  O  O292  1  0.75016376  0.76224297  0.12892999  1
  O  O293  1  0.74458703  0.74476638  0.61003863  1
  O  O294  1  0.25213771  0.24408412  0.38379689  1
  O  O295  1  0.25334470  0.24565386  0.88526789  1
  O  O296  1  0.24113159  0.75523044  0.38056385  1
  O  O297  1  0.25299379  0.73718964  0.88082374  1
  O  O298  1  0.76630134  0.23839228  0.37632546  1
  O  O299  1  0.73872322  0.24272409  0.87892975  1
  O  O300  1  0.74328749  0.74266109  0.36174124  1
  O  O301  1  0.73630132  0.73332269  0.87017193  1
  O  O302  1  -0.00487893  0.11824414  0.01006563  1
  O  O303  1  0.01134316  0.12402821  0.48265104  1
  O  O304  1  0.01248535  0.60869770  -0.00281746  1
  O  O305  1  0.00408556  0.61982215  0.50296149  1
  O  O306  1  0.50675343  0.11826968  -0.00082891  1
  O  O307  1  0.49073830  0.13198552  0.51592117  1
  O  O308  1  0.50748907  0.62643845  0.01163334  1
  O  O309  1  0.51564327  0.65596085  0.50372963  1
  O  O310  1  0.48701054  0.37396527  0.49478066  1
  O  O311  1  0.48939140  0.36777706  0.98917590  1
  O  O312  1  0.50764189  0.85238795  0.49450213  1
  O  O313  1  0.49917682  0.88474370  0.99371050  1
  O  O314  1  1.00586200  0.37829928  0.48348171  1
  O  O315  1  0.99629773  0.38455383  0.99568155  1
  O  O316  1  0.99137769  0.86698828  0.48918725  1
  O  O317  1  0.99404627  0.89177344  1.00392578  1
  O  O318  1  0.50082200  0.47892641  0.37013495  1
  O  O319  1  0.48977740  0.48849144  0.86666371  1
  O  O320  1  0.47639281  0.99147816  0.34449879  1
  O  O321  1  0.49349666  0.99477862  0.88285403  1
  O  O322  1  0.98708630  0.49515960  0.37012835  1
  O  O323  1  1.00255347  0.48867577  0.88435139  1
  O  O324  1  1.00312291  0.98448401  0.36878342  1
  O  O325  1  1.01098752  1.01137038  0.89010601  1
  O  O326  1  0.00533593  0.01014810  0.11549864  1
  O  O327  1  0.01537080  -0.01349760  0.68983038  1
  O  O328  1  0.00529217  0.49505312  0.11456759  1
  O  O329  1  -0.00464073  0.50300509  0.62552831  1
  O  O330  1  0.50381404  0.01137156  0.11752178  1
  O  O331  1  0.48836635  0.01100010  0.61836287  1
  O  O332  1  0.50990191  0.50876382  0.13245687  1
  O  O333  1  0.51394378  0.49431108  0.62985169  1
  O  O334  1  0.24667088  0.38453754  0.24610992  1
  O  O335  1  0.25101042  0.38273239  0.74193697  1
  O  O336  1  0.23152446  0.89979612  0.26082901  1
  O  O337  1  0.25059899  0.88006108  0.74134481  1
  O  O338  1  0.74144982  0.38268047  0.24598354  1
  O  O339  1  0.74683274  0.38398791  0.75912695  1
  O  O340  1  0.76012787  0.88796245  0.23959715  1
  O  O341  1  0.73681174  0.88873247  0.74980284  1
  O  O342  1  0.23857576  0.11420063  0.26049517  1
  O  O343  1  0.26718309  0.14078949  0.76268469  1
  O  O344  1  0.25705040  0.60866116  0.25152377  1
  O  O345  1  0.25977470  0.61938837  0.76115622  1
  O  O346  1  0.76341323  0.11771178  0.25620552  1
  O  O347  1  0.74534493  0.11501545  0.75460684  1
  O  O348  1  0.75789233  0.61640249  0.25328332  1
  O  O349  1  0.75145612  0.61721684  0.76263574  1
  O  O350  1  0.36653067  0.12282387  0.37381240  1
  O  O351  1  0.37361427  0.11878587  0.87022602  1
  O  O352  1  0.37222964  0.63388299  0.36147461  1
  O  O353  1  0.37040697  0.61806208  0.87506634  1
  O  O354  1  0.87328087  0.12209007  0.36364352  1
  O  O355  1  0.85766410  0.13617863  0.86299737  1
  O  O356  1  0.86970498  0.61348081  0.36200864  1
  O  O357  1  0.85813757  0.61914472  0.87442818  1
  O  O358  1  0.13468873  0.37198316  0.13698677  1
  O  O359  1  0.13893483  0.36870377  0.62476817  1
  O  O360  1  0.11845131  0.88677842  0.13419328  1
  O  O361  1  0.14281186  0.87964024  0.61827170  1
  O  O362  1  0.62724063  0.37983823  0.13195539  1
  O  O363  1  0.63489401  0.37801206  0.62114398  1
  O  O364  1  0.64485786  0.88045833  0.11576108  1
  O  O365  1  0.61647542  0.87151634  0.63784398  1
  O  O366  1  0.13325453  0.26857855  0.25382962  1
  O  O367  1  0.10639155  0.24960558  0.74881842  1
  O  O368  1  0.11460140  0.75866181  0.25842709  1
  O  O369  1  0.13816547  0.75370266  0.77052899  1
  O  O370  1  0.63290222  0.26350400  0.24392311  1
  O  O371  1  0.61295323  0.24223245  0.76071694  1
  O  O372  1  0.61965834  0.74591877  0.25710131  1
  O  O373  1  0.62497245  0.76378261  0.75882709  1
  O  O374  1  0.37045018  0.25862591  0.23782692  1
  O  O375  1  0.38245954  0.24496935  0.74216253  1
  O  O376  1  0.40129039  0.73987783  0.25034979  1
  O  O377  1  0.37222490  0.74466586  0.74296567  1
  O  O378  1  0.87017107  0.24302365  0.23528245  1
  O  O379  1  0.87698548  0.24497217  0.74386524  1
  O  O380  1  0.89168689  0.74156738  0.25363116  1
  O  O381  1  0.86190643  0.72901222  0.75051403  1
  O  O382  1  0.36871062  0.49089415  0.50656191  1
  O  O383  1  0.37097539  0.48958891  0.99122514  1
  O  O384  1  0.38934195  0.99359453  0.47842623  1
  O  O385  1  0.38629398  0.99382202  0.99412047  1
  O  O386  1  0.86975941  0.50264343  0.48188069  1
  O  O387  1  0.88733989  0.49024308  1.00757090  1
  O  O388  1  0.87475665  0.98133887  0.50186373  1
  O  O389  1  0.88665007  1.00441836  0.99400630  1
  O  O390  1  0.11933461  -0.00362769  0.01240636  1
  O  O391  1  0.12585607  0.00838557  0.50625460  1
  O  O392  1  0.11695523  0.50516804  -0.00000702  1
  O  O393  1  0.12254386  0.51122862  0.47866392  1
  O  O394  1  0.61530457  0.01058041  -0.00273717  1
  O  O395  1  0.60435262  0.01384845  0.46400764  1
  O  O396  1  0.62448732  0.50478989  0.01201850  1
  O  O397  1  0.62960520  0.50226480  0.51349694  1
  O  O398  1  0.37175268  0.37025204  0.11867841  1
  O  O399  1  0.37001525  0.36900960  0.61521494  1
  O  O400  1  0.38414549  0.87950546  0.11152341  1
  O  O401  1  0.36484634  0.86200576  0.63238648  1
  O  O402  1  0.87014357  0.36862655  0.11894783  1
  O  O403  1  0.85576368  0.36565954  0.62866967  1
  O  O404  1  0.86225483  0.87934988  0.12336666  1
  O  O405  1  0.88410096  0.86896487  0.61756754  1
  O  O406  1  0.13669509  0.12514193  0.38408288  1
  O  O407  1  0.14316437  0.12952999  0.87368566  1
  O  O408  1  0.13093147  0.64267830  0.36502589  1
  O  O409  1  0.13557036  0.63149435  0.88304583  1
  O  O410  1  0.64725344  0.13394474  0.36192661  1
  O  O411  1  0.62737951  0.13346629  0.88301300  1
  O  O412  1  0.64189763  0.61927636  0.36808526  1
  O  O413  1  0.62077491  0.63055416  0.88109133  1
