# generated using pymatgen
data_V79Zn79O256
_symmetry_space_group_name_H-M   'P 1'
_cell_length_a   16.90572051
_cell_length_b   16.93151188
_cell_length_c   16.91491412
_cell_angle_alpha   90.16018534
_cell_angle_beta   90.09090712
_cell_angle_gamma   90.09189528
_symmetry_Int_Tables_number   1
_chemical_formula_structural   V79Zn79O256
_chemical_formula_sum   'V79 Zn79 O256'
_cell_volume   4841.68372076
_cell_formula_units_Z   1
loop_
 _symmetry_equiv_pos_site_id
 _symmetry_equiv_pos_as_xyz
  1  'x, y, z'
loop_
 _atom_site_type_symbol
 _atom_site_label
 _atom_site_symmetry_multiplicity
 _atom_site_fract_x
 _atom_site_fract_y
 _atom_site_fract_z
 _atom_site_occupancy
  V  V0  1  0.48897190  0.00005365  -0.00636963  1
  V  V1  1  -0.00061299  0.14257424  0.12558090  1
  V  V2  1  0.37820790  0.37838282  0.49550872  1
  V  V3  1  0.50160050  0.24149001  0.74806483  1
  V  V4  1  0.74672505  0.37787507  0.62697537  1
  V  V5  1  0.87410576  0.62914078  0.75300925  1
  V  V6  1  0.50572172  0.11514570  0.60544865  1
  V  V7  1  0.36529945  0.11438287  0.75082377  1
  V  V8  1  0.64596671  0.00558543  0.60422423  1
  V  V9  1  0.64448517  0.37368661  0.24418213  1
  V  V10  1  0.37909381  0.61099767  0.26116682  1
  V  V11  1  0.49756623  0.12305996  0.14153698  1
  V  V12  1  0.56786411  0.55530338  0.68074138  1
  V  V13  1  -0.00079047  0.37426426  0.87447587  1
  V  V14  1  0.38229330  0.00298190  0.36983602  1
  V  V15  1  0.86966358  0.50480377  0.36984331  1
  V  V16  1  0.87019341  0.76016326  0.62492195  1
  V  V17  1  0.13813719  0.49809676  0.13347842  1
  V  V18  1  0.62333842  0.75542308  0.85589567  1
  V  V19  1  0.87281247  0.37099751  0.01600512  1
  V  V20  1  0.63874726  0.24732740  0.38570773  1
  V  V21  1  0.88310344  -0.01782156  0.36059002  1
  V  V22  1  -0.00254315  0.63055721  0.62962344  1
  V  V23  1  0.00143111  0.11888924  0.62278084  1
  V  V24  1  0.75392230  0.25129048  0.01469205  1
  V  V25  1  0.12743580  -0.01035653  0.13029409  1
  V  V26  1  0.00057713  0.49796429  0.00400745  1
  V  V27  1  0.86921234  0.12000355  0.74929643  1
  V  V28  1  0.00049827  0.24924374  0.74961680  1
  V  V29  1  0.12022061  0.12124034  0.49870874  1
  V  V30  1  0.62332966  0.37030104  0.75013005  1
  V  V31  1  0.50978030  0.87073933  0.38461184  1
  V  V32  1  0.62469858  0.11672681  0.00854187  1
  V  V33  1  0.75069311  0.50286105  0.75673053  1
  V  V34  1  0.24543224  0.88591200  0.63263904  1
  V  V35  1  0.49520547  0.62855894  0.11659636  1
  V  V36  1  -0.00372850  -0.01599233  0.49420613  1
  V  V37  1  0.00056128  0.50259004  0.49754007  1
  V  V38  1  0.24435709  0.24457485  0.49598150  1
  V  V39  1  0.24533471  0.11772901  0.36479659  1
  V  V40  1  0.50279973  0.49966518  0.49932085  1
  V  V41  1  0.14214105  0.74472175  0.86724755  1
  V  V42  1  0.74859516  0.12223801  0.87436981  1
  V  V43  1  0.37618228  0.24640775  0.62188842  1
  V  V44  1  0.87089155  0.50135710  0.87737054  1
  V  V45  1  0.25258793  0.75238459  0.50174197  1
  V  V46  1  0.37484636  0.24738060  0.13698677  1
  V  V47  1  0.12249605  0.76437980  0.36858992  1
  V  V48  1  -0.00252493  0.00126816  0.00241336  1
  V  V49  1  0.80692228  0.80550201  0.04620677  1
  V  V50  1  0.25492910  0.24107815  -0.00586770  1
  V  V51  1  0.62655694  0.62325852  0.49382647  1
  V  V52  1  0.74778487  0.75839064  0.49918844  1
  V  V53  1  0.49749997  0.36640255  0.36553978  1
  V  V54  1  0.37731946  0.88080835  0.50244177  1
  V  V55  1  0.50059252  0.74748775  0.25508064  1
  V  V56  1  -0.00236994  0.63265016  0.12913545  1
  V  V57  1  0.38920733  0.73934301  0.63510962  1
  V  V58  1  0.87452658  0.00011022  0.87677135  1
  V  V59  1  0.12444976  0.50151798  0.62522692  1
  V  V60  1  0.87003768  0.25154875  0.62443330  1
  V  V61  1  0.25623779  0.61567762  0.37522302  1
  V  V62  1  0.86826621  0.37834953  0.50284346  1
  V  V63  1  0.12494737  0.37540640  0.74896264  1
  V  V64  1  0.87983200  0.14312325  0.24791164  1
  V  V65  1  0.37027207  0.37113177  0.00120743  1
  V  V66  1  0.13320414  0.63090216  -0.00609139  1
  V  V67  1  0.25248754  0.51183088  0.75180967  1
  V  V68  1  0.24712693  0.37484551  0.62078400  1
  V  V69  1  0.62686766  0.87817943  0.23744541  1
  V  V70  1  0.63438007  0.89881896  0.74296110  1
  V  V71  1  0.86770775  0.63196475  0.24658731  1
  V  V72  1  0.49492784  0.36755648  0.87487276  1
  V  V73  1  0.37215042  0.50920486  0.87336975  1
  V  V74  1  0.00242487  0.35647084  0.37471930  1
  V  V75  1  -0.00468398  0.86434692  0.87369110  1
  V  V76  1  0.12497493  0.62617604  0.49904610  1
  V  V77  1  0.13113867  0.24599419  0.87462738  1
  V  V78  1  0.64032580  0.63829441  -0.00395910  1
  Zn  Zn79  1  -0.02664848  0.80691028  0.29057210  1
  Zn  Zn80  1  0.50230405  0.49141365  0.00916045  1
  Zn  Zn81  1  0.13072405  0.12300961  -0.00356157  1
  Zn  Zn82  1  0.26047688  0.78542167  0.04917522  1
  Zn  Zn83  1  0.62713122  0.24832081  0.87979887  1
  Zn  Zn84  1  0.13165346  0.88071069  0.75308491  1
  Zn  Zn85  1  0.75298370  0.12344280  0.38033066  1
  Zn  Zn86  1  0.63515741  0.50463859  0.14253925  1
  Zn  Zn87  1  0.24987854  -0.01239448  0.24252753  1
  Zn  Zn88  1  0.74111037  0.62206782  0.36229780  1
  Zn  Zn89  1  0.49055218  0.87522490  0.85029103  1
  Zn  Zn90  1  0.12484349  0.36456445  0.24426449  1
  Zn  Zn91  1  0.37300467  0.87051342  -0.01778096  1
  Zn  Zn92  1  0.33537905  -0.00146633  0.86140672  1
  Zn  Zn93  1  0.73803538  0.00993291  0.23888721  1
  Zn  Zn94  1  0.18494207  0.18342191  0.17587196  1
  Zn  Zn95  1  0.18425401  0.18571395  0.68410908  1
  Zn  Zn96  1  0.17910984  0.68710420  0.19582064  1
  Zn  Zn97  1  0.19006665  0.69405833  0.68512844  1
  Zn  Zn98  1  0.68388980  0.19141231  0.19758014  1
  Zn  Zn99  1  0.68750347  0.18418733  0.68268510  1
  Zn  Zn100  1  0.68195336  0.69955248  0.17797989  1
  Zn  Zn101  1  0.69202984  0.69344674  0.68850349  1
  Zn  Zn102  1  0.26939945  0.29241400  0.28892607  1
  Zn  Zn103  1  0.31065582  0.31193725  0.80736514  1
  Zn  Zn104  1  0.32091723  0.80501360  0.31448044  1
  Zn  Zn105  1  0.31964117  0.80891149  0.80968338  1
  Zn  Zn106  1  0.81587947  0.31859030  0.31174213  1
  Zn  Zn107  1  0.81139083  0.31049053  0.81865929  1
  Zn  Zn108  1  0.79926239  0.80303724  0.31472345  1
  Zn  Zn109  1  0.80540520  0.81516973  0.81557670  1
  Zn  Zn110  1  0.20501618  0.41466417  0.40423100  1
  Zn  Zn111  1  0.19110324  0.43771895  0.94006390  1
  Zn  Zn112  1  0.18844789  0.94212544  0.44427724  1
  Zn  Zn113  1  0.17707553  0.92607707  0.94908555  1
  Zn  Zn114  1  0.68280137  0.43942191  0.43553499  1
  Zn  Zn115  1  0.69918868  0.45675885  0.97611542  1
  Zn  Zn116  1  0.69810246  0.94086365  0.42772767  1
  Zn  Zn117  1  0.68160184  0.93557978  0.93691562  1
  Zn  Zn118  1  0.31361775  0.06252506  0.06390359  1
  Zn  Zn119  1  0.31350857  0.06210062  0.56207404  1
  Zn  Zn120  1  0.29632922  0.60733175  0.08215539  1
  Zn  Zn121  1  0.31345790  0.56234628  0.56278866  1
  Zn  Zn122  1  0.81228973  0.06139830  0.06745809  1
  Zn  Zn123  1  0.81959974  0.05973827  0.54877183  1
  Zn  Zn124  1  0.80940948  0.56288478  0.07021643  1
  Zn  Zn125  1  0.80942942  0.56184351  0.56718573  1
  Zn  Zn126  1  0.43865749  0.43924011  0.18284390  1
  Zn  Zn127  1  0.43054271  0.43327460  0.68939008  1
  Zn  Zn128  1  0.44104074  0.93983527  0.19160163  1
  Zn  Zn129  1  0.44234824  0.93480382  0.67981014  1
  Zn  Zn130  1  0.94492861  0.43962497  0.19528089  1
  Zn  Zn131  1  0.93765073  0.44045621  0.68821541  1
  Zn  Zn132  1  0.88204883  0.93119425  0.17258905  1
  Zn  Zn133  1  0.94240029  0.93861762  0.69295724  1
  Zn  Zn134  1  0.05821586  0.06058060  0.30703123  1
  Zn  Zn135  1  0.06555439  0.05995986  0.81262450  1
  Zn  Zn136  1  0.06136794  0.56954529  0.31440335  1
  Zn  Zn137  1  0.06008729  0.56189622  0.81222898  1
  Zn  Zn138  1  0.56676789  0.06154969  0.32246539  1
  Zn  Zn139  1  0.56285447  0.06214364  0.81191920  1
  Zn  Zn140  1  0.55957382  0.55240832  0.31632135  1
  Zn  Zn141  1  0.57263976  0.55037663  0.85066215  1
  Zn  Zn142  1  0.43558316  0.19080789  0.42792636  1
  Zn  Zn143  1  0.43442745  0.17871443  0.93552594  1
  Zn  Zn144  1  0.44176161  0.68915408  0.44539967  1
  Zn  Zn145  1  0.43461964  0.70162361  0.93237659  1
  Zn  Zn146  1  0.91428441  0.17829465  0.44489495  1
  Zn  Zn147  1  0.93748117  0.18837640  0.93895910  1
  Zn  Zn148  1  0.93426308  0.69101147  0.43925973  1
  Zn  Zn149  1  0.93649085  0.68436965  0.94242122  1
  Zn  Zn150  1  0.07085253  0.31825269  0.05904481  1
  Zn  Zn151  1  0.05914864  0.31139693  0.55715834  1
  Zn  Zn152  1  0.00764521  0.84338051  0.10461856  1
  Zn  Zn153  1  0.06552874  0.80919253  0.56638439  1
  Zn  Zn154  1  0.56185507  0.30368471  0.06737398  1
  Zn  Zn155  1  0.56393052  0.30956403  0.56172906  1
  Zn  Zn156  1  0.55508093  0.81197678  0.06095960  1
  Zn  Zn157  1  0.56954098  0.81655859  0.56897889  1
  O  O158  1  0.11088065  0.11630456  0.11973685  1
  O  O159  1  0.11038087  0.12711567  0.61690888  1
  O  O160  1  0.11234720  0.61485200  0.11159007  1
  O  O161  1  0.11613543  0.62385422  0.62051586  1
  O  O162  1  0.60943689  0.13365673  0.12065871  1
  O  O163  1  0.61555761  0.11652620  0.62361035  1
  O  O164  1  0.61614309  0.62382817  0.11174455  1
  O  O165  1  0.62413945  0.61953703  0.62355185  1
  O  O166  1  0.38897584  0.36277775  0.39115145  1
  O  O167  1  0.38227759  0.36871888  0.87947429  1
  O  O168  1  0.38154596  0.88376338  0.38249594  1
  O  O169  1  0.37615461  0.89007082  0.86595617  1
  O  O170  1  0.88356416  0.38552462  0.38384480  1
  O  O171  1  0.88088892  0.38339810  0.88067175  1
  O  O172  1  0.88049518  0.88010710  0.35578067  1
  O  O173  1  0.88661883  0.88697134  0.86279662  1
  O  O174  1  0.25763415  0.00480176  0.37285274  1
  O  O175  1  0.21350245  -0.00055571  0.86088160  1
  O  O176  1  0.25042871  0.51954437  0.39395773  1
  O  O177  1  0.26304844  0.49247483  0.86645040  1
  O  O178  1  0.77159053  0.00209588  0.36637670  1
  O  O179  1  0.76094725  0.01333616  0.88535939  1
  O  O180  1  0.76497695  0.50373482  0.38103592  1
  O  O181  1  0.76022591  0.49239622  0.86869624  1
  O  O182  1  0.23628670  0.51227161  0.12069884  1
  O  O183  1  0.24458298  0.49443617  0.62955175  1
  O  O184  1  0.23200805  1.01111201  0.12443729  1
  O  O185  1  0.25243233  0.98482038  0.62011663  1
  O  O186  1  0.72926838  0.48792812  0.08415791  1
  O  O187  1  0.75565497  0.48703846  0.64230329  1
  O  O188  1  0.78440016  0.98185881  0.13998345  1
  O  O189  1  0.74495579  1.01461302  0.61979502  1
  O  O190  1  0.00713047  0.37635256  0.27010862  1
  O  O191  1  0.00505836  0.37091434  0.75311215  1
  O  O192  1  -0.02188224  0.87960343  0.21088864  1
  O  O193  1  0.01519688  0.89259354  0.77006289  1
  O  O194  1  0.49267209  0.37700037  0.26657085  1
  O  O195  1  0.50261491  0.35989288  0.75099748  1
  O  O196  1  0.50627722  0.86901499  0.26204067  1
  O  O197  1  0.52213880  0.88428910  0.73977328  1
  O  O198  1  0.50374245  0.11799147  0.24011449  1
  O  O199  1  0.49354432  0.13123951  0.74119610  1
  O  O200  1  0.49565458  0.62733260  0.25479609  1
  O  O201  1  0.51567011  0.60511060  0.74637773  1
  O  O202  1  0.99683906  0.12771682  0.23387909  1
  O  O203  1  0.99469544  0.12687335  0.74133086  1
  O  O204  1  0.99566405  0.62742255  0.23484139  1
  O  O205  1  0.98878894  0.61769039  0.73901904  1
  O  O206  1  0.37042730  0.25398421  -0.00267875  1
  O  O207  1  0.36973233  0.25278531  0.50944039  1
  O  O208  1  0.36882822  0.75804192  0.00194476  1
  O  O209  1  0.36727465  0.76178756  0.50087056  1
  O  O210  1  0.86376404  0.25590084  -0.00182507  1
  O  O211  1  0.88279200  0.27065725  0.51642294  1
  O  O212  1  0.85064068  0.74402929  -0.02218052  1
  O  O213  1  0.86266781  0.74334775  0.51475755  1
  O  O214  1  0.13505082  0.23874020  0.50470501  1
  O  O215  1  0.13819050  0.25327720  0.99114971  1
  O  O216  1  0.13405962  0.74509713  0.49412700  1
  O  O217  1  0.13252438  0.73334458  0.99070734  1
  O  O218  1  0.62916108  0.25786571  0.48643506  1
  O  O219  1  0.63656180  0.24066770  0.99931812  1
  O  O220  1  0.63620241  0.73481505  0.51319957  1
  O  O221  1  0.62195805  0.73958079  1.00320218  1
  O  O222  1  0.48607700  0.23537624  0.12247984  1
  O  O223  1  0.49483947  0.24064911  0.62959080  1
  O  O224  1  0.50315435  0.73352625  0.13723408  1
  O  O225  1  0.48711565  0.75506081  0.61584645  1
  O  O226  1  1.00763851  0.24126718  0.11709041  1
  O  O227  1  0.99104619  0.24326199  0.62994289  1
  O  O228  1  1.00453745  0.72876983  0.10963228  1
  O  O229  1  0.98664589  0.73837100  0.61752574  1
  O  O230  1  -0.01510499  0.25979529  0.38841673  1
  O  O231  1  0.00512961  0.25671808  0.86939341  1
  O  O232  1  0.01491866  0.75148125  0.38148470  1
  O  O233  1  -0.00706986  0.76381411  0.87728542  1
  O  O234  1  0.51109978  0.26142270  0.37949133  1
  O  O235  1  0.49999767  0.25094212  0.86376939  1
  O  O236  1  0.49773780  0.76459848  0.37386346  1
  O  O237  1  0.51552069  0.76691370  0.88556143  1
  O  O238  1  0.23855355  0.12652571  0.50051503  1
  O  O239  1  0.25130767  0.13653861  0.99449176  1
  O  O240  1  0.24773407  0.63553166  0.49455931  1
  O  O241  1  0.22987272  0.60774468  0.98701662  1
  O  O242  1  0.80556450  0.14334294  0.47871466  1
  O  O243  1  0.74622343  0.13204878  0.99818863  1
  O  O244  1  0.73411998  0.62159946  0.50501129  1
  O  O245  1  0.73813014  0.62666510  0.99721341  1
  O  O246  1  0.26346493  0.36423088  -0.00443729  1
  O  O247  1  0.25773918  0.36400894  0.49967358  1
  O  O248  1  0.26179542  0.88778481  0.00877072  1
  O  O249  1  0.25608579  0.86878215  0.50878385  1
  O  O250  1  0.75683832  0.35645713  -0.00788231  1
  O  O251  1  0.75898112  0.38875538  0.51308630  1
  O  O252  1  0.74610467  0.87338161  0.00164053  1
  O  O253  1  0.74254704  0.85694753  0.49416927  1
  O  O254  1  0.11953655  0.51164643  0.23342730  1
  O  O255  1  0.13071861  0.49483203  0.74588633  1
  O  O256  1  0.12560745  0.99818625  0.23573690  1
  O  O257  1  0.16213714  0.99609903  0.79118444  1
  O  O258  1  0.62527471  0.48159313  0.25705977  1
  O  O259  1  0.62909103  0.49448116  0.75126070  1
  O  O260  1  0.62496552  0.98472612  0.25839768  1
  O  O261  1  0.63280986  1.00261572  0.74109696  1
  O  O262  1  0.37172977  0.00049175  0.26739920  1
  O  O263  1  0.37814550  0.01242932  0.74159877  1
  O  O264  1  0.38447461  0.51177660  0.25840984  1
  O  O265  1  0.36490622  0.49185478  0.76131438  1
  O  O266  1  0.88703721  0.00828496  0.26036879  1
  O  O267  1  0.88020881  0.01319542  0.75922901  1
  O  O268  1  0.88376545  0.51376352  0.26073833  1
  O  O269  1  0.86884743  0.50434285  0.75855023  1
  O  O270  1  0.09925927  0.37012471  0.40095390  1
  O  O271  1  0.11870892  0.36853168  0.86964679  1
  O  O272  1  0.13566316  0.86316929  0.37877756  1
  O  O273  1  0.11570787  0.85291124  0.87984519  1
  O  O274  1  0.61713597  0.36896396  0.36820801  1
  O  O275  1  0.61232521  0.37142743  0.85959315  1
  O  O276  1  0.61032911  0.88042225  0.37744302  1
  O  O277  1  0.62009659  0.87764259  0.85651618  1
  O  O278  1  0.38371993  0.13617573  0.12549950  1
  O  O279  1  0.38749413  0.12987094  0.62702423  1
  O  O280  1  0.39174507  0.61567758  0.14486698  1
  O  O281  1  0.37594870  0.64066240  0.61367987  1
  O  O282  1  0.89024097  0.12538906  0.13374300  1
  O  O283  1  0.88098582  0.13371792  0.63271777  1
  O  O284  1  0.88531772  0.61743171  0.13609079  1
  O  O285  1  0.88049979  0.62823900  0.63418762  1
  O  O286  1  0.26787601  0.24278136  0.10966712  1
  O  O287  1  0.25711487  0.25282752  0.61481070  1
  O  O288  1  0.25566332  0.70671348  0.12216074  1
  O  O289  1  0.25905137  0.75614993  0.61441610  1
  O  O290  1  0.74830753  0.24495615  0.11275436  1
  O  O291  1  0.76089456  0.26254884  0.63457859  1
  O  O292  1  0.76121826  0.75294747  0.12098229  1
  O  O293  1  0.76176105  0.74799988  0.61629959  1
  O  O294  1  0.26460423  0.22657877  0.38988144  1
  O  O295  1  0.24062564  0.25525705  0.87798210  1
  O  O296  1  0.24426450  0.74537037  0.38457445  1
  O  O297  1  0.24113868  0.74789430  0.87148062  1
  O  O298  1  0.74133534  0.25777470  0.37601605  1
  O  O299  1  0.74971813  0.23558412  0.88298175  1
  O  O300  1  0.75639995  0.73501818  0.39615423  1
  O  O301  1  0.72350972  0.76139024  0.87377510  1
  O  O302  1  0.00000890  0.12059873  0.00831219  1
  O  O303  1  0.00425797  0.12237717  0.50564932  1
  O  O304  1  0.00162831  0.61234004  0.00621473  1
  O  O305  1  0.00201385  0.61925159  0.50852160  1
  O  O306  1  0.50711197  0.11698701  0.00361766  1
  O  O307  1  0.49749669  0.13108381  0.50814131  1
  O  O308  1  0.49176023  0.62839889  0.01465751  1
  O  O309  1  0.51236882  0.61432900  0.49737168  1
  O  O310  1  0.49535244  0.38076142  0.50122146  1
  O  O311  1  0.49696591  0.36881848  0.98777578  1
  O  O312  1  0.49392449  0.87096400  0.49058809  1
  O  O313  1  0.49084492  0.89624093  1.01419886  1
  O  O314  1  0.98683772  0.38685621  0.50067713  1
  O  O315  1  0.99226818  0.38053167  0.99509835  1
  O  O316  1  1.00755969  0.88648889  0.50492262  1
  O  O317  1  1.00375643  0.89366258  0.98213339  1
  O  O318  1  0.50303387  0.48099322  0.39099079  1
  O  O319  1  0.48313932  0.47908188  0.86346809  1
  O  O320  1  0.48861613  0.99009498  0.37481921  1
  O  O321  1  0.50578721  0.99830788  0.89027038  1
  O  O322  1  0.99277517  0.50369069  0.38717438  1
  O  O323  1  0.99333770  0.49335471  0.88337453  1
  O  O324  1  0.99594275  0.99702003  0.38302342  1
  O  O325  1  0.99185283  1.00462450  0.88393973  1
  O  O326  1  0.00486077  0.00677977  0.10795185  1
  O  O327  1  -0.01422106  0.01027376  0.60949363  1
  O  O328  1  0.00435151  0.50614018  0.11532023  1
  O  O329  1  0.00263246  0.50881265  0.61780067  1
  O  O330  1  0.48556463  0.01687447  0.11526398  1
  O  O331  1  0.50386627  0.01380871  0.61519729  1
  O  O332  1  0.50996168  0.51255088  0.12530980  1
  O  O333  1  0.50380171  0.49561311  0.62257303  1
  O  O334  1  0.22695108  0.39493207  0.29424063  1
  O  O335  1  0.24343147  0.37986255  0.73912977  1
  O  O336  1  0.28575641  0.87198584  0.22253203  1
  O  O337  1  0.25337748  0.87051167  0.73466174  1
  O  O338  1  0.74474437  0.37699571  0.24458818  1
  O  O339  1  0.74192593  0.38076069  0.74929352  1
  O  O340  1  0.72751368  0.86666460  0.25747393  1
  O  O341  1  0.73338510  0.87518941  0.74691100  1
  O  O342  1  0.24852409  0.11967480  0.26501448  1
  O  O343  1  0.26708823  0.12818300  0.73426690  1
  O  O344  1  0.26495393  0.62496419  0.26741511  1
  O  O345  1  0.24514516  0.61051460  0.74401691  1
  O  O346  1  0.76671818  0.12619233  0.25019893  1
  O  O347  1  0.76019066  0.13170900  0.75908747  1
  O  O348  1  0.76344738  0.62880659  0.24402147  1
  O  O349  1  0.75828641  0.61120784  0.74566126  1
  O  O350  1  0.36521790  0.10842175  0.38763106  1
  O  O351  1  0.37347290  0.11942307  0.85541445  1
  O  O352  1  0.36752390  0.62818127  0.37437498  1
  O  O353  1  0.38588039  0.60632366  0.87987785  1
  O  O354  1  0.89144138  0.11614042  0.35012791  1
  O  O355  1  0.86979156  0.12078664  0.86732218  1
  O  O356  1  0.87762212  0.61963663  0.36362016  1
  O  O357  1  0.88467390  0.61003238  0.86483776  1
  O  O358  1  0.12321696  0.39300833  0.12683650  1
  O  O359  1  0.12719788  0.38057066  0.62713473  1
  O  O360  1  0.11682781  0.89145897  0.11291634  1
  O  O361  1  0.13969041  0.86885700  0.63014681  1
  O  O362  1  0.61389289  0.37114041  0.14407062  1
  O  O363  1  0.63301666  0.36777266  0.63876225  1
  O  O364  1  0.61450101  0.87542917  0.13890391  1
  O  O365  1  0.62658716  0.89864911  0.62679348  1
  O  O366  1  0.16194887  0.25788558  0.25385577  1
  O  O367  1  0.12093731  0.25562695  0.75415788  1
  O  O368  1  0.12457127  0.75115559  0.26763050  1
  O  O369  1  0.12585646  0.74771339  0.76397093  1
  O  O370  1  0.62757645  0.26645937  0.26473220  1
  O  O371  1  0.61679916  0.25220959  0.75060428  1
  O  O372  1  0.61166891  0.75924171  0.25089089  1
  O  O373  1  0.62084951  0.75552823  0.75241094  1
  O  O374  1  0.36512440  0.25812152  0.23537164  1
  O  O375  1  0.38164282  0.24206331  0.73766840  1
  O  O376  1  0.39252896  0.73339158  0.25884381  1
  O  O377  1  0.37769463  0.74681090  0.73492819  1
  O  O378  1  0.87721810  0.24235417  0.25136237  1
  O  O379  1  0.88108637  0.24277662  0.74453791  1
  O  O380  1  0.87992265  0.73411800  0.26169163  1
  O  O381  1  0.86225989  0.73718161  0.74030013  1
  O  O382  1  0.38567192  0.48684070  0.51144277  1
  O  O383  1  0.38154129  0.48385595  0.98269355  1
  O  O384  1  0.36934561  0.98670597  0.49150996  1
  O  O385  1  0.38303438  1.01114546  0.98592538  1
  O  O386  1  0.88212617  0.49761187  0.49684418  1
  O  O387  1  0.88110102  0.49288728  0.99383846  1
  O  O388  1  0.88942131  0.99366507  0.48085583  1
  O  O389  1  0.88720557  1.01019339  0.98824771  1
  O  O390  1  0.11181962  0.00690358  0.00347218  1
  O  O391  1  0.10996244  0.01074735  0.49664977  1
  O  O392  1  0.11448911  0.50213238  0.00328682  1
  O  O393  1  0.11397376  0.50826554  0.50737091  1
  O  O394  1  0.61610588  0.01179826  0.00219170  1
  O  O395  1  0.63783951  0.00354115  0.50445309  1
  O  O396  1  0.60665228  0.52558933  -0.03209911  1
  O  O397  1  0.61711518  0.50965103  0.50430461  1
  O  O398  1  0.38857408  0.36099838  0.11126503  1
  O  O399  1  0.36931502  0.36310485  0.61782351  1
  O  O400  1  0.34582533  0.87189392  0.16467916  1
  O  O401  1  0.36727958  0.86703492  0.61776272  1
  O  O402  1  0.88271361  0.38147646  0.11429245  1
  O  O403  1  0.86752591  0.37174302  0.62399730  1
  O  O404  1  0.88893299  0.85692477  0.08491009  1
  O  O405  1  0.88280825  0.85787559  0.63639505  1
  O  O406  1  0.13831072  0.11628496  0.38236885  1
  O  O407  1  0.11550911  0.14393575  0.87605579  1
  O  O408  1  0.13781777  0.63363022  0.37973714  1
  O  O409  1  0.11011168  0.63634065  0.88363849  1
  O  O410  1  0.63328340  0.14112217  0.36942711  1
  O  O411  1  0.63379115  0.12435758  0.88489824  1
  O  O412  1  0.62551676  0.62082863  0.38918529  1
  O  O413  1  0.61873853  0.64798064  0.88415659  1
