# generated using pymatgen
data_V79Zn79O256
_symmetry_space_group_name_H-M   'P 1'
_cell_length_a   16.85921181
_cell_length_b   16.85168099
_cell_length_c   16.86024276
_cell_angle_alpha   90.00623757
_cell_angle_beta   89.95620712
_cell_angle_gamma   89.98953761
_symmetry_Int_Tables_number   1
_chemical_formula_structural   V79Zn79O256
_chemical_formula_sum   'V79 Zn79 O256'
_cell_volume   4790.09561888
_cell_formula_units_Z   1
loop_
 _symmetry_equiv_pos_site_id
 _symmetry_equiv_pos_as_xyz
  1  'x, y, z'
loop_
 _atom_site_type_symbol
 _atom_site_label
 _atom_site_symmetry_multiplicity
 _atom_site_fract_x
 _atom_site_fract_y
 _atom_site_fract_z
 _atom_site_occupancy
  V  V0  1  0.12260752  0.12131689  -0.00619028  1
  V  V1  1  0.06553153  0.83078231  0.81267695  1
  V  V2  1  0.12280159  0.87587778  0.25129177  1
  V  V3  1  -0.00051709  0.12056477  0.12107961  1
  V  V4  1  0.26205937  0.87242504  0.13266712  1
  V  V5  1  0.61079543  0.00321415  0.12358095  1
  V  V6  1  -0.00545673  0.62523594  0.13087072  1
  V  V7  1  0.87338628  0.10241992  0.76269470  1
  V  V8  1  0.37410088  0.51319959  0.37904589  1
  V  V9  1  0.87199003  0.24957493  0.12125023  1
  V  V10  1  0.50295431  0.63721971  0.63076610  1
  V  V11  1  0.37197810  0.12376769  0.76685479  1
  V  V12  1  0.61948480  0.63073744  0.00153323  1
  V  V13  1  0.62360716  0.50895576  0.12947484  1
  V  V14  1  0.11891814  0.25235880  0.37204389  1
  V  V15  1  0.75180857  0.51576730  0.25561255  1
  V  V16  1  0.88771368  0.89062424  -0.00738976  1
  V  V17  1  0.50656292  0.36834202  0.37097733  1
  V  V18  1  0.25143326  0.00335916  0.75627469  1
  V  V19  1  0.12260723  0.73640449  0.38570922  1
  V  V20  1  0.50061373  -0.01876830  0.49001757  1
  V  V21  1  0.74715921  0.88401804  0.12480449  1
  V  V22  1  0.70448384  0.13694283  0.91879549  1
  V  V23  1  0.00041535  0.49695417  0.49523836  1
  V  V24  1  0.25414077  0.74356902  0.01105286  1
  V  V25  1  0.12549050  0.50542274  0.62001843  1
  V  V26  1  0.86463790  0.00176792  0.37310570  1
  V  V27  1  0.25482492  0.24584163  0.48678664  1
  V  V28  1  -0.00507026  0.12593603  0.62376633  1
  V  V29  1  0.37697373  0.37833633  0.49987030  1
  V  V30  1  0.62528410  0.87945744  0.26292103  1
  V  V31  1  0.00113936  0.50108514  -0.00654699  1
  V  V32  1  0.62613096  0.00087157  0.64243228  1
  V  V33  1  0.38387540  0.49357578  0.87235233  1
  V  V34  1  0.25002807  0.37450850  0.62445920  1
  V  V35  1  0.12197004  -0.00612081  0.12274945  1
  V  V36  1  0.25032286  0.50520012  0.25389399  1
  V  V37  1  0.00177091  0.62686318  0.62248270  1
  V  V38  1  0.37562906  0.24756592  0.62695443  1
  V  V39  1  0.74582196  0.88148078  0.63562336  1
  V  V40  1  0.12444903  0.62675953  -0.00050888  1
  V  V41  1  0.73845514  0.25108573  0.50728267  1
  V  V42  1  0.74557066  0.73923227  0.49681823  1
  V  V43  1  0.49035306  -0.00217369  -0.00315637  1
  V  V44  1  0.12255378  0.37461775  0.25263327  1
  V  V45  1  0.87309284  0.12336150  0.24834354  1
  V  V46  1  0.51068665  0.26128855  0.76505265  1
  V  V47  1  0.50881170  0.50660796  0.50438592  1
  V  V48  1  0.27157746  0.87953505  0.61160699  1
  V  V49  1  -0.00382959  0.87854716  0.37650215  1
  V  V50  1  0.75418926  0.37794493  0.12945901  1
  V  V51  1  0.37940504  0.62675193  0.23342218  1
  V  V52  1  0.26275545  0.74481516  0.49977541  1
  V  V53  1  0.50447349  0.12722000  0.62286035  1
  V  V54  1  0.37536558  0.86492823  -0.01703855  1
  V  V55  1  0.25653915  0.24511230  0.00148901  1
  V  V56  1  0.75002688  0.62889189  0.87647736  1
  V  V57  1  0.37779766  0.37099155  0.00315304  1
  V  V58  1  0.87868540  0.36498374  0.50003764  1
  V  V59  1  0.87306076  0.74939398  0.13059770  1
  V  V60  1  0.87527518  0.75191253  0.62735971  1
  V  V61  1  0.87763532  0.62645119  0.75122730  1
  V  V62  1  0.86906287  0.51024806  0.37441893  1
  V  V63  1  0.74111855  0.13494388  0.36616433  1
  V  V64  1  0.12342787  0.37494668  0.74937026  1
  V  V65  1  -0.00953368  0.24774715  0.74561871  1
  V  V66  1  0.62161721  0.73110108  0.38278645  1
  V  V67  1  0.62540614  0.49297643  0.63255039  1
  V  V68  1  0.25119784  0.49915091  0.74929940  1
  V  V69  1  0.50273401  0.74664749  0.24128400  1
  V  V70  1  0.61942290  0.76111191  0.86242408  1
  V  V71  1  0.12785300  0.24155792  0.87066652  1
  V  V72  1  0.13102194  -0.00556569  0.61880792  1
  V  V73  1  0.50223589  0.49709574  0.00053077  1
  V  V74  1  0.12711417  0.12537750  0.49200952  1
  V  V75  1  0.37627209  0.64476570  0.74925793  1
  V  V76  1  0.24922750  0.62585227  0.87655419  1
  V  V77  1  0.74545848  0.49114288  0.75253181  1
  V  V78  1  0.87709237  0.37446668  0.00122769  1
  Zn  Zn79  1  0.62704944  0.35987225  0.25690200  1
  Zn  Zn80  1  -0.00612236  0.74214541  0.25657442  1
  Zn  Zn81  1  -0.00253102  0.00234663  0.49929058  1
  Zn  Zn82  1  -0.00177971  0.37451687  0.87272880  1
  Zn  Zn83  1  0.12543126  0.49640051  0.12567124  1
  Zn  Zn84  1  0.25472084  0.37042377  0.12927614  1
  Zn  Zn85  1  0.49096384  0.87398718  0.84389896  1
  Zn  Zn86  1  0.87425910  0.49813465  0.87413787  1
  Zn  Zn87  1  0.75067168  0.75756250  -0.00169549  1
  Zn  Zn88  1  -0.00224387  0.25603404  0.25188997  1
  Zn  Zn89  1  0.86832710  0.87863203  0.49867174  1
  Zn  Zn90  1  0.75288425  0.36278030  0.63849947  1
  Zn  Zn91  1  0.62604819  0.12105395  0.49437756  1
  Zn  Zn92  1  0.37109004  0.13198241  0.29108143  1
  Zn  Zn93  1  0.47935387  0.21279113  0.18394288  1
  Zn  Zn94  1  0.19255736  0.18470377  0.18449577  1
  Zn  Zn95  1  0.18685521  0.18339555  0.68172614  1
  Zn  Zn96  1  0.18194237  0.68544341  0.19160548  1
  Zn  Zn97  1  0.19132688  0.69674086  0.68162210  1
  Zn  Zn98  1  0.68026046  0.19092118  0.18104640  1
  Zn  Zn99  1  0.69143404  0.18360499  0.69907242  1
  Zn  Zn100  1  0.68969677  0.69379185  0.18816522  1
  Zn  Zn101  1  0.68872917  0.68442503  0.68530375  1
  Zn  Zn102  1  0.32211236  0.31429106  0.30482007  1
  Zn  Zn103  1  0.31443932  0.30942541  0.81691766  1
  Zn  Zn104  1  0.29732372  0.78470438  0.30130620  1
  Zn  Zn105  1  0.27154105  0.82362813  0.81762215  1
  Zn  Zn106  1  0.81584379  0.31747500  0.31580036  1
  Zn  Zn107  1  0.80552701  0.29993290  0.82436597  1
  Zn  Zn108  1  0.80611855  0.81046765  0.31235654  1
  Zn  Zn109  1  0.81396981  0.81615115  0.81524030  1
  Zn  Zn110  1  0.18924437  0.43703440  0.43419451  1
  Zn  Zn111  1  0.18908381  0.43635247  0.93615568  1
  Zn  Zn112  1  0.19032536  0.93307712  0.43529878  1
  Zn  Zn113  1  0.14660244  0.94333328  0.91840037  1
  Zn  Zn114  1  0.68880117  0.43820804  0.44071699  1
  Zn  Zn115  1  0.69215252  0.44178150  0.94463399  1
  Zn  Zn116  1  0.68565156  0.93894804  0.44848271  1
  Zn  Zn117  1  0.68834056  0.94684652  0.93627678  1
  Zn  Zn118  1  0.30313694  0.05080217  0.04671590  1
  Zn  Zn119  1  0.31947866  0.06484628  0.54025467  1
  Zn  Zn120  1  0.31440768  0.55585069  0.06447874  1
  Zn  Zn121  1  0.31612971  0.56810626  0.56601792  1
  Zn  Zn122  1  0.80313962  0.06386535  0.05809577  1
  Zn  Zn123  1  0.81030755  0.06531790  0.56134172  1
  Zn  Zn124  1  0.81219100  0.56278107  0.06260869  1
  Zn  Zn125  1  0.81267862  0.55769833  0.56424889  1
  Zn  Zn126  1  0.43834066  0.43941997  0.18615188  1
  Zn  Zn127  1  0.44074233  0.43789756  0.69065588  1
  Zn  Zn128  1  0.44090263  0.93963590  0.20352346  1
  Zn  Zn129  1  0.43637021  0.94184061  0.68485322  1
  Zn  Zn130  1  0.93952747  0.44256151  0.18999682  1
  Zn  Zn131  1  0.93451925  0.43730170  0.68418760  1
  Zn  Zn132  1  0.93568599  0.93740165  0.18859384  1
  Zn  Zn133  1  0.94494417  0.93349031  0.68575401  1
  Zn  Zn134  1  0.06192202  0.06225329  0.30944333  1
  Zn  Zn135  1  0.05496157  0.04547993  0.80705558  1
  Zn  Zn136  1  0.05913860  0.55734138  0.31468693  1
  Zn  Zn137  1  0.06537395  0.66440338  0.81071579  1
  Zn  Zn138  1  0.55315552  0.06927434  0.30764510  1
  Zn  Zn139  1  0.55542303  0.06653247  0.82396229  1
  Zn  Zn140  1  0.56106724  0.55776956  0.31274059  1
  Zn  Zn141  1  0.56300121  0.56835841  0.81215457  1
  Zn  Zn142  1  0.44168500  0.18433233  0.43568915  1
  Zn  Zn143  1  0.51248110  0.19891525  0.96532004  1
  Zn  Zn144  1  0.44434825  0.69175973  0.44046315  1
  Zn  Zn145  1  0.44012511  0.68847113  0.93484079  1
  Zn  Zn146  1  0.93660857  0.18670648  0.43627336  1
  Zn  Zn147  1  0.93909534  0.18692989  0.93482639  1
  Zn  Zn148  1  0.93653502  0.68756434  0.44305769  1
  Zn  Zn149  1  0.93695365  0.70185135  0.94069310  1
  Zn  Zn150  1  0.06474898  0.31060973  0.06611235  1
  Zn  Zn151  1  0.06300918  0.31051045  0.56197110  1
  Zn  Zn152  1  0.06056086  0.80811878  0.05961349  1
  Zn  Zn153  1  0.06190570  0.81413817  0.56367862  1
  Zn  Zn154  1  0.57181196  0.31516103  0.08463651  1
  Zn  Zn155  1  0.56194934  0.31478016  0.56785352  1
  Zn  Zn156  1  0.56282531  0.81355433  0.06118381  1
  Zn  Zn157  1  0.56568805  0.81711940  0.56902035  1
  O  O158  1  0.11887744  0.11582367  0.11884314  1
  O  O159  1  0.11741734  0.11904068  0.61188089  1
  O  O160  1  0.11581538  0.62185089  0.11734527  1
  O  O161  1  0.11691389  0.61485461  0.63360896  1
  O  O162  1  0.62162477  0.10122540  0.13600327  1
  O  O163  1  0.62160385  0.11565707  0.62785526  1
  O  O164  1  0.63611418  0.61821746  0.11505085  1
  O  O165  1  0.60898496  0.61404785  0.63521657  1
  O  O166  1  0.38418907  0.38685721  0.38558472  1
  O  O167  1  0.36940168  0.38621683  0.88514407  1
  O  O168  1  0.33035828  0.95012078  0.33819101  1
  O  O169  1  0.36966282  0.86377933  0.88158752  1
  O  O170  1  0.87274239  0.38498294  0.39196984  1
  O  O171  1  0.87508160  0.37217157  0.88892594  1
  O  O172  1  0.87753461  0.88424674  0.37019171  1
  O  O173  1  0.86899543  0.87422599  0.89371886  1
  O  O174  1  0.26694371  -0.00788749  0.36336256  1
  O  O175  1  0.24101769  -0.00433941  0.85418648  1
  O  O176  1  0.26122153  0.49843603  0.36623371  1
  O  O177  1  0.26037057  0.50840737  0.87141631  1
  O  O178  1  0.75685848  0.01669889  0.38211127  1
  O  O179  1  0.73034920  0.04158493  0.88938334  1
  O  O180  1  0.75993906  0.49881307  0.37216086  1
  O  O181  1  0.75006142  0.51007640  0.86990133  1
  O  O182  1  0.24927285  0.49991603  0.14184173  1
  O  O183  1  0.24423409  0.49571893  0.62715802  1
  O  O184  1  0.23604157  0.97697347  0.11734985  1
  O  O185  1  0.24902346  0.99305268  0.61166052  1
  O  O186  1  0.74985932  0.49741315  0.13710387  1
  O  O187  1  0.74037465  0.50359708  0.63694821  1
  O  O188  1  0.73318419  0.98918409  0.12487102  1
  O  O189  1  0.73995561  0.99189098  0.62150408  1
  O  O190  1  0.01633194  0.37567778  0.24536998  1
  O  O191  1  0.00734559  0.36758720  0.74551651  1
  O  O192  1  0.00499630  0.87134597  0.25963954  1
  O  O193  1  0.01073366  0.85244608  0.72917822  1
  O  O194  1  0.49675007  0.38517478  0.26837397  1
  O  O195  1  0.49735982  0.36138421  0.75036235  1
  O  O196  1  0.51205158  0.85728176  0.25290498  1
  O  O197  1  0.50680500  0.87552805  0.73526876  1
  O  O198  1  0.47632906  0.11291961  0.24217051  1
  O  O199  1  0.48655723  0.13006143  0.74252151  1
  O  O200  1  0.49068322  0.63233928  0.25461617  1
  O  O201  1  0.48673857  0.62738131  0.74468499  1
  O  O202  1  0.99100618  0.12774113  0.23973868  1
  O  O203  1  0.99530146  0.12722380  0.74328867  1
  O  O204  1  1.00270316  0.62174150  0.23577619  1
  O  O205  1  0.98797702  0.62132726  0.73790824  1
  O  O206  1  0.35759907  0.25673175  -0.01338554  1
  O  O207  1  0.37215283  0.26258305  0.50837749  1
  O  O208  1  0.36821540  0.75291983  0.00279875  1
  O  O209  1  0.36145883  0.75470140  0.48519634  1
  O  O210  1  0.88348406  0.25914853  0.01145414  1
  O  O211  1  0.87046801  0.26059068  0.49746612  1
  O  O212  1  0.87223615  0.76567296  0.01340220  1
  O  O213  1  0.86164749  0.75147298  0.50820677  1
  O  O214  1  0.13331043  0.24731115  0.49122035  1
  O  O215  1  0.12904963  0.24267971  0.99034762  1
  O  O216  1  0.12670462  0.75267124  0.48898078  1
  O  O217  1  0.13686081  0.73619536  1.00549330  1
  O  O218  1  0.63565407  0.25100766  0.50082536  1
  O  O219  1  0.63009369  0.29129384  0.96760990  1
  O  O220  1  0.63324612  0.75251920  0.49158688  1
  O  O221  1  0.62780284  0.74227042  0.99410808  1
  O  O222  1  0.49409395  0.23933649  0.07099038  1
  O  O223  1  0.49294689  0.24653503  0.63419391  1
  O  O224  1  0.51173799  0.74487596  0.14247011  1
  O  O225  1  0.50647018  0.73546371  0.62169431  1
  O  O226  1  0.99180788  0.23979185  0.12898046  1
  O  O227  1  1.00892111  0.23818667  0.63440374  1
  O  O228  1  0.99252286  0.74138319  0.12788891  1
  O  O229  1  0.98685572  0.73878266  0.61048826  1
  O  O230  1  0.01336897  0.24777359  0.37195265  1
  O  O231  1  0.01179511  0.25350446  0.86476834  1
  O  O232  1  0.00572452  0.75697642  0.37743084  1
  O  O233  1  0.01050239  0.75873694  0.86977767  1
  O  O234  1  0.49945443  0.26932867  0.38461062  1
  O  O235  1  0.48942634  0.24841652  0.86277102  1
  O  O236  1  0.51760542  0.74781976  0.37243526  1
  O  O237  1  0.51399522  0.75692567  0.87686277  1
  O  O238  1  0.23631238  0.13787773  0.50996925  1
  O  O239  1  0.23759014  0.13453839  0.99759240  1
  O  O240  1  0.25066393  0.64432745  0.51314783  1
  O  O241  1  0.24560927  0.62410894  0.99888308  1
  O  O242  1  0.75035904  0.13815685  0.49007213  1
  O  O243  1  0.73234327  0.14240877  1.01788262  1
  O  O244  1  0.74900583  0.64007285  0.51172778  1
  O  O245  1  0.74180640  0.62360688  0.98957745  1
  O  O246  1  0.25595479  0.36559442  -0.00005148  1
  O  O247  1  0.26009403  0.36933952  0.50343846  1
  O  O248  1  0.26428014  0.86014430  0.01411777  1
  O  O249  1  0.25116524  0.86799950  0.50585355  1
  O  O250  1  0.76702564  0.38758232  0.01710769  1
  O  O251  1  0.75633144  0.36128300  0.49883334  1
  O  O252  1  0.75257863  0.87859872  0.01401685  1
  O  O253  1  0.75011012  0.86495694  0.51239432  1
  O  O254  1  0.13434131  0.49369041  0.25437011  1
  O  O255  1  0.13222257  0.48738718  0.73662261  1
  O  O256  1  0.12244372  0.98811384  0.23965641  1
  O  O257  1  0.14526882  1.01697566  0.72887425  1
  O  O258  1  0.63300085  0.49917189  0.24315671  1
  O  O259  1  0.63401394  0.50268282  0.74778895  1
  O  O260  1  0.61157994  0.98198712  0.24166639  1
  O  O261  1  0.61987403  1.01009649  0.74169847  1
  O  O262  1  0.37444204  -0.00556968  0.28365112  1
  O  O263  1  0.36591338  0.01543538  0.74255345  1
  O  O264  1  0.37325208  0.51272528  0.25689157  1
  O  O265  1  0.36882213  0.50030626  0.75743449  1
  O  O266  1  0.87410155  0.01368496  0.25626557  1
  O  O267  1  0.88629763  0.00240531  0.75367390  1
  O  O268  1  0.86878917  0.49341169  0.26650531  1
  O  O269  1  0.86728214  0.50981912  0.75164342  1
  O  O270  1  0.12928428  0.36594088  0.36539582  1
  O  O271  1  0.12441840  0.36859750  0.86194812  1
  O  O272  1  0.11420102  0.87373080  0.36780514  1
  O  O273  1  0.16385717  0.84704202  0.86205904  1
  O  O274  1  0.61204960  0.38269081  0.37448809  1
  O  O275  1  0.63218998  0.34467215  0.91081630  1
  O  O276  1  0.63580135  0.87195097  0.36379861  1
  O  O277  1  0.63588257  0.86113774  0.87905920  1
  O  O278  1  0.33675997  0.11324587  0.14057388  1
  O  O279  1  0.38399980  0.13872403  0.61921918  1
  O  O280  1  0.38191392  0.62161399  0.13446942  1
  O  O281  1  0.38433231  0.62364726  0.64228001  1
  O  O282  1  0.87781058  0.13009660  0.12926311  1
  O  O283  1  0.89140754  0.11484361  0.62904560  1
  O  O284  1  0.88324805  0.63639472  0.11529493  1
  O  O285  1  0.88005510  0.62998485  0.63184940  1
  O  O286  1  0.24523177  0.25180261  0.10495370  1
  O  O287  1  0.25840208  0.25556593  0.61599265  1
  O  O288  1  0.24581970  0.75731728  0.12113409  1
  O  O289  1  0.24845146  0.76846544  0.61265905  1
  O  O290  1  0.76265857  0.26343232  0.13264818  1
  O  O291  1  0.74754275  0.24616368  0.61183622  1
  O  O292  1  0.75552371  0.76110737  0.12220469  1
  O  O293  1  0.75212791  0.75927264  0.61798809  1
  O  O294  1  0.24396926  0.25888023  0.38396643  1
  O  O295  1  0.23476323  0.25160003  0.88130779  1
  O  O296  1  0.23340827  0.75559823  0.38762608  1
  O  O297  1  0.25981674  0.72940420  0.89103401  1
  O  O298  1  0.75352024  0.24055590  0.38335057  1
  O  O299  1  0.74547789  0.21694032  0.86872095  1
  O  O300  1  0.74152467  0.75034864  0.38831615  1
  O  O301  1  0.74361036  0.74070371  0.87692095  1
  O  O302  1  0.00895456  0.13032221  0.01151806  1
  O  O303  1  0.00918584  0.12741465  0.50545132  1
  O  O304  1  0.00733509  0.62205352  0.00339741  1
  O  O305  1  -0.00614758  0.61082732  0.51216690  1
  O  O306  1  0.47048477  0.09392674  0.00280451  1
  O  O307  1  0.50950035  0.13335040  0.51516696  1
  O  O308  1  0.51081899  0.61650220  -0.00399784  1
  O  O309  1  0.48823975  0.61561901  0.51907577  1
  O  O310  1  0.49341850  0.38545558  0.49749654  1
  O  O311  1  0.49385594  0.39242117  1.00060686  1
  O  O312  1  0.50658484  0.88042559  0.49788556  1
  O  O313  1  0.47999652  0.86885900  1.00374814  1
  O  O314  1  0.98782763  0.38173705  0.50796011  1
  O  O315  1  0.99408536  0.38292126  1.00347453  1
  O  O316  1  0.99437950  0.87763453  0.48677478  1
  O  O317  1  0.98852991  0.87779154  1.00641510  1
  O  O318  1  0.49368552  0.49688616  0.38831881  1
  O  O319  1  0.49178875  0.50634776  0.88204799  1
  O  O320  1  0.51637129  1.00286501  0.39242355  1
  O  O321  1  0.50540432  0.98296438  0.89182992  1
  O  O322  1  0.98925504  0.50049884  0.38658046  1
  O  O323  1  0.99651007  0.49719931  0.88890495  1
  O  O324  1  0.98830228  0.99417030  0.37312710  1
  O  O325  1  1.04831979  0.93860995  0.84876298  1
  O  O326  1  0.00824379  0.00916346  0.12917991  1
  O  O327  1  0.01327125  0.00700057  0.62095353  1
  O  O328  1  -0.00121054  0.50953025  0.11421129  1
  O  O329  1  0.00661547  0.50609319  0.61780122  1
  O  O330  1  0.50415084  -0.01503265  0.11874877  1
  O  O331  1  0.51258646  0.00943798  0.61964996  1
  O  O332  1  0.51401895  0.49903438  0.11871744  1
  O  O333  1  0.50690208  0.50337936  0.62204597  1
  O  O334  1  0.24616483  0.38648170  0.25038205  1
  O  O335  1  0.24341695  0.37673433  0.74482652  1
  O  O336  1  0.23811697  0.86250483  0.23968701  1
  O  O337  1  0.25942688  0.89586411  0.72686216  1
  O  O338  1  0.74745168  0.38311960  0.24368648  1
  O  O339  1  0.75994874  0.38576355  0.75634515  1
  O  O340  1  0.73494544  0.86949180  0.23931132  1
  O  O341  1  0.75620690  0.87386752  0.73456032  1
  O  O342  1  0.28393631  0.10985654  0.20327473  1
  O  O343  1  0.26286675  0.11906793  0.74172981  1
  O  O344  1  0.26723109  0.62359682  0.24816426  1
  O  O345  1  0.25905793  0.62119603  0.75507853  1
  O  O346  1  0.75614956  0.13619903  0.25888788  1
  O  O347  1  0.77661683  0.12093203  0.73795583  1
  O  O348  1  0.74939222  0.61549489  0.24956348  1
  O  O349  1  0.75738454  0.61629083  0.75828030  1
  O  O350  1  0.35168782  0.13175485  0.40229132  1
  O  O351  1  0.37305104  0.12389986  0.86255325  1
  O  O352  1  0.38161123  0.61527167  0.37486151  1
  O  O353  1  0.37194870  0.61644497  0.86441914  1
  O  O354  1  0.86801210  0.12175456  0.36602847  1
  O  O355  1  0.88634806  0.11820583  0.86309118  1
  O  O356  1  0.87634251  0.61039874  0.38036295  1
  O  O357  1  0.86836974  0.63078902  0.86860910  1
  O  O358  1  0.13177783  0.37601134  0.13612610  1
  O  O359  1  0.13010028  0.37920822  0.63089637  1
  O  O360  1  0.12323318  0.87716673  0.13281705  1
  O  O361  1  0.12987213  0.89095367  0.61539903  1
  O  O362  1  0.64171020  0.39635477  0.11794002  1
  O  O363  1  0.63188003  0.38750318  0.62506736  1
  O  O364  1  0.63280648  0.87584538  0.13289344  1
  O  O365  1  0.63632463  0.88673894  0.62908398  1
  O  O366  1  0.13185505  0.25422461  0.25653073  1
  O  O367  1  0.12153264  0.25497360  0.75239327  1
  O  O368  1  0.12163789  0.75711452  0.26503942  1
  O  O369  1  0.12390317  0.75004696  0.75620739  1
  O  O370  1  0.59579757  0.26401342  0.20135949  1
  O  O371  1  0.61005878  0.24298497  0.75137515  1
  O  O372  1  0.61960800  0.75181408  0.26361963  1
  O  O373  1  0.63083697  0.74555053  0.76363608  1
  O  O374  1  0.37986740  0.24295189  0.24355762  1
  O  O375  1  0.37606303  0.24098233  0.74309918  1
  O  O376  1  0.38910284  0.73857720  0.25680855  1
  O  O377  1  0.36222030  0.74132026  0.75753514  1
  O  O378  1  0.87715108  0.24246232  0.24284369  1
  O  O379  1  0.88904614  0.24546371  0.75505643  1
  O  O380  1  0.87466465  0.75533687  0.23692072  1
  O  O381  1  0.86519172  0.73947919  0.73763188  1
  O  O382  1  0.38022184  0.49466480  0.49865860  1
  O  O383  1  0.38226943  0.49602956  0.99223138  1
  O  O384  1  0.40144277  1.00052964  0.50495328  1
  O  O385  1  0.37663965  0.97388752  1.00383551  1
  O  O386  1  0.87859881  0.49320211  0.49187069  1
  O  O387  1  0.88338877  0.49289740  0.99991128  1
  O  O388  1  0.87640198  1.00123272  0.48717195  1
  O  O389  1  0.87286630  0.99038183  1.00883352  1
  O  O390  1  0.12874385  0.00901289  0.00813309  1
  O  O391  1  0.12621893  0.01052065  0.49897894  1
  O  O392  1  0.11984605  0.50711773  0.00255987  1
  O  O393  1  0.11725623  0.48915393  0.51088379  1
  O  O394  1  0.60537420  -0.01162923  0.01524490  1
  O  O395  1  0.61729747  0.00401492  0.51518762  1
  O  O396  1  0.62017501  0.51063915  0.00553494  1
  O  O397  1  0.61572895  0.49940093  0.51091953  1
  O  O398  1  0.37379252  0.38218207  0.10933227  1
  O  O399  1  0.37217909  0.36925190  0.61863037  1
  O  O400  1  0.36186769  0.87654936  0.13991136  1
  O  O401  1  0.36989826  0.87882815  0.61303136  1
  O  O402  1  0.87368146  0.36901762  0.12355756  1
  O  O403  1  0.86512456  0.38529364  0.60707858  1
  O  O404  1  0.86171733  0.87393902  0.12418653  1
  O  O405  1  0.86643697  0.86802244  0.62259805  1
  O  O406  1  0.12375784  0.13231968  0.38210063  1
  O  O407  1  0.11075300  0.12799281  0.88255067  1
  O  O408  1  0.11758023  0.63738152  0.37502912  1
  O  O409  1  0.13678883  0.61685013  0.88666903  1
  O  O410  1  0.63890532  0.12485552  0.36951355  1
  O  O411  1  0.59895456  0.13658316  0.90578126  1
  O  O412  1  0.62602380  0.63186981  0.37750786  1
  O  O413  1  0.63148470  0.63493883  0.88175827  1
