# generated using pymatgen
data_V79Zn79O256
_symmetry_space_group_name_H-M   'P 1'
_cell_length_a   16.88948175
_cell_length_b   16.89463132
_cell_length_c   16.94160019
_cell_angle_alpha   89.99256480
_cell_angle_beta   89.88576327
_cell_angle_gamma   89.87881934
_symmetry_Int_Tables_number   1
_chemical_formula_structural   V79Zn79O256
_chemical_formula_sum   'V79 Zn79 O256'
_cell_volume   4834.12229275
_cell_formula_units_Z   1
loop_
 _symmetry_equiv_pos_site_id
 _symmetry_equiv_pos_as_xyz
  1  'x, y, z'
loop_
 _atom_site_type_symbol
 _atom_site_label
 _atom_site_symmetry_multiplicity
 _atom_site_fract_x
 _atom_site_fract_y
 _atom_site_fract_z
 _atom_site_occupancy
  V  V0  1  0.25957130  0.00177206  0.25604859  1
  V  V1  1  0.62384264  0.50780347  0.62461428  1
  V  V2  1  0.75284796  0.26428204  0.00000660  1
  V  V3  1  0.62953207  0.12319102  -0.01112995  1
  V  V4  1  0.75123614  0.63226888  0.87954782  1
  V  V5  1  0.87872779  0.25156989  0.62405023  1
  V  V6  1  0.87553839  0.49803406  0.87654817  1
  V  V7  1  0.13326826  0.38361967  0.74843313  1
  V  V8  1  0.50400859  0.25332467  0.24559772  1
  V  V9  1  0.50881195  0.36873544  0.86884380  1
  V  V10  1  0.87621028  -0.01093217  0.37344561  1
  V  V11  1  0.13621193  0.87453284  0.24259836  1
  V  V12  1  0.00293369  0.25198278  0.74865728  1
  V  V13  1  0.12893833  0.49330936  0.12360061  1
  V  V14  1  0.62452288  0.75480000  0.86051709  1
  V  V15  1  0.87571162  0.13009404  0.24970144  1
  V  V16  1  0.89169922  0.38341309  0.49390147  1
  V  V17  1  0.62987383  0.25680674  0.36826708  1
  V  V18  1  0.36953898  0.50488092  0.37641164  1
  V  V19  1  0.00371362  0.75479317  0.75066408  1
  V  V20  1  0.48397266  -0.00674630  0.00257590  1
  V  V21  1  0.13188061  0.11763682  0.49966273  1
  V  V22  1  0.87517351  0.63084679  0.74604885  1
  V  V23  1  0.50147209  0.62641136  0.12660280  1
  V  V24  1  0.00398506  0.11721282  0.12165021  1
  V  V25  1  0.25119014  0.37110785  0.61911246  1
  V  V26  1  -0.00224505  0.50380429  -0.00071560  1
  V  V27  1  0.25135823  0.49456525  0.24542740  1
  V  V28  1  0.75469946  0.12254372  0.37042800  1
  V  V29  1  0.36822970  0.37125205  0.00364498  1
  V  V30  1  0.74752738  0.37704696  0.62468218  1
  V  V31  1  0.50885425  0.75189955  0.26094103  1
  V  V32  1  0.37467821  0.12294917  0.26574253  1
  V  V33  1  0.25392473  0.72696434  0.49680776  1
  V  V34  1  0.25287278  0.76390419  0.00168509  1
  V  V35  1  0.37111828  0.76331456  0.12231236  1
  V  V36  1  0.26752231  0.12245255  0.87364712  1
  V  V37  1  -0.00199198  -0.00711450  0.50594619  1
  V  V38  1  0.73188369  0.62714644  0.37702869  1
  V  V39  1  0.50016825  0.89561234  0.38299972  1
  V  V40  1  0.37170416  0.37380234  0.49977324  1
  V  V41  1  0.00183347  0.25296485  0.25734915  1
  V  V42  1  0.50250231  0.50899014  0.49898223  1
  V  V43  1  0.24373636  0.89253349  0.62137644  1
  V  V44  1  0.12582374  0.50306828  0.61446789  1
  V  V45  1  0.12376426  0.37520508  0.25938964  1
  V  V46  1  -0.00294500  0.88415377  0.87959732  1
  V  V47  1  0.23416042  -0.00800095  0.75782413  1
  V  V48  1  0.48804909  0.87006921  0.88042199  1
  V  V49  1  0.62202441  0.11791437  0.50969474  1
  V  V50  1  0.13783430  0.24054818  0.37769481  1
  V  V51  1  0.75801527  0.12264279  0.86886121  1
  V  V52  1  0.62972337  0.48825355  0.12817051  1
  V  V53  1  -0.00234797  0.62998299  0.12841899  1
  V  V54  1  -0.00042568  0.37892499  0.87493868  1
  V  V55  1  -0.00879788  0.76061150  0.24807922  1
  V  V56  1  0.48419601  0.22523352  0.71021737  1
  V  V57  1  0.63495426  0.89285194  0.25140494  1
  V  V58  1  0.50450787  0.37894861  0.36979573  1
  V  V59  1  0.36798699  0.62614625  0.25230729  1
  V  V60  1  0.75299672  0.25329634  0.49873012  1
  V  V61  1  0.86944094  0.11904989  0.74857029  1
  V  V62  1  0.74814384  0.49897854  0.74950354  1
  V  V63  1  0.86198054  0.89374650  -0.00787578  1
  V  V64  1  0.86300199  0.75180440  0.10942300  1
  V  V65  1  0.74063331  0.74761727  0.50348120  1
  V  V66  1  0.50623781  0.11922714  0.12665103  1
  V  V67  1  0.37586785  0.75170446  0.63503786  1
  V  V68  1  0.12940767  0.75229396  0.87357557  1
  V  V69  1  0.74648301  0.88962120  0.62724509  1
  V  V70  1  -0.00114055  0.62198436  0.61627040  1
  V  V71  1  0.12586806  0.24747566  0.87922824  1
  V  V72  1  0.49282361  0.62705176  0.64114231  1
  V  V73  1  0.63027981  0.63530910  0.00330756  1
  V  V74  1  0.74608036  0.49029148  0.25160489  1
  V  V75  1  0.88804675  0.50650282  0.37122098  1
  V  V76  1  0.50101809  0.49953753  -0.00167279  1
  V  V77  1  0.13508469  0.62784206  -0.00412421  1
  V  V78  1  0.36561358  0.50770891  0.86522929  1
  Zn  Zn79  1  0.23871304  0.24765044  0.00942217  1
  Zn  Zn80  1  0.62048727  -0.08779834  0.73824864  1
  Zn  Zn81  1  0.00996654  0.11792180  0.62716832  1
  Zn  Zn82  1  0.14210390  0.74495618  0.36723743  1
  Zn  Zn83  1  0.86344296  0.26972554  0.12713894  1
  Zn  Zn84  1  0.69668142  0.94811198  0.09057704  1
  Zn  Zn85  1  0.62995836  0.33907174  0.75470336  1
  Zn  Zn86  1  0.29666108  0.20226800  0.52394221  1
  Zn  Zn87  1  0.11478380  0.10492311  -0.01272384  1
  Zn  Zn88  1  0.11871363  0.61970655  0.48538087  1
  Zn  Zn89  1  0.00644910  0.86912990  0.37996577  1
  Zn  Zn90  1  0.88424267  0.76400241  0.60183270  1
  Zn  Zn91  1  0.36596803  0.25148044  0.13043864  1
  Zn  Zn92  1  0.37838082  0.87067791  0.49446058  1
  Zn  Zn93  1  0.14003887  -0.00849464  0.11452163  1
  Zn  Zn94  1  0.18504782  0.18407574  0.18697279  1
  Zn  Zn95  1  0.22023267  0.16629268  0.66809224  1
  Zn  Zn96  1  0.18658588  0.68690210  0.18277455  1
  Zn  Zn97  1  0.18454526  0.69495622  0.68032687  1
  Zn  Zn98  1  0.68897240  0.18798154  0.18172191  1
  Zn  Zn99  1  0.63849316  0.12208969  0.72113263  1
  Zn  Zn100  1  0.69146398  0.68060663  0.19469951  1
  Zn  Zn101  1  0.68659325  0.68795839  0.68337967  1
  Zn  Zn102  1  0.31382323  0.31323114  0.31431343  1
  Zn  Zn103  1  0.31707862  0.31235495  0.81227808  1
  Zn  Zn104  1  0.31887002  0.81591231  0.31455315  1
  Zn  Zn105  1  0.30643234  0.68550034  0.81673659  1
  Zn  Zn106  1  0.81782855  0.31766128  0.31421873  1
  Zn  Zn107  1  0.80948290  0.30701416  0.81627419  1
  Zn  Zn108  1  0.80950386  0.80366234  0.31258968  1
  Zn  Zn109  1  0.81028283  0.82288176  0.80582065  1
  Zn  Zn110  1  0.18798097  0.44007829  0.43400219  1
  Zn  Zn111  1  0.18656103  0.43752872  0.93661866  1
  Zn  Zn112  1  0.18869414  0.93522197  0.43325965  1
  Zn  Zn113  1  0.18702463  0.93752853  0.93530374  1
  Zn  Zn114  1  0.68982265  0.44116803  0.43940266  1
  Zn  Zn115  1  0.68548645  0.44328221  0.93725254  1
  Zn  Zn116  1  0.68616669  0.93016424  0.43900753  1
  Zn  Zn117  1  0.68169162  0.94731492  0.92135389  1
  Zn  Zn118  1  0.30972506  0.07026660  0.06978356  1
  Zn  Zn119  1  0.37258781  0.06787275  0.66511125  1
  Zn  Zn120  1  0.31495959  0.56403884  0.06207201  1
  Zn  Zn121  1  0.30664868  0.55838826  0.68574797  1
  Zn  Zn122  1  0.81829783  0.07783385  0.06001144  1
  Zn  Zn123  1  0.81377473  0.06439873  0.55863672  1
  Zn  Zn124  1  0.81348545  0.56184816  0.06709922  1
  Zn  Zn125  1  0.81358082  0.56615606  0.55641926  1
  Zn  Zn126  1  0.43866723  0.43823742  0.18538326  1
  Zn  Zn127  1  0.43954538  0.42783557  0.68682019  1
  Zn  Zn128  1  0.44455973  0.94015443  0.19083301  1
  Zn  Zn129  1  0.37996886  0.87977796  0.75349676  1
  Zn  Zn130  1  0.93496223  0.43994332  0.19296605  1
  Zn  Zn131  1  0.93903045  0.44087071  0.68646429  1
  Zn  Zn132  1  0.88165813  0.95803436  0.16619519  1
  Zn  Zn133  1  0.93298218  0.93272260  0.68651611  1
  Zn  Zn134  1  0.06097914  0.05696748  0.31103337  1
  Zn  Zn135  1  0.05991483  0.06458659  0.80741496  1
  Zn  Zn136  1  0.06588956  0.57118648  0.30833851  1
  Zn  Zn137  1  0.06891466  0.56940878  0.80750795  1
  Zn  Zn138  1  0.56710987  0.06773875  0.31853787  1
  Zn  Zn139  1  0.48841014  0.02679591  0.78166126  1
  Zn  Zn140  1  0.56286868  0.56297314  0.30921454  1
  Zn  Zn141  1  0.56494503  0.56026451  0.81415799  1
  Zn  Zn142  1  0.44906003  0.18846670  0.43891133  1
  Zn  Zn143  1  0.44418610  0.18768529  0.93910422  1
  Zn  Zn144  1  0.43565556  0.68774572  0.44195768  1
  Zn  Zn145  1  0.43981856  0.68861768  0.93985569  1
  Zn  Zn146  1  0.94568077  0.18578779  0.43789904  1
  Zn  Zn147  1  0.93462644  0.19087295  0.93958163  1
  Zn  Zn148  1  0.92872864  0.68807427  0.43178895  1
  Zn  Zn149  1  0.94023520  0.68969480  0.93677716  1
  Zn  Zn150  1  0.02303207  0.32898563  0.08169572  1
  Zn  Zn151  1  0.07091910  0.30941940  0.56076270  1
  Zn  Zn152  1  0.05803278  0.81937068  0.05935823  1
  Zn  Zn153  1  0.06973611  0.80970051  0.56269188  1
  Zn  Zn154  1  0.56440078  0.30717244  0.05678689  1
  Zn  Zn155  1  0.56617331  0.31527529  0.55587828  1
  Zn  Zn156  1  0.56381946  0.81492617  0.06974341  1
  Zn  Zn157  1  0.56666684  0.81112082  0.56199326  1
  O  O158  1  0.11096888  0.11257608  0.13177932  1
  O  O159  1  0.12679920  0.13115415  0.60554128  1
  O  O160  1  0.11807603  0.61781966  0.11567756  1
  O  O161  1  0.11761865  0.61390308  0.62171036  1
  O  O162  1  0.61199013  0.12605705  0.12138847  1
  O  O163  1  0.64399228  0.13039716  0.60642767  1
  O  O164  1  0.61771164  0.61878913  0.12139807  1
  O  O165  1  0.61092178  0.61643684  0.62697807  1
  O  O166  1  0.38390495  0.38651199  0.37622781  1
  O  O167  1  0.38729311  0.38859243  0.88384189  1
  O  O168  1  0.39438816  0.87617490  0.37481542  1
  O  O169  1  0.39039482  0.85754914  0.87817406  1
  O  O170  1  0.87521379  0.38521255  0.38846515  1
  O  O171  1  0.88493632  0.38894175  0.86571191  1
  O  O172  1  0.87347858  0.88818718  0.36724137  1
  O  O173  1  0.88119937  0.86905272  0.88424306  1
  O  O174  1  0.24995762  -0.00389626  0.35612832  1
  O  O175  1  0.25016362  0.00739791  0.86657812  1
  O  O176  1  0.26139571  0.49838922  0.36209051  1
  O  O177  1  0.26709583  0.49890373  0.87967394  1
  O  O178  1  0.76642768  0.01229655  0.38502846  1
  O  O179  1  0.75131573  0.02271571  0.87170443  1
  O  O180  1  0.75102725  0.50644018  0.36782975  1
  O  O181  1  0.75749976  0.50896491  0.87013402  1
  O  O182  1  0.24106217  0.50581485  0.13298955  1
  O  O183  1  0.23194348  0.49054492  0.62867004  1
  O  O184  1  0.25106900  1.00794436  0.14529321  1
  O  O185  1  0.25325566  0.99553601  0.64155555  1
  O  O186  1  0.74557526  0.50770900  0.14172006  1
  O  O187  1  0.74474354  0.49530209  0.62690377  1
  O  O188  1  0.77965108  1.00531803  0.13659097  1
  O  O189  1  0.75085955  0.98920012  0.61575313  1
  O  O190  1  0.01586805  0.36856081  0.24886722  1
  O  O191  1  0.00633989  0.37203846  0.75764190  1
  O  O192  1  0.01333921  0.86337349  0.24984605  1
  O  O193  1  -0.01409031  0.86176636  0.76173059  1
  O  O194  1  0.49420913  0.36759403  0.25941067  1
  O  O195  1  0.50715723  0.37772640  0.76329784  1
  O  O196  1  0.50660594  0.86607870  0.25990503  1
  O  O197  1  0.50562854  0.88198354  0.77725072  1
  O  O198  1  0.49508725  0.13171061  0.24692956  1
  O  O199  1  0.47595312  0.12259086  0.70428631  1
  O  O200  1  0.49384144  0.63332248  0.24307400  1
  O  O201  1  0.50029469  0.62207053  0.73981713  1
  O  O202  1  0.99199158  0.13175868  0.24874531  1
  O  O203  1  0.99174751  0.13644752  0.74480562  1
  O  O204  1  1.00839410  0.64267206  0.23504527  1
  O  O205  1  0.99335105  0.63301037  0.74125178  1
  O  O206  1  0.37953352  0.26602049  -0.00118078  1
  O  O207  1  0.37646755  0.26870993  0.47979080  1
  O  O208  1  0.37032444  0.74360347  0.01538687  1
  O  O209  1  0.36668797  0.74864680  0.51109266  1
  O  O210  1  0.85812899  0.24910651  0.00144398  1
  O  O211  1  0.87323666  0.26189540  0.50328128  1
  O  O212  1  0.87075328  0.74967167  0.00594123  1
  O  O213  1  0.85697167  0.74779312  0.49361927  1
  O  O214  1  0.11689591  0.23816984  0.48400944  1
  O  O215  1  0.12214333  0.25769241  0.98120907  1
  O  O216  1  0.14447479  0.74520211  0.50141161  1
  O  O217  1  0.13197186  0.74573738  0.99667495  1
  O  O218  1  0.63788070  0.24897546  0.48901260  1
  O  O219  1  0.63451140  0.23263680  1.00541657  1
  O  O220  1  0.63933632  0.74430999  0.50055058  1
  O  O221  1  0.62446828  0.73754906  1.00337766  1
  O  O222  1  0.50045289  0.24594084  0.13565390  1
  O  O223  1  0.48540635  0.26783089  0.61805284  1
  O  O224  1  0.49048460  0.74224155  0.13178564  1
  O  O225  1  0.48837071  0.73642926  0.61877289  1
  O  O226  1  1.01285084  0.23492985  0.14658168  1
  O  O227  1  0.99241758  0.25548291  0.63251023  1
  O  O228  1  0.99364977  0.74673163  0.12799573  1
  O  O229  1  0.99957578  0.74497549  0.63325655  1
  O  O230  1  0.01014268  0.24786333  0.36308921  1
  O  O231  1  0.00256058  0.26034892  0.86787815  1
  O  O232  1  -0.00969608  0.74970604  0.35488233  1
  O  O233  1  0.00712311  0.75330802  0.86741863  1
  O  O234  1  0.51108364  0.25961608  0.36588194  1
  O  O235  1  0.50344070  0.27045612  0.88673316  1
  O  O236  1  0.49630633  0.74518006  0.36062701  1
  O  O237  1  0.51668825  0.75866322  0.88927117  1
  O  O238  1  0.23045398  0.11650304  0.48551010  1
  O  O239  1  0.24446363  0.12328524  0.98237738  1
  O  O240  1  0.25346667  0.62938041  0.50127629  1
  O  O241  1  0.23970357  0.63290729  1.00601584  1
  O  O242  1  0.75281372  0.13976262  0.48857770  1
  O  O243  1  0.74474884  0.13153210  0.98945914  1
  O  O244  1  0.74815344  0.62829867  0.48763092  1
  O  O245  1  0.74280848  0.61557060  0.98873271  1
  O  O246  1  0.26507599  0.37227511  -0.00761183  1
  O  O247  1  0.26169653  0.38603284  0.50375662  1
  O  O248  1  0.24923463  0.86287245  -0.00042050  1
  O  O249  1  0.26340763  0.89313891  0.51350355  1
  O  O250  1  0.74247634  0.36418296  -0.00596828  1
  O  O251  1  0.75760461  0.37001395  0.50628289  1
  O  O252  1  0.75779434  0.88887726  -0.00518467  1
  O  O253  1  0.74380702  0.86061599  0.51101146  1
  O  O254  1  0.13191517  0.49507279  0.24375140  1
  O  O255  1  0.12011412  0.48922538  0.74291376  1
  O  O256  1  0.13401494  0.98713457  0.25028957  1
  O  O257  1  0.13450158  0.99481382  0.75211197  1
  O  O258  1  0.63482703  0.50197173  0.24225096  1
  O  O259  1  0.63291190  0.50226807  0.73814558  1
  O  O260  1  0.62551769  0.99341920  0.25210166  1
  O  O261  1  0.60042448  1.02222675  0.75928281  1
  O  O262  1  0.37206478  0.01129171  0.24923880  1
  O  O263  1  0.37984420  -0.00436256  0.75016332  1
  O  O264  1  0.37068252  0.50576507  0.25398701  1
  O  O265  1  0.37581035  0.49616401  0.76111454  1
  O  O266  1  0.88128084  0.01597351  0.26843351  1
  O  O267  1  0.87854626  0.02083614  0.73920826  1
  O  O268  1  0.86302782  0.49497602  0.26291189  1
  O  O269  1  0.87050076  0.50948225  0.75748377  1
  O  O270  1  0.12967162  0.36507400  0.36642764  1
  O  O271  1  0.12095428  0.37161666  0.86453889  1
  O  O272  1  0.12557365  0.86575375  0.36079427  1
  O  O273  1  0.10937156  0.86153777  0.88043603  1
  O  O274  1  0.61690898  0.36816483  0.38062431  1
  O  O275  1  0.61394903  0.38443673  0.86976459  1
  O  O276  1  0.61080044  0.87815370  0.36384734  1
  O  O277  1  0.62811696  0.85974217  0.87243665  1
  O  O278  1  0.39255827  0.12975361  0.13350059  1
  O  O279  1  0.32471332  0.15315630  0.62001310  1
  O  O280  1  0.38661027  0.62652647  0.13355896  1
  O  O281  1  0.38482861  0.63113439  0.63128166  1
  O  O282  1  0.88508729  0.14102259  0.13732019  1
  O  O283  1  0.87292119  0.14100799  0.62874437  1
  O  O284  1  0.88811120  0.63696769  0.11619825  1
  O  O285  1  0.88224984  0.61976667  0.63470330  1
  O  O286  1  0.25419081  0.23860941  0.11951096  1
  O  O287  1  0.22975995  0.27153708  0.60693379  1
  O  O288  1  0.26502021  0.74741478  0.12034792  1
  O  O289  1  0.25997874  0.75573969  0.61269612  1
  O  O290  1  0.74931149  0.24967515  0.10939107  1
  O  O291  1  0.76378682  0.26339927  0.61381380  1
  O  O292  1  0.76562957  0.74004355  0.12996916  1
  O  O293  1  0.75535292  0.74287954  0.61207531  1
  O  O294  1  0.23875155  0.24966740  0.37551851  1
  O  O295  1  0.24406234  0.23586446  0.86984120  1
  O  O296  1  0.26149734  0.75516424  0.39426816  1
  O  O297  1  0.23844912  0.74926120  0.88603988  1
  O  O298  1  0.74778979  0.24948554  0.38096848  1
  O  O299  1  0.74844770  0.24211653  0.88770406  1
  O  O300  1  0.75067187  0.73379265  0.38101401  1
  O  O301  1  0.73936804  0.73958234  0.86911742  1
  O  O302  1  -0.00022313  0.13557519  0.01745146  1
  O  O303  1  0.00705963  0.11387370  0.50355101  1
  O  O304  1  0.01064548  0.61944686  0.00559777  1
  O  O305  1  -0.00195318  0.63577557  0.51372655  1
  O  O306  1  0.51066009  0.11390926  0.00298295  1
  O  O307  1  0.52141264  0.13332910  0.50107561  1
  O  O308  1  0.50759024  0.61837051  0.00919174  1
  O  O309  1  0.49485423  0.61184783  0.50684822  1
  O  O310  1  0.49389788  0.38419852  0.48739492  1
  O  O311  1  0.49736686  0.38627121  0.99266148  1
  O  O312  1  0.50099438  0.86857973  0.48517646  1
  O  O313  1  0.50659499  0.88573237  0.99845949  1
  O  O314  1  0.98964440  0.37406273  0.50438250  1
  O  O315  1  1.01195037  0.39080882  0.98164047  1
  O  O316  1  1.00884792  0.88685239  0.49842542  1
  O  O317  1  0.98733054  0.87035364  0.98423251  1
  O  O318  1  0.49639833  0.49508989  0.37754424  1
  O  O319  1  0.49491051  0.49790411  0.88476721  1
  O  O320  1  0.49974920  0.99539852  0.37868769  1
  O  O321  1  0.49947690  0.98521430  0.89509039  1
  O  O322  1  0.98710368  0.50563940  0.36277279  1
  O  O323  1  0.99518748  0.49959227  0.87812091  1
  O  O324  1  0.98967937  0.99533442  0.38200570  1
  O  O325  1  1.00310599  0.98239828  0.86509271  1
  O  O326  1  -0.01714413  0.01877321  0.13410015  1
  O  O327  1  -0.00605866  -0.00190879  0.61047969  1
  O  O328  1  0.00737813  0.51109020  0.11783996  1
  O  O329  1  0.01186157  0.50958634  0.62966185  1
  O  O330  1  0.50014270  0.00556138  0.11386165  1
  O  O331  1  0.50966536  -0.01601594  0.59365261  1
  O  O332  1  0.50733116  0.50892953  0.12019117  1
  O  O333  1  0.50295814  0.50817881  0.62059056  1
  O  O334  1  0.24324781  0.38591650  0.24930220  1
  O  O335  1  0.24031428  0.36591579  0.73954401  1
  O  O336  1  0.24483563  0.88163313  0.24953644  1
  O  O337  1  0.25675791  0.88693915  0.74001481  1
  O  O338  1  0.74800826  0.38969684  0.25703005  1
  O  O339  1  0.74737712  0.37642380  0.74155304  1
  O  O340  1  0.73302286  0.87236374  0.26223994  1
  O  O341  1  0.73955994  0.87660572  0.73632567  1
  O  O342  1  0.26729547  0.11888899  0.25381592  1
  O  O343  1  0.24781065  0.10907979  0.76461850  1
  O  O344  1  0.26196301  0.61682001  0.24375093  1
  O  O345  1  0.24187212  0.62600357  0.74776222  1
  O  O346  1  0.76090859  0.13823957  0.26158383  1
  O  O347  1  0.75408877  0.13933286  0.76262140  1
  O  O348  1  0.74837159  0.61435625  0.26862595  1
  O  O349  1  0.75689951  0.62059717  0.75786512  1
  O  O350  1  0.38589264  0.12665098  0.36412364  1
  O  O351  1  0.36672735  0.12838309  0.87771614  1
  O  O352  1  0.38430573  0.61499795  0.36269180  1
  O  O353  1  0.37982077  0.61454422  0.87594586  1
  O  O354  1  0.87038046  0.12723730  0.36839318  1
  O  O355  1  0.86682117  0.13347056  0.86408833  1
  O  O356  1  0.86523000  0.60696391  0.37936504  1
  O  O357  1  0.87010944  0.61841029  0.86777800  1
  O  O358  1  0.11795954  0.38998379  0.13022507  1
  O  O359  1  0.12585988  0.38685807  0.62836091  1
  O  O360  1  0.12164954  0.87505623  0.13827908  1
  O  O361  1  0.14564350  0.87414953  0.62245997  1
  O  O362  1  0.61879987  0.38995565  0.11721061  1
  O  O363  1  0.63673077  0.38027412  0.62773117  1
  O  O364  1  0.62468981  0.87596817  0.14321086  1
  O  O365  1  0.63657683  0.87036688  0.62886697  1
  O  O366  1  0.12466287  0.25541300  0.26152152  1
  O  O367  1  0.11164371  0.26048410  0.75603920  1
  O  O368  1  0.12248612  0.76010380  0.24571900  1
  O  O369  1  0.11288035  0.74577757  0.75855538  1
  O  O370  1  0.61765776  0.24549148  0.25907497  1
  O  O371  1  0.58719529  0.23155098  0.74354028  1
  O  O372  1  0.60958991  0.74937061  0.24524301  1
  O  O373  1  0.61999058  0.74285416  0.76226392  1
  O  O374  1  0.38555907  0.24090896  0.25293924  1
  O  O375  1  0.39971885  0.25682322  0.75881455  1
  O  O376  1  0.38192320  0.74349674  0.24009956  1
  O  O377  1  0.36856324  0.75447088  0.73741126  1
  O  O378  1  0.88461351  0.24847506  0.25220698  1
  O  O379  1  0.88451251  0.25018606  0.74186558  1
  O  O380  1  0.88665980  0.76432059  0.23193072  1
  O  O381  1  0.88115376  0.73764496  0.75447571  1
  O  O382  1  0.38672983  0.49107527  0.48579395  1
  O  O383  1  0.38397549  0.49517813  0.99442614  1
  O  O384  1  0.44311810  1.00353351  0.56845216  1
  O  O385  1  0.38565572  1.00290333  1.00556369  1
  O  O386  1  0.87463243  0.49004161  0.49006234  1
  O  O387  1  0.88695079  0.50999415  0.98903456  1
  O  O388  1  0.88888152  1.00714027  0.48641141  1
  O  O389  1  0.87813064  0.99141893  0.99701092  1
  O  O390  1  0.11999816  -0.00597343  0.00436069  1
  O  O391  1  0.11069762  0.01024104  0.48588749  1
  O  O392  1  0.12011163  0.50775402  0.00417192  1
  O  O393  1  0.12395648  0.49983546  0.51076612  1
  O  O394  1  0.63197410  0.01271170  0.00697000  1
  O  O395  1  0.63534004  0.01978524  0.48909199  1
  O  O396  1  0.61824305  0.51131557  0.00714649  1
  O  O397  1  0.61473326  0.49058052  0.51423834  1
  O  O398  1  0.38143678  0.37721345  0.10766467  1
  O  O399  1  0.36341983  0.38542194  0.61269115  1
  O  O400  1  0.38202813  0.86099301  0.13164665  1
  O  O401  1  0.37001780  0.85881237  0.62315209  1
  O  O402  1  0.91556797  0.36796669  0.11159646  1
  O  O403  1  0.86926914  0.37475595  0.61548460  1
  O  O404  1  0.87811219  0.86237881  0.10195817  1
  O  O405  1  0.85520359  0.87013437  0.63235561  1
  O  O406  1  0.12110561  0.13549937  0.37572024  1
  O  O407  1  0.12249592  0.13555803  0.87299182  1
  O  O408  1  0.12789166  0.63237217  0.37484225  1
  O  O409  1  0.11750713  0.63654727  0.88681328  1
  O  O410  1  0.63738916  0.13898588  0.38006173  1
  O  O411  1  0.63425535  0.12649542  0.88907080  1
  O  O412  1  0.63170077  0.61990171  0.37911680  1
  O  O413  1  0.63055173  0.63369728  0.88303445  1
