# generated using pymatgen
data_V79Zn79O256
_symmetry_space_group_name_H-M   'P 1'
_cell_length_a   16.85375450
_cell_length_b   16.87337363
_cell_length_c   16.87892255
_cell_angle_alpha   90.02202560
_cell_angle_beta   90.09289770
_cell_angle_gamma   90.04085532
_symmetry_Int_Tables_number   1
_chemical_formula_structural   V79Zn79O256
_chemical_formula_sum   'V79 Zn79 O256'
_cell_volume   4800.01498899
_cell_formula_units_Z   1
loop_
 _symmetry_equiv_pos_site_id
 _symmetry_equiv_pos_as_xyz
  1  'x, y, z'
loop_
 _atom_site_type_symbol
 _atom_site_label
 _atom_site_symmetry_multiplicity
 _atom_site_fract_x
 _atom_site_fract_y
 _atom_site_fract_z
 _atom_site_occupancy
  V  V0  1  0.62831802  0.62844955  0.00087727  1
  V  V1  1  0.61384903  0.87443871  0.25174069  1
  V  V2  1  0.37717772  0.37956086  0.00915536  1
  V  V3  1  0.25504108  0.75290772  0.49900369  1
  V  V4  1  0.00163902  0.12539881  0.12293537  1
  V  V5  1  0.86965753  0.00517533  0.37356278  1
  V  V6  1  0.62477175  0.75547094  0.87377680  1
  V  V7  1  0.00379792  0.25975625  0.24913341  1
  V  V8  1  0.27363683  0.62041252  0.87419520  1
  V  V9  1  0.37829665  0.24256541  0.63710583  1
  V  V10  1  0.50386476  0.63104027  0.13231914  1
  V  V11  1  0.87318636  0.13320301  0.74768815  1
  V  V12  1  0.12764647  0.12503988  0.50318831  1
  V  V13  1  0.49455722  0.73531655  0.74962849  1
  V  V14  1  0.37490226  0.49005256  0.37838556  1
  V  V15  1  0.00209355  0.87459387  0.37228817  1
  V  V16  1  0.25263177  0.62580007  0.37341559  1
  V  V17  1  0.63790169  0.74480408  0.38140534  1
  V  V18  1  0.47733833  0.24321701  0.24541109  1
  V  V19  1  0.86955042  0.49989832  0.87227195  1
  V  V20  1  0.26959608  0.12651669  0.87577906  1
  V  V21  1  0.51283864  0.08495511  0.08602062  1
  V  V22  1  0.48371730  -0.04698250  -0.03125472  1
  V  V23  1  0.00365137  0.75368143  0.74551465  1
  V  V24  1  0.77071549  0.37011418  0.62614637  1
  V  V25  1  0.51939399  0.37636683  0.37375967  1
  V  V26  1  0.25871521  0.25778964  0.50022512  1
  V  V27  1  0.26340339  0.78017954  -0.02241365  1
  V  V28  1  0.12440349  0.25673310  0.37198584  1
  V  V29  1  0.12422113  0.12359834  -0.00293108  1
  V  V30  1  0.24770215  0.37898780  0.62971525  1
  V  V31  1  0.75097966  -0.00049124  0.75357826  1
  V  V32  1  0.12370054  0.75313902  0.37161053  1
  V  V33  1  0.37799120  0.74449921  0.62480943  1
  V  V34  1  0.00664510  0.87749479  0.87453873  1
  V  V35  1  0.87018414  0.12475489  0.25220081  1
  V  V36  1  0.88220355  0.87649994  0.00019260  1
  V  V37  1  0.37632107  0.75260045  0.12739959  1
  V  V38  1  0.87308592  0.61280361  0.25507182  1
  V  V39  1  0.12231020  0.61896240  0.50471844  1
  V  V40  1  0.86543816  0.25470327  0.12086519  1
  V  V41  1  0.12536065  0.62510700  0.00077297  1
  V  V42  1  0.87409723  0.62569718  0.75010769  1
  V  V43  1  0.61555235  0.87354431  0.74785254  1
  V  V44  1  0.87841078  0.00040123  0.87569254  1
  V  V45  1  0.86388807  0.49586993  0.38862931  1
  V  V46  1  -0.00006862  0.50626944  0.00424181  1
  V  V47  1  0.60659190  0.00363940  0.62343379  1
  V  V48  1  0.25611544  0.87836170  0.12856317  1
  V  V49  1  0.25302247  0.49481016  0.76140510  1
  V  V50  1  0.12729783  0.74869153  0.86659848  1
  V  V51  1  0.00090898  0.12955935  0.62617751  1
  V  V52  1  0.37641608  0.62404570  0.24994260  1
  V  V53  1  0.75875080  0.24038207  0.51689236  1
  V  V54  1  0.63800178  0.49210934  0.13814025  1
  V  V55  1  0.50328950  0.37322398  0.87727788  1
  V  V56  1  0.25686884  0.25259787  0.00766720  1
  V  V57  1  0.23436538  0.87447941  0.63673767  1
  V  V58  1  0.26334432  0.13004814  0.37186145  1
  V  V59  1  0.87186827  0.75008709  0.61931523  1
  V  V60  1  0.12401491  0.00309181  0.12105080  1
  V  V61  1  0.74812522  0.88011542  0.12884135  1
  V  V62  1  0.24765320  0.00908079  0.74964591  1
  V  V63  1  0.00855986  0.00026387  0.50465328  1
  V  V64  1  0.12260000  0.87862052  0.25276526  1
  V  V65  1  0.89282929  0.74716114  0.13522398  1
  V  V66  1  0.00220638  0.37735159  0.86803937  1
  V  V67  1  0.23055288  0.38591506  0.12663209  1
  V  V68  1  0.49274184  0.87765440  0.38861269  1
  V  V69  1  -0.00351765  0.38045144  0.39426317  1
  V  V70  1  0.12408902  0.25396034  0.86854502  1
  V  V71  1  0.61266592  0.12352489  0.50472114  1
  V  V72  1  0.75039760  0.87636892  0.62107813  1
  V  V73  1  0.61482981  0.37895842  0.73142312  1
  V  V74  1  0.63794037  0.23994259  0.36902923  1
  V  V75  1  0.26320666  0.01336405  0.25152080  1
  V  V76  1  0.87118548  0.87396156  0.49742712  1
  V  V77  1  0.49600565  0.50531377  -0.00279910  1
  V  V78  1  0.62890524  0.61948280  0.51561412  1
  Zn  Zn79  1  0.74699340  0.62457532  0.87346014  1
  Zn  Zn80  1  0.86660638  0.38072927  0.00349602  1
  Zn  Zn81  1  0.49384980  0.22607010  0.75676042  1
  Zn  Zn82  1  0.11126828  0.48642645  0.63370380  1
  Zn  Zn83  1  0.73800080  0.50521425  0.74032068  1
  Zn  Zn84  1  0.00004758  0.25806825  0.74392172  1
  Zn  Zn85  1  0.05022929  0.57978195  0.16683471  1
  Zn  Zn86  1  0.51046531  0.49791913  0.51649379  1
  Zn  Zn87  1  0.74193088  0.24284543  -0.01181904  1
  Zn  Zn88  1  0.22035379  0.50037520  0.24561214  1
  Zn  Zn89  1  0.62153967  0.22553452  0.88538100  1
  Zn  Zn90  1  0.75366100  0.75294425  0.00018208  1
  Zn  Zn91  1  0.74177926  0.00769709  0.24791183  1
  Zn  Zn92  1  -0.00857567  0.61601898  0.61258364  1
  Zn  Zn93  1  0.38221805  0.89733967  0.50931315  1
  Zn  Zn94  1  0.19016452  0.19359570  0.18684502  1
  Zn  Zn95  1  0.19046848  0.18656896  0.68669036  1
  Zn  Zn96  1  0.19289564  0.69366236  0.18666878  1
  Zn  Zn97  1  0.19745328  0.68001348  0.68989853  1
  Zn  Zn98  1  0.67988812  0.18103162  0.17336908  1
  Zn  Zn99  1  0.66779758  0.17754030  0.71504665  1
  Zn  Zn100  1  0.69491734  0.69476686  0.19022487  1
  Zn  Zn101  1  0.68751531  0.68853652  0.68399126  1
  Zn  Zn102  1  0.30646625  0.31668641  0.30333601  1
  Zn  Zn103  1  0.31670221  0.31814163  0.81818740  1
  Zn  Zn104  1  0.31440888  0.81525882  0.30937338  1
  Zn  Zn105  1  0.33309213  0.84774520  0.80323285  1
  Zn  Zn106  1  0.81205689  0.31353203  0.31590210  1
  Zn  Zn107  1  0.80031874  0.31683443  0.81834039  1
  Zn  Zn108  1  0.81158574  0.80999116  0.30964820  1
  Zn  Zn109  1  0.81108255  0.81349721  0.81149877  1
  Zn  Zn110  1  0.19082042  0.43855424  0.43728906  1
  Zn  Zn111  1  0.18483141  0.43926993  0.94188572  1
  Zn  Zn112  1  0.21823950  0.95804318  0.45354954  1
  Zn  Zn113  1  0.19825235  0.93759409  0.92831839  1
  Zn  Zn114  1  0.69242105  0.43352881  0.44874879  1
  Zn  Zn115  1  0.68680130  0.43457510  0.94682388  1
  Zn  Zn116  1  0.68233612  0.94060640  0.43478720  1
  Zn  Zn117  1  0.68707014  0.94311041  0.94139789  1
  Zn  Zn118  1  0.33025385  0.06202096  0.06155317  1
  Zn  Zn119  1  0.31841904  0.06647169  0.56459032  1
  Zn  Zn120  1  0.31127656  0.56436481  0.06151780  1
  Zn  Zn121  1  0.35491359  0.54094696  0.59096976  1
  Zn  Zn122  1  0.81101425  0.06541184  0.05852116  1
  Zn  Zn123  1  0.81271021  0.06285368  0.56395556  1
  Zn  Zn124  1  0.81536675  0.56722602  0.06526660  1
  Zn  Zn125  1  0.80293487  0.56206890  0.56068058  1
  Zn  Zn126  1  0.44469665  0.43806463  0.19041592  1
  Zn  Zn127  1  0.42981707  0.42915030  0.69108215  1
  Zn  Zn128  1  0.44094078  0.94380161  0.18533808  1
  Zn  Zn129  1  0.42649906  0.93765094  0.69104645  1
  Zn  Zn130  1  0.93463489  0.43517379  0.19234639  1
  Zn  Zn131  1  0.93749545  0.44012435  0.68456484  1
  Zn  Zn132  1  0.93775793  0.94004723  0.18582737  1
  Zn  Zn133  1  0.94174303  0.93953335  0.68738750  1
  Zn  Zn134  1  0.06469216  0.06573886  0.31335604  1
  Zn  Zn135  1  0.06655078  0.06205172  0.81016995  1
  Zn  Zn136  1  0.05105606  0.56645236  0.32658774  1
  Zn  Zn137  1  0.06387052  0.56225295  0.80891581  1
  Zn  Zn138  1  0.55775802  0.06018994  0.31221055  1
  Zn  Zn139  1  0.54265268  0.04995715  0.83506280  1
  Zn  Zn140  1  0.56434914  0.56522881  0.31747611  1
  Zn  Zn141  1  0.55860043  0.56027914  0.81181461  1
  Zn  Zn142  1  0.44267710  0.19506695  0.43814310  1
  Zn  Zn143  1  0.44353163  0.19313224  0.95111750  1
  Zn  Zn144  1  0.45095544  0.69203913  0.43586718  1
  Zn  Zn145  1  0.44645449  0.70551201  0.94392959  1
  Zn  Zn146  1  0.93863771  0.18955032  0.43800655  1
  Zn  Zn147  1  0.93671910  0.18602844  0.93489912  1
  Zn  Zn148  1  0.93426703  0.68582485  0.43194612  1
  Zn  Zn149  1  0.93906922  0.68945973  0.93764306  1
  Zn  Zn150  1  0.05554746  0.31289687  0.05260987  1
  Zn  Zn151  1  0.06681283  0.31022254  0.56412945  1
  Zn  Zn152  1  0.07313625  0.81195570  0.05648818  1
  Zn  Zn153  1  0.06134847  0.80719311  0.55751899  1
  Zn  Zn154  1  0.56760818  0.31010530  0.06765531  1
  Zn  Zn155  1  0.55590284  0.30928567  0.55557432  1
  Zn  Zn156  1  0.56206024  0.82030288  0.06175556  1
  Zn  Zn157  1  0.56228131  0.80583046  0.55997485  1
  O  O158  1  0.12245913  0.12210565  0.11847962  1
  O  O159  1  0.12085835  0.12745696  0.61191748  1
  O  O160  1  0.12764056  0.64211011  0.10647491  1
  O  O161  1  0.12986901  0.63122037  0.60806133  1
  O  O162  1  0.59705905  0.11761548  0.13492864  1
  O  O163  1  0.62276982  0.11046420  0.62184161  1
  O  O164  1  0.61935592  0.63230510  0.11895872  1
  O  O165  1  0.62059741  0.62748172  0.61675294  1
  O  O166  1  0.36651614  0.38919289  0.37358515  1
  O  O167  1  0.38750204  0.37499332  0.89192140  1
  O  O168  1  0.38919748  0.86391001  0.37852280  1
  O  O169  1  0.29555123  0.85527583  0.90867256  1
  O  O170  1  0.88774870  0.38155605  0.37465244  1
  O  O171  1  0.88141720  0.38667177  0.86940500  1
  O  O172  1  0.88408961  0.88110438  0.37983598  1
  O  O173  1  0.88361238  0.87829181  0.88018052  1
  O  O174  1  0.23886492  0.01561904  0.35527867  1
  O  O175  1  0.25230339  0.02319381  0.87568090  1
  O  O176  1  0.25680911  0.50842287  0.36718574  1
  O  O177  1  0.24799812  0.50667636  0.86992528  1
  O  O178  1  0.76644199  -0.00464610  0.37378221  1
  O  O179  1  0.76098713  -0.00903421  0.86239488  1
  O  O180  1  0.76545290  0.48258545  0.37462024  1
  O  O181  1  0.75996533  0.50123833  0.87207841  1
  O  O182  1  0.24738543  0.49030845  0.12304946  1
  O  O183  1  0.25404180  0.48633999  0.62982685  1
  O  O184  1  0.24608823  1.00122577  0.13554705  1
  O  O185  1  0.25104965  0.98948745  0.64300383  1
  O  O186  1  0.73767113  0.50571612  0.11978875  1
  O  O187  1  0.76137730  0.47705791  0.62667577  1
  O  O188  1  0.76025485  0.98436001  0.12478665  1
  O  O189  1  0.75052261  0.98933879  0.63407994  1
  O  O190  1  -0.00130208  0.36256485  0.25773297  1
  O  O191  1  -0.00097047  0.37577042  0.76264335  1
  O  O192  1  0.01156283  0.88631746  0.26073147  1
  O  O193  1  -0.00437321  0.86231920  0.75621620  1
  O  O194  1  0.49127698  0.36283967  0.26794253  1
  O  O195  1  0.50219096  0.38457466  0.76726793  1
  O  O196  1  0.51198479  0.87344940  0.24906176  1
  O  O197  1  0.51316922  0.86749626  0.73842412  1
  O  O198  1  0.49898312  0.14539607  0.26830439  1
  O  O199  1  0.50482814  0.11458010  0.75049892  1
  O  O200  1  0.49124514  0.62517381  0.24031811  1
  O  O201  1  0.49679393  0.63618954  0.74953630  1
  O  O202  1  0.99596750  0.13390379  0.24161538  1
  O  O203  1  0.99364718  0.12143241  0.74095581  1
  O  O204  1  0.98313336  0.62836674  0.25047866  1
  O  O205  1  0.98764310  0.63599165  0.74763053  1
  O  O206  1  0.36420200  0.26042334  0.00145797  1
  O  O207  1  0.36297729  0.24729150  0.50802708  1
  O  O208  1  0.35983070  0.74255977  0.01180998  1
  O  O209  1  0.37152081  0.74722235  0.51258817  1
  O  O210  1  0.88024622  0.24554108  0.01607486  1
  O  O211  1  0.85855819  0.23651159  0.50399265  1
  O  O212  1  0.87613192  0.76073344  0.00638705  1
  O  O213  1  0.88252528  0.76217972  0.50654315  1
  O  O214  1  0.13259792  0.24306791  0.49101464  1
  O  O215  1  0.13489645  0.24141951  0.99222748  1
  O  O216  1  0.13366603  0.74467796  0.48778694  1
  O  O217  1  0.14536513  0.74873716  0.98680316  1
  O  O218  1  0.62914084  0.23617402  0.49970097  1
  O  O219  1  0.62394648  0.24463634  0.99916383  1
  O  O220  1  0.62361898  0.73858202  0.49121211  1
  O  O221  1  0.62399647  0.74628451  0.98971616  1
  O  O222  1  0.50490721  0.25954404  0.14941262  1
  O  O223  1  0.47959129  0.25592899  0.62282557  1
  O  O224  1  0.48788225  0.74210046  0.11758522  1
  O  O225  1  0.48681217  0.75138094  0.63306984  1
  O  O226  1  0.99966314  0.24243069  0.13166426  1
  O  O227  1  1.00464804  0.23541548  0.62700031  1
  O  O228  1  0.99229315  0.75920593  0.11970333  1
  O  O229  1  0.98975369  0.74799729  0.62922677  1
  O  O230  1  0.00492665  0.25856210  0.37036151  1
  O  O231  1  0.00659285  0.25922036  0.87528228  1
  O  O232  1  0.00976569  0.76468704  0.38050325  1
  O  O233  1  0.00697906  0.75742080  0.86588815  1
  O  O234  1  0.51362919  0.26030937  0.37068201  1
  O  O235  1  0.49988850  0.26406479  0.87615395  1
  O  O236  1  0.51741225  0.76706394  0.37610577  1
  O  O237  1  0.50964769  0.75021509  0.85856876  1
  O  O238  1  0.24175149  0.13665281  0.49131132  1
  O  O239  1  0.25011625  0.13324320  0.99385876  1
  O  O240  1  0.24180584  0.63732300  0.48580653  1
  O  O241  1  0.24141611  0.61611942  0.98330149  1
  O  O242  1  0.73733575  0.13400323  0.51303962  1
  O  O243  1  0.75074693  0.12929287  0.99421036  1
  O  O244  1  0.73172165  0.62562236  0.50060668  1
  O  O245  1  0.73856726  0.63096376  0.99877207  1
  O  O246  1  0.25638088  0.37267320  0.00705313  1
  O  O247  1  0.24468088  0.36697535  0.51164994  1
  O  O248  1  0.23127628  0.88139996  0.02739981  1
  O  O249  1  0.24697820  0.85752855  0.50351961  1
  O  O250  1  0.75713906  0.35838133  -0.01159988  1
  O  O251  1  0.74600308  0.35840289  0.51996846  1
  O  O252  1  0.76007489  0.87634105  0.00951608  1
  O  O253  1  0.76276759  0.88652416  0.50751516  1
  O  O254  1  0.10987413  0.51789034  0.24327185  1
  O  O255  1  0.14266690  0.51189170  0.74320229  1
  O  O256  1  0.13174228  0.99782937  0.23947636  1
  O  O257  1  0.14803572  0.99345195  0.76625028  1
  O  O258  1  0.62243996  0.51010728  0.23652609  1
  O  O259  1  0.62429192  0.48513462  0.75677868  1
  O  O260  1  0.62939694  0.98213891  0.25904571  1
  O  O261  1  0.63294684  0.98906872  0.73486713  1
  O  O262  1  0.36182412  0.00037784  0.24813154  1
  O  O263  1  0.34556475  -0.03709057  0.76864754  1
  O  O264  1  0.37584909  0.51323434  0.25839060  1
  O  O265  1  0.35349882  0.49749383  0.75053742  1
  O  O266  1  0.87940928  0.00874374  0.25824906  1
  O  O267  1  0.86888706  0.00034644  0.75663193  1
  O  O268  1  0.87395536  0.50806461  0.25562964  1
  O  O269  1  0.87412196  0.51147766  0.75720250  1
  O  O270  1  0.11412654  0.36600538  0.38229722  1
  O  O271  1  0.11628241  0.36476707  0.88455763  1
  O  O272  1  0.12056007  0.87229836  0.36981405  1
  O  O273  1  0.11916530  0.86174010  0.87970857  1
  O  O274  1  0.62280221  0.36475375  0.37612849  1
  O  O275  1  0.60776130  0.37758942  0.87826642  1
  O  O276  1  0.61898288  0.86960630  0.36884032  1
  O  O277  1  0.63475697  0.86410269  0.85852391  1
  O  O278  1  0.41843447  0.11551637  0.11716310  1
  O  O279  1  0.36373139  0.14124509  0.63045717  1
  O  O280  1  0.38049218  0.63096569  0.13106665  1
  O  O281  1  0.35686696  0.64769950  0.63480859  1
  O  O282  1  0.88671115  0.13024134  0.13121546  1
  O  O283  1  0.88681404  0.11695347  0.63830603  1
  O  O284  1  0.87842996  0.64037835  0.13125309  1
  O  O285  1  0.87067256  0.63561041  0.62897107  1
  O  O286  1  0.24290050  0.26464889  0.11413354  1
  O  O287  1  0.25309198  0.25661647  0.61943858  1
  O  O288  1  0.25793244  0.76276163  0.11853826  1
  O  O289  1  0.25476937  0.75802158  0.61993396  1
  O  O290  1  0.76461239  0.24448550  0.12663529  1
  O  O291  1  0.74240499  0.25524641  0.62263160  1
  O  O292  1  0.76665706  0.76532875  0.12259682  1
  O  O293  1  0.76097269  0.76446656  0.62978378  1
  O  O294  1  0.24299547  0.24997748  0.37930610  1
  O  O295  1  0.24447451  0.24307146  0.88260329  1
  O  O296  1  0.24503066  0.74608451  0.37818675  1
  O  O297  1  0.24321198  0.72643709  0.87310457  1
  O  O298  1  0.74032810  0.25601817  0.39584347  1
  O  O299  1  0.73715049  0.24068492  0.86817078  1
  O  O300  1  0.73857402  0.76520708  0.38251737  1
  O  O301  1  0.73907836  0.74703871  0.87445713  1
  O  O302  1  0.01302053  0.13122414  0.01015866  1
  O  O303  1  0.00719197  0.11971192  0.50532428  1
  O  O304  1  0.00893745  0.61875613  -0.00427190  1
  O  O305  1  0.01792603  0.63361015  0.49495884  1
  O  O306  1  0.51266234  0.11155218  -0.01562692  1
  O  O307  1  0.51248339  0.12695221  0.50116280  1
  O  O308  1  0.50809199  0.62435672  0.00821523  1
  O  O309  1  0.51976269  0.61685303  0.48456376  1
  O  O310  1  0.50110878  0.37770275  0.47821192  1
  O  O311  1  0.49570648  0.38429921  0.99660216  1
  O  O312  1  0.49761985  0.87699721  0.49499947  1
  O  O313  1  0.48222581  0.85097123  0.98644567  1
  O  O314  1  0.99657720  0.36643095  0.49289811  1
  O  O315  1  0.99090652  0.38634070  0.98761570  1
  O  O316  1  0.99381145  0.88282325  0.49308493  1
  O  O317  1  0.99534908  0.87098446  0.98700197  1
  O  O318  1  0.49074247  0.48654909  0.36725265  1
  O  O319  1  0.50268421  0.49435180  0.89012084  1
  O  O320  1  0.50403041  0.97761252  0.37054077  1
  O  O321  1  0.47921952  0.96444248  0.86601896  1
  O  O322  1  0.99368924  0.48404174  0.38149933  1
  O  O323  1  0.99228166  0.49612911  0.87913363  1
  O  O324  1  0.99560569  0.99332507  0.38378383  1
  O  O325  1  0.99375950  0.98648397  0.86409247  1
  O  O326  1  0.01235942  0.01211584  0.12887441  1
  O  O327  1  -0.00002668  0.00642620  0.61180626  1
  O  O328  1  -0.01210638  0.49811758  0.10834742  1
  O  O329  1  0.00131863  0.50462881  0.62212242  1
  O  O330  1  0.50899646  -0.01930532  0.10372179  1
  O  O331  1  0.50792510  -0.00744500  0.62716488  1
  O  O332  1  0.50881587  0.51438126  0.11872846  1
  O  O333  1  0.46015844  0.50436038  0.61579008  1
  O  O334  1  0.24342767  0.37909395  0.23131002  1
  O  O335  1  0.24637053  0.38301856  0.74608786  1
  O  O336  1  0.24228397  0.88976282  0.24706495  1
  O  O337  1  0.23371761  0.86152709  0.73659920  1
  O  O338  1  0.74686082  0.36799981  0.24508393  1
  O  O339  1  0.73170806  0.37063834  0.73529010  1
  O  O340  1  0.75175177  0.88064583  0.23739868  1
  O  O341  1  0.74362777  0.88034186  0.73944883  1
  O  O342  1  0.24986170  0.12059916  0.25307669  1
  O  O343  1  0.25330212  0.11790886  0.76071078  1
  O  O344  1  0.25572018  0.62451387  0.25791831  1
  O  O345  1  0.25407432  0.61554320  0.76720925  1
  O  O346  1  0.76592285  0.12286578  0.23873762  1
  O  O347  1  0.76664945  0.11333736  0.73940268  1
  O  O348  1  0.77401026  0.63619468  0.24789686  1
  O  O349  1  0.76068344  0.62471916  0.74884908  1
  O  O350  1  0.36186043  0.13451166  0.38064262  1
  O  O351  1  0.36721689  0.13624386  0.87766038  1
  O  O352  1  0.36888855  0.62695882  0.36640993  1
  O  O353  1  0.37148485  0.62941560  0.88462493  1
  O  O354  1  0.88548920  0.11687279  0.36439894  1
  O  O355  1  0.88859716  0.11124398  0.85953084  1
  O  O356  1  0.87924716  0.61007351  0.36697863  1
  O  O357  1  0.87386210  0.62091110  0.86592794  1
  O  O358  1  0.13160988  0.37839525  0.11167802  1
  O  O359  1  0.13928317  0.37169665  0.62634936  1
  O  O360  1  0.12864794  0.88373764  0.13641125  1
  O  O361  1  0.13589784  0.87382357  0.61387152  1
  O  O362  1  0.61923700  0.39467904  0.12427692  1
  O  O363  1  0.60818810  0.38277936  0.63106947  1
  O  O364  1  0.63951151  0.86611673  0.13582440  1
  O  O365  1  0.63245174  0.88154149  0.62493571  1
  O  O366  1  0.11706813  0.24395238  0.26183990  1
  O  O367  1  0.12350635  0.24041840  0.76486873  1
  O  O368  1  0.13445439  0.76480610  0.26058582  1
  O  O369  1  0.11490950  0.73741617  0.75517044  1
  O  O370  1  0.63961244  0.23862990  0.26959475  1
  O  O371  1  0.60607935  0.27230085  0.74477528  1
  O  O372  1  0.63514090  0.76739341  0.26104494  1
  O  O373  1  0.61456481  0.75308838  0.75118082  1
  O  O374  1  0.37621694  0.24738919  0.24887582  1
  O  O375  1  0.37693960  0.25405343  0.74287568  1
  O  O376  1  0.36653987  0.73808881  0.23779817  1
  O  O377  1  0.38892366  0.76280679  0.74510521  1
  O  O378  1  0.88429030  0.24212729  0.24265293  1
  O  O379  1  0.87647544  0.23415044  0.75763848  1
  O  O380  1  0.88308664  0.75432510  0.23868988  1
  O  O381  1  0.88135009  0.74574188  0.74106452  1
  O  O382  1  0.37195063  0.51213284  0.47639573  1
  O  O383  1  0.38806055  0.49745075  1.00572656  1
  O  O384  1  0.32643421  0.99133332  0.48740560  1
  O  O385  1  0.38932307  0.98996081  0.99756599  1
  O  O386  1  0.87366135  0.50727600  0.48757890  1
  O  O387  1  0.88102191  0.50633911  0.98782445  1
  O  O388  1  0.88542146  0.99482512  0.49332937  1
  O  O389  1  0.87467695  0.98949834  0.98727317  1
  O  O390  1  0.13611290  0.01203425  0.01063231  1
  O  O391  1  0.11930968  0.01244823  0.48934521  1
  O  O392  1  0.11211194  0.51230104  -0.00636180  1
  O  O393  1  0.13360111  0.51717997  0.49930063  1
  O  O394  1  0.58916468  -0.02063294  -0.02188210  1
  O  O395  1  0.62929219  0.00978705  0.51344220  1
  O  O396  1  0.61796171  0.51356068  0.00814116  1
  O  O397  1  0.62547579  0.51072949  0.49620736  1
  O  O398  1  0.37124020  0.38242254  0.11390800  1
  O  O399  1  0.35457233  0.35971969  0.62914246  1
  O  O400  1  0.36536977  0.86647645  0.13766410  1
  O  O401  1  0.35869443  0.86570515  0.62260430  1
  O  O402  1  0.88104467  0.35746191  0.12533770  1
  O  O403  1  0.86878244  0.35843750  0.63954920  1
  O  O404  1  0.87438343  0.87018922  0.11818502  1
  O  O405  1  0.87155105  0.87067420  0.61692624  1
  O  O406  1  0.12873917  0.13778252  0.38300962  1
  O  O407  1  0.12748810  0.13262744  0.88494325  1
  O  O408  1  0.13224979  0.63567093  0.37987891  1
  O  O409  1  0.11885666  0.63761533  0.88414504  1
  O  O410  1  0.62582275  0.13153717  0.39068770  1
  O  O411  1  0.61897433  0.13099677  0.81909841  1
  O  O412  1  0.63019157  0.64407117  0.36533745  1
  O  O413  1  0.62300820  0.63421914  0.88331309  1
