# generated using pymatgen
data_V79Zn79O256
_symmetry_space_group_name_H-M   'P 1'
_cell_length_a   16.88013246
_cell_length_b   16.88950719
_cell_length_c   16.90791975
_cell_angle_alpha   90.12217735
_cell_angle_beta   89.99805195
_cell_angle_gamma   89.95295869
_symmetry_Int_Tables_number   1
_chemical_formula_structural   V79Zn79O256
_chemical_formula_sum   'V79 Zn79 O256'
_cell_volume   4820.38661368
_cell_formula_units_Z   1
loop_
 _symmetry_equiv_pos_site_id
 _symmetry_equiv_pos_as_xyz
  1  'x, y, z'
loop_
 _atom_site_type_symbol
 _atom_site_label
 _atom_site_symmetry_multiplicity
 _atom_site_fract_x
 _atom_site_fract_y
 _atom_site_fract_z
 _atom_site_occupancy
  V  V0  1  0.48812647  0.87497073  0.88622684  1
  V  V1  1  -0.00105421  0.87974088  0.86952591  1
  V  V2  1  0.50144743  0.24685836  0.76609156  1
  V  V3  1  0.00224387  0.24343339  0.74961193  1
  V  V4  1  0.23906022  0.87536298  0.63168307  1
  V  V5  1  0.75512547  0.74959390  0.49606458  1
  V  V6  1  0.74977522  0.50456366  0.74642037  1
  V  V7  1  0.38290866  0.12759913  0.25241118  1
  V  V8  1  0.24456223  0.01634051  0.74549158  1
  V  V9  1  0.61403177  0.36901594  0.24465259  1
  V  V10  1  0.12711159  0.62276596  0.51385417  1
  V  V11  1  0.62441586  0.49768004  0.61957153  1
  V  V12  1  0.25627418  0.25200523  0.49978167  1
  V  V13  1  0.49689553  0.48410434  0.49334428  1
  V  V14  1  0.74989475  0.63524082  0.87518430  1
  V  V15  1  0.36812389  0.74695651  0.61375550  1
  V  V16  1  0.36982073  0.87490623  0.49640115  1
  V  V17  1  0.49985759  0.62402378  0.61879667  1
  V  V18  1  0.38464969  0.24010662  0.62369799  1
  V  V19  1  0.86140883  0.75044109  0.12838578  1
  V  V20  1  0.75180820  0.49949671  0.25306450  1
  V  V21  1  -0.00328387  0.88756908  0.38891897  1
  V  V22  1  0.49722150  -0.00139636  0.50679312  1
  V  V23  1  0.12058698  0.62588451  -0.00113877  1
  V  V24  1  0.75145424  0.24433894  0.48817825  1
  V  V25  1  0.49943633  0.49371893  -0.01281237  1
  V  V26  1  0.85881409  0.86880828  0.00177205  1
  V  V27  1  0.25550609  -0.00300610  0.25193616  1
  V  V28  1  0.86951146  0.10960475  0.25624964  1
  V  V29  1  0.12555705  0.24518291  0.38262900  1
  V  V30  1  0.24862490  0.11982434  0.37762655  1
  V  V31  1  0.00491468  0.50217892  0.51228366  1
  V  V32  1  -0.00194540  0.24673443  0.25214008  1
  V  V33  1  0.37323639  0.37491514  -0.01529902  1
  V  V34  1  0.87994023  0.50362182  0.87639703  1
  V  V35  1  0.62693805  0.75088015  0.36853424  1
  V  V36  1  0.13099151  0.37976010  0.25107099  1
  V  V37  1  0.37669585  0.61847202  0.74828543  1
  V  V38  1  0.87061300  0.50849807  0.37581722  1
  V  V39  1  0.63067772  0.49385372  0.12336213  1
  V  V40  1  0.12823186  0.76223915  0.87300583  1
  V  V41  1  0.25027295  0.36610342  0.12199283  1
  V  V42  1  0.00228719  -0.00339386  -0.00354694  1
  V  V43  1  0.60907715  0.25215387  0.36934402  1
  V  V44  1  0.49634491  0.62428804  0.12409329  1
  V  V45  1  0.37170345  0.62178686  0.24882773  1
  V  V46  1  0.87598257  0.37334328  0.49955012  1
  V  V47  1  0.25737532  0.37708237  0.62184443  1
  V  V48  1  0.24605113  0.13524980  0.89793822  1
  V  V49  1  0.00593116  0.12226200  0.12332791  1
  V  V50  1  0.24824179  0.50040320  0.74494871  1
  V  V51  1  0.62981985  0.62283192  0.48990593  1
  V  V52  1  0.62309060  0.11987345  0.49983979  1
  V  V53  1  0.11650558  0.86644655  0.24710013  1
  V  V54  1  0.12803575  0.50241827  0.12775381  1
  V  V55  1  0.49451880  0.87794211  0.37159911  1
  V  V56  1  0.62248178  0.37018478  0.76415939  1
  V  V57  1  0.24993331  0.62624987  0.37438584  1
  V  V58  1  -0.00040112  0.37480580  0.37813219  1
  V  V59  1  0.61682606  0.88638578  0.73474094  1
  V  V60  1  0.50167503  0.12143034  0.10457160  1
  V  V61  1  0.00525572  0.75241540  0.74548489  1
  V  V62  1  0.12258763  0.38010249  0.74673953  1
  V  V63  1  0.62930668  0.75364400  0.87426332  1
  V  V64  1  0.49956804  0.75195287  0.24495658  1
  V  V65  1  0.87875986  0.23892215  0.62214114  1
  V  V66  1  0.26487703  0.86693356  0.12348845  1
  V  V67  1  0.63490367  -0.00966633  0.13779489  1
  V  V68  1  0.87704659  0.74511744  0.62817595  1
  V  V69  1  0.37374729  0.48509252  0.37434244  1
  V  V70  1  0.74820803  0.36706811  0.62267159  1
  V  V71  1  0.12636180  -0.00376738  0.11992218  1
  V  V72  1  0.75260830  0.88666309  0.62252206  1
  V  V73  1  0.11703939  0.74192621  0.36944159  1
  V  V74  1  0.86630431  0.25460641  0.12316494  1
  V  V75  1  0.26351847  0.74881719  0.00350591  1
  V  V76  1  0.87115208  0.11699610  0.76062917  1
  V  V77  1  0.25597768  0.62089618  0.87497964  1
  V  V78  1  0.64862997  0.11794479  -0.00809118  1
  Zn  Zn79  1  0.74137706  0.26905589  -0.01339630  1
  Zn  Zn80  1  0.82163879  0.04310340  0.91188387  1
  Zn  Zn81  1  0.86932804  0.38541867  0.01415680  1
  Zn  Zn82  1  -0.00371951  0.50702943  0.00804264  1
  Zn  Zn83  1  0.62551089  0.63118375  0.00307243  1
  Zn  Zn84  1  0.87176325  0.64126858  0.25953700  1
  Zn  Zn85  1  0.37611753  0.01003507  0.87623633  1
  Zn  Zn86  1  0.88505243  0.62298404  0.74351859  1
  Zn  Zn87  1  0.13638065  0.25694863  0.89841000  1
  Zn  Zn88  1  0.38923395  0.25749519  0.12722945  1
  Zn  Zn89  1  0.75058767  0.10303484  0.37136730  1
  Zn  Zn90  1  0.51203170  0.11523037  0.63724848  1
  Zn  Zn91  1  0.00536667  0.64336868  0.14702389  1
  Zn  Zn92  1  0.00555534  0.37953970  0.88184866  1
  Zn  Zn93  1  0.49782173  0.75059125  0.74677740  1
  Zn  Zn94  1  0.18809694  0.18737179  0.18866077  1
  Zn  Zn95  1  0.18893978  0.19791795  0.69185341  1
  Zn  Zn96  1  0.19166910  0.68559799  0.18798313  1
  Zn  Zn97  1  0.18918414  0.69315711  0.68924171  1
  Zn  Zn98  1  0.68425535  0.17967975  0.18624490  1
  Zn  Zn99  1  0.69076255  0.18598716  0.81660878  1
  Zn  Zn100  1  0.68931051  0.68310548  0.18752710  1
  Zn  Zn101  1  0.68587892  0.69511967  0.68606030  1
  Zn  Zn102  1  0.31260683  0.30727096  0.30778738  1
  Zn  Zn103  1  0.31499082  0.30790210  0.80790019  1
  Zn  Zn104  1  0.31234101  0.80353730  0.31003385  1
  Zn  Zn105  1  0.31141803  0.80578339  0.80485954  1
  Zn  Zn106  1  0.80907608  0.31805759  0.30411193  1
  Zn  Zn107  1  0.82070066  0.31347829  0.81219237  1
  Zn  Zn108  1  0.81075984  0.82929152  0.31687802  1
  Zn  Zn109  1  0.79386109  0.87162673  0.82483690  1
  Zn  Zn110  1  0.19038938  0.44044386  0.43785431  1
  Zn  Zn111  1  0.18986797  0.43999395  0.93617017  1
  Zn  Zn112  1  0.19728359  0.91959860  0.42691281  1
  Zn  Zn113  1  0.22255395  0.95537562  0.95187785  1
  Zn  Zn114  1  0.68541034  0.43232630  0.43229618  1
  Zn  Zn115  1  0.69577060  0.44390668  0.94075223  1
  Zn  Zn116  1  0.67809797  0.92853717  0.44375179  1
  Zn  Zn117  1  0.67306321  0.94088900  0.93793897  1
  Zn  Zn118  1  0.32055030  0.06095844  0.06039562  1
  Zn  Zn119  1  0.31265333  0.05826455  0.56199890  1
  Zn  Zn120  1  0.31195459  0.55513579  0.06182473  1
  Zn  Zn121  1  0.31197081  0.55806808  0.55590030  1
  Zn  Zn122  1  0.81906463  0.05510903  0.08086720  1
  Zn  Zn123  1  0.74018398  0.10000454  0.63615824  1
  Zn  Zn124  1  0.80799447  0.57490085  0.06421603  1
  Zn  Zn125  1  0.81406397  0.56267933  0.55922668  1
  Zn  Zn126  1  0.43714302  0.44108192  0.18553686  1
  Zn  Zn127  1  0.43871578  0.43378233  0.68601728  1
  Zn  Zn128  1  0.44519833  0.94181400  0.18404247  1
  Zn  Zn129  1  0.42570112  0.93853348  0.69153847  1
  Zn  Zn130  1  0.94270224  0.44288081  0.19132821  1
  Zn  Zn131  1  0.93423011  0.43365031  0.68831452  1
  Zn  Zn132  1  0.93727233  0.92612396  0.18441397  1
  Zn  Zn133  1  0.93904238  0.93585588  0.67633758  1
  Zn  Zn134  1  0.06611898  0.05826003  0.30950529  1
  Zn  Zn135  1  0.07615430  0.06143520  0.81381163  1
  Zn  Zn136  1  0.05607700  0.56172294  0.31393282  1
  Zn  Zn137  1  0.06824707  0.57093007  0.80678513  1
  Zn  Zn138  1  0.56384270  0.05905242  0.31770686  1
  Zn  Zn139  1  0.55826673  0.05610456  0.81770932  1
  Zn  Zn140  1  0.55871981  0.55840252  0.31028848  1
  Zn  Zn141  1  0.56570789  0.56328051  0.80779790  1
  Zn  Zn142  1  0.43300348  0.18337221  0.43811234  1
  Zn  Zn143  1  0.42580783  0.19050369  0.93813582  1
  Zn  Zn144  1  0.43941554  0.68438278  0.43300843  1
  Zn  Zn145  1  0.44415805  0.68669962  0.93417933  1
  Zn  Zn146  1  0.93492703  0.17615351  0.43822631  1
  Zn  Zn147  1  0.96615605  0.20303681  0.94936189  1
  Zn  Zn148  1  0.94371239  0.68969533  0.44147080  1
  Zn  Zn149  1  0.93505823  0.69426563  0.93382986  1
  Zn  Zn150  1  0.05337692  0.32277832  0.06292789  1
  Zn  Zn151  1  0.06642153  0.31307750  0.56635139  1
  Zn  Zn152  1  0.05920329  0.80944497  0.06171019  1
  Zn  Zn153  1  0.06470788  0.80477973  0.55589013  1
  Zn  Zn154  1  0.56337560  0.30403255  0.05759195  1
  Zn  Zn155  1  0.56737384  0.30603370  0.56316948  1
  Zn  Zn156  1  0.56480794  0.81282813  0.06217154  1
  Zn  Zn157  1  0.56052580  0.80919204  0.55680274  1
  O  O158  1  0.11421405  0.11215702  0.13683726  1
  O  O159  1  0.11010033  0.13019441  0.61882353  1
  O  O160  1  0.12642615  0.62046010  0.11706707  1
  O  O161  1  0.13192321  0.62837363  0.61292327  1
  O  O162  1  0.61804391  0.11573675  0.11470550  1
  O  O163  1  0.62944139  0.12984688  0.60462106  1
  O  O164  1  0.61539004  0.61436838  0.12315577  1
  O  O165  1  0.61726369  0.61914700  0.61514386  1
  O  O166  1  0.36963336  0.38588298  0.36715708  1
  O  O167  1  0.37084101  0.37521528  0.88549337  1
  O  O168  1  0.38072786  0.86258294  0.38525660  1
  O  O169  1  0.38928798  0.85848416  0.86777560  1
  O  O170  1  0.88518957  0.37673602  0.38014532  1
  O  O171  1  0.87477333  0.39953943  0.86848761  1
  O  O172  1  0.89831570  0.87287188  0.37414596  1
  O  O173  1  0.88922209  0.87026861  0.88835738  1
  O  O174  1  0.23885436  0.00704103  0.36530485  1
  O  O175  1  0.23820697  0.02350663  0.86016531  1
  O  O176  1  0.26488052  0.50733314  0.37741163  1
  O  O177  1  0.24930883  0.51347992  0.86404779  1
  O  O178  1  0.75448962  -0.02202362  0.37003451  1
  O  O179  1  0.75213336  -0.02774602  0.86308169  1
  O  O180  1  0.76108565  0.49225598  0.37042216  1
  O  O181  1  0.75759444  0.51226728  0.86283703  1
  O  O182  1  0.23524017  0.49018908  0.12352749  1
  O  O183  1  0.25622868  0.49088274  0.63307356  1
  O  O184  1  0.24372897  0.98645171  0.13163742  1
  O  O185  1  0.25811605  0.98467669  0.63284689  1
  O  O186  1  0.73677856  0.50664946  0.12990835  1
  O  O187  1  0.74711483  0.49030686  0.62796321  1
  O  O188  1  0.73648625  0.99733149  0.12863833  1
  O  O189  1  0.75191077  0.98558649  0.61517126  1
  O  O190  1  0.00745275  0.36561157  0.26127624  1
  O  O191  1  0.01130857  0.37486769  0.74867934  1
  O  O192  1  0.01415987  0.87936559  0.25773757  1
  O  O193  1  -0.00707643  0.86907516  0.75874568  1
  O  O194  1  0.51423116  0.37627062  0.24765955  1
  O  O195  1  0.51543932  0.36682517  0.74387970  1
  O  O196  1  0.48795796  0.86244830  0.25734329  1
  O  O197  1  0.50760433  0.87165356  0.74618739  1
  O  O198  1  0.48305619  0.11964582  0.25645440  1
  O  O199  1  0.51491276  0.14175510  0.75072677  1
  O  O200  1  0.49416771  0.63038773  0.24277786  1
  O  O201  1  0.49326520  0.61879409  0.73494724  1
  O  O202  1  0.99400588  0.13003012  0.24658324  1
  O  O203  1  0.99770866  0.14012872  0.75156343  1
  O  O204  1  0.98550591  0.62409547  0.25634494  1
  O  O205  1  1.00128320  0.64550822  0.75102069  1
  O  O206  1  0.38446462  0.27242667  0.00811607  1
  O  O207  1  0.36890068  0.25047158  0.51031917  1
  O  O208  1  0.36253827  0.73869486  -0.00174519  1
  O  O209  1  0.38104395  0.75590354  0.50632000  1
  O  O210  1  0.87963385  0.24694522  0.01968636  1
  O  O211  1  0.87140421  0.25202985  0.50273890  1
  O  O212  1  0.87318088  0.76245642  0.00345795  1
  O  O213  1  0.86472355  0.74410531  0.50773256  1
  O  O214  1  0.13360981  0.25174873  0.48985119  1
  O  O215  1  0.07131231  0.24353634  0.98760236  1
  O  O216  1  0.12210680  0.72835763  0.48773022  1
  O  O217  1  0.13444041  0.74128574  0.99325124  1
  O  O218  1  0.63019165  0.24448785  0.48475560  1
  O  O219  1  0.63423619  0.22561018  1.00777513  1
  O  O220  1  0.63039245  0.73993535  0.49117816  1
  O  O221  1  0.62136596  0.75049655  0.97937013  1
  O  O222  1  0.50527291  0.22788719  0.12568052  1
  O  O223  1  0.49231406  0.24486425  0.62436862  1
  O  O224  1  0.50909292  0.73634798  0.13219842  1
  O  O225  1  0.49248049  0.73566364  0.62064169  1
  O  O226  1  0.99740422  0.24061590  0.13917524  1
  O  O227  1  0.98991009  0.25838190  0.63518423  1
  O  O228  1  0.98106033  0.75301875  0.12029271  1
  O  O229  1  0.98620671  0.76184895  0.62911929  1
  O  O230  1  0.00574800  0.25284035  0.37375508  1
  O  O231  1  -0.01548589  0.26479527  0.85135933  1
  O  O232  1  0.01296296  0.75689936  0.37649460  1
  O  O233  1  0.00860384  0.76013043  0.86726705  1
  O  O234  1  0.51057931  0.24549236  0.37574999  1
  O  O235  1  0.49394050  0.25084472  0.86405010  1
  O  O236  1  0.50610653  0.75379689  0.36579334  1
  O  O237  1  0.50990337  0.75451853  0.86744300  1
  O  O238  1  0.25913761  0.13444155  0.48768814  1
  O  O239  1  0.24301074  0.13016439  0.99793223  1
  O  O240  1  0.23600655  0.61543273  0.48930416  1
  O  O241  1  0.24503470  0.62752925  0.99327531  1
  O  O242  1  0.74086869  0.13203192  0.49219385  1
  O  O243  1  0.75268373  0.11330319  0.99585457  1
  O  O244  1  0.73772484  0.63212741  0.50360595  1
  O  O245  1  0.74258935  0.62182452  0.97929479  1
  O  O246  1  0.26540205  0.38544222  0.00615337  1
  O  O247  1  0.24521074  0.36369268  0.50794686  1
  O  O248  1  0.24274212  0.86127265  0.01735236  1
  O  O249  1  0.26081966  0.88186070  0.51019988  1
  O  O250  1  0.75772556  0.37939840  0.00626840  1
  O  O251  1  0.75407439  0.36751948  0.50498717  1
  O  O252  1  0.76077298  0.87612240  -0.00586099  1
  O  O253  1  0.73882994  0.86072775  0.51415896  1
  O  O254  1  0.11870183  0.48708836  0.24517861  1
  O  O255  1  0.13708050  0.49506750  0.75100830  1
  O  O256  1  0.13575955  0.98853981  0.24017241  1
  O  O257  1  0.14183163  1.00038238  0.74198780  1
  O  O258  1  0.62827056  0.48896748  0.24550522  1
  O  O259  1  0.63119716  0.49040894  0.74093720  1
  O  O260  1  0.62328532  1.00796921  0.23805380  1
  O  O261  1  0.61786399  0.98597364  0.74477701  1
  O  O262  1  0.36205189  0.00947537  0.24345971  1
  O  O263  1  0.35268918  -0.01053330  0.76120020  1
  O  O264  1  0.38562233  0.51021663  0.26530094  1
  O  O265  1  0.36715624  0.51007607  0.74357708  1
  O  O266  1  0.88237613  0.01195027  0.23917243  1
  O  O267  1  0.89021198  0.02063296  0.73896265  1
  O  O268  1  0.86713037  0.49268856  0.26192653  1
  O  O269  1  0.86488503  0.50411882  0.75206847  1
  O  O270  1  0.11920846  0.36792218  0.37049188  1
  O  O271  1  0.12626458  0.37434595  0.86324775  1
  O  O272  1  0.12271755  0.86180093  0.36667934  1
  O  O273  1  0.11924080  0.86448376  0.88330507  1
  O  O274  1  0.62408408  0.36036805  0.36427097  1
  O  O275  1  0.63025126  0.38529953  0.86123993  1
  O  O276  1  0.60797396  0.85948882  0.38088814  1
  O  O277  1  0.61321815  0.86637831  0.86211762  1
  O  O278  1  0.38657612  0.12324884  0.13142252  1
  O  O279  1  0.37848903  0.13789191  0.62207672  1
  O  O280  1  0.38554718  0.61066211  0.13481881  1
  O  O281  1  0.38012465  0.62714920  0.62431639  1
  O  O282  1  0.88653085  0.13377931  0.13855793  1
  O  O283  1  0.86177328  0.13781621  0.63161607  1
  O  O284  1  0.87878156  0.63976765  0.12505629  1
  O  O285  1  0.87180264  0.63906041  0.62429004  1
  O  O286  1  0.24257963  0.26333838  0.12177773  1
  O  O287  1  0.26173135  0.25393626  0.61868619  1
  O  O288  1  0.25153027  0.75927872  0.12122641  1
  O  O289  1  0.26014422  0.75814071  0.62446236  1
  O  O290  1  0.76557907  0.24270210  0.12823156  1
  O  O291  1  0.75691682  0.25743627  0.60927618  1
  O  O292  1  0.75931197  0.74027684  0.11540949  1
  O  O293  1  0.75927230  0.75305048  0.61628432  1
  O  O294  1  0.24456822  0.24393461  0.38139676  1
  O  O295  1  0.25003537  0.24186089  0.87268465  1
  O  O296  1  0.23932658  0.73607867  0.37255187  1
  O  O297  1  0.24514962  0.74309344  0.88100054  1
  O  O298  1  0.74940028  0.25351762  0.38368647  1
  O  O299  1  0.75965065  0.24972404  0.87731971  1
  O  O300  1  0.73945248  0.76137217  0.38309353  1
  O  O301  1  0.73655495  0.74963549  0.86225557  1
  O  O302  1  -0.01124857  0.10622281  0.01438043  1
  O  O303  1  -0.00569781  0.10153600  0.50895924  1
  O  O304  1  0.01488405  0.62707084  -0.00836404  1
  O  O305  1  0.01510099  0.61448739  0.49532181  1
  O  O306  1  0.49755394  0.12310290  0.00360148  1
  O  O307  1  0.50565789  0.11453575  0.49647644  1
  O  O308  1  0.49986468  0.61354140  0.00708898  1
  O  O309  1  0.50800343  0.61635688  0.50516716  1
  O  O310  1  0.50677298  0.38529689  0.50482195  1
  O  O311  1  0.49398785  0.38616119  1.00363256  1
  O  O312  1  0.49173820  0.87962516  0.49376942  1
  O  O313  1  0.49805496  0.86737338  0.98508934  1
  O  O314  1  0.99890999  0.37877786  0.49380563  1
  O  O315  1  0.98484332  0.39147218  0.99656319  1
  O  O316  1  1.00989195  0.87565447  0.48847373  1
  O  O317  1  0.99629724  0.88371319  0.99199722  1
  O  O318  1  0.48738867  0.50285768  0.38221268  1
  O  O319  1  0.50671943  0.50532689  0.88832934  1
  O  O320  1  0.50042979  0.98427226  0.38144793  1
  O  O321  1  0.49257652  0.98061919  0.87082325  1
  O  O322  1  0.99225020  0.48743357  0.38335069  1
  O  O323  1  0.98514899  0.51035809  0.86556597  1
  O  O324  1  1.01480047  0.98785022  0.37876966  1
  O  O325  1  1.01223631  0.99215185  0.88421507  1
  O  O326  1  0.00823608  0.00117282  0.11926000  1
  O  O327  1  -0.00203868  0.00235179  0.59477744  1
  O  O328  1  0.01456184  0.50580956  0.12617030  1
  O  O329  1  -0.00606050  0.49440399  0.61155963  1
  O  O330  1  0.50783635  0.01637724  0.12756964  1
  O  O331  1  0.49204198  0.00125020  0.61317064  1
  O  O332  1  0.51118825  0.50688369  0.12023755  1
  O  O333  1  0.50286655  0.50573266  0.61492764  1
  O  O334  1  0.23646870  0.36774085  0.24238042  1
  O  O335  1  0.24620677  0.38261926  0.74444218  1
  O  O336  1  0.24546258  0.87662081  0.24188315  1
  O  O337  1  0.24750878  0.87060172  0.73485514  1
  O  O338  1  0.73632161  0.38809395  0.24987854  1
  O  O339  1  0.74160130  0.38164912  0.74098113  1
  O  O340  1  0.75351878  0.93443616  0.30076518  1
  O  O341  1  0.73195089  0.86864654  0.73003627  1
  O  O342  1  0.25409430  0.11531522  0.25499836  1
  O  O343  1  0.25388349  0.11680155  0.73274502  1
  O  O344  1  0.26208439  0.62485896  0.25649848  1
  O  O345  1  0.25591308  0.61930614  0.75362038  1
  O  O346  1  0.76527577  0.12518590  0.25152582  1
  O  O347  1  0.76452166  0.12425144  0.74925649  1
  O  O348  1  0.75380751  0.60699077  0.25052078  1
  O  O349  1  0.74564552  0.61510017  0.75158179  1
  O  O350  1  0.36237989  0.12877397  0.36152978  1
  O  O351  1  0.35444854  0.12744091  0.87800376  1
  O  O352  1  0.36660706  0.62145408  0.36884560  1
  O  O353  1  0.36669720  0.63356056  0.86054125  1
  O  O354  1  0.87369321  0.11882281  0.36169903  1
  O  O355  1  0.88514069  0.12507414  0.86320385  1
  O  O356  1  0.87810037  0.61129135  0.38186780  1
  O  O357  1  0.86622543  0.62387979  0.86568575  1
  O  O358  1  0.12787751  0.38155372  0.13136742  1
  O  O359  1  0.14172238  0.36752033  0.63690309  1
  O  O360  1  0.12925076  0.87821877  0.13239688  1
  O  O361  1  0.14084765  0.86660669  0.61549978  1
  O  O362  1  0.62039588  0.37883318  0.13471795  1
  O  O363  1  0.63531078  0.37695890  0.62792620  1
  O  O364  1  0.61454668  0.89119245  0.12405636  1
  O  O365  1  0.62836794  0.86989369  0.62925478  1
  O  O366  1  0.11600703  0.25642759  0.25969434  1
  O  O367  1  0.11120993  0.25955771  0.74844544  1
  O  O368  1  0.12921942  0.75624378  0.25511156  1
  O  O369  1  0.11896065  0.74898288  0.76052029  1
  O  O370  1  0.63052295  0.25733184  0.25876984  1
  O  O371  1  0.61820263  0.26218181  0.75591651  1
  O  O372  1  0.61549613  0.74106291  0.25889210  1
  O  O373  1  0.61818749  0.75799784  0.75503816  1
  O  O374  1  0.36642339  0.23193755  0.24115778  1
  O  O375  1  0.39311336  0.25629423  0.73735394  1
  O  O376  1  0.38740989  0.73484588  0.25221814  1
  O  O377  1  0.37692524  0.73419695  0.73359341  1
  O  O378  1  0.88458149  0.24349847  0.24750316  1
  O  O379  1  0.88328448  0.24346955  0.73953213  1
  O  O380  1  0.85720255  0.76059148  0.23531474  1
  O  O381  1  0.88136027  0.74943044  0.73416676  1
  O  O382  1  0.38316699  0.50058344  0.48545905  1
  O  O383  1  0.39002726  0.49032530  1.00310186  1
  O  O384  1  0.38315561  0.98761037  0.49898575  1
  O  O385  1  0.33491294  0.98524022  0.98082214  1
  O  O386  1  0.88147586  0.49270110  0.49407678  1
  O  O387  1  0.87311971  0.51372876  0.98308321  1
  O  O388  1  0.95382559  1.03985406  0.54065007  1
  O  O389  1  0.88311947  0.98824553  1.00259691  1
  O  O390  1  0.12111786  -0.00763340  0.01349410  1
  O  O391  1  0.14085678  0.07763674  0.57633246  1
  O  O392  1  0.12527664  0.51020041  0.00638315  1
  O  O393  1  0.11761287  0.50966878  0.49505145  1
  O  O394  1  0.62460342  0.01437427  0.01116577  1
  O  O395  1  0.61278055  0.00931142  0.49103810  1
  O  O396  1  0.61444874  0.49961022  0.00697654  1
  O  O397  1  0.61965125  0.50453340  0.49902483  1
  O  O398  1  0.36358893  0.37587627  0.12730432  1
  O  O399  1  0.36471882  0.36337759  0.62892974  1
  O  O400  1  0.36296407  0.87760774  0.12939370  1
  O  O401  1  0.37035027  0.86319985  0.61535386  1
  O  O402  1  0.88405516  0.35799829  0.13482616  1
  O  O403  1  0.86465410  0.36631934  0.62023148  1
  O  O404  1  0.87221200  0.86678963  0.11137834  1
  O  O405  1  0.85889519  0.86530970  0.62714099  1
  O  O406  1  0.13519339  0.13602241  0.36604394  1
  O  O407  1  0.14011831  0.13807798  0.86887675  1
  O  O408  1  0.13403830  0.62648114  0.37049284  1
  O  O409  1  0.13728758  0.63382242  0.88049491  1
  O  O410  1  0.63080025  0.13651941  0.37681423  1
  O  O411  1  0.62956829  0.11537611  0.88737919  1
  O  O412  1  0.61710500  0.63256439  0.38293009  1
  O  O413  1  0.63064295  0.63887918  0.86781317  1
