# generated using pymatgen
data_V79Zn79O256
_symmetry_space_group_name_H-M   'P 1'
_cell_length_a   16.92434765
_cell_length_b   16.92965414
_cell_length_c   16.89954141
_cell_angle_alpha   90.04431401
_cell_angle_beta   89.99982935
_cell_angle_gamma   89.97187213
_symmetry_Int_Tables_number   1
_chemical_formula_structural   V79Zn79O256
_chemical_formula_sum   'V79 Zn79 O256'
_cell_volume   4842.11122406
_cell_formula_units_Z   1
loop_
 _symmetry_equiv_pos_site_id
 _symmetry_equiv_pos_as_xyz
  1  'x, y, z'
loop_
 _atom_site_type_symbol
 _atom_site_label
 _atom_site_symmetry_multiplicity
 _atom_site_fract_x
 _atom_site_fract_y
 _atom_site_fract_z
 _atom_site_occupancy
  V  V0  1  0.25306520  0.86315902  0.62266388  1
  V  V1  1  0.37946566  0.63607027  0.24544859  1
  V  V2  1  0.49378651  -0.00916401  0.00287997  1
  V  V3  1  0.60854096  0.87832349  0.76810663  1
  V  V4  1  0.37405385  0.25013407  0.61937407  1
  V  V5  1  -0.00342971  0.13148500  0.13464981  1
  V  V6  1  0.25084368  0.62577023  0.37107837  1
  V  V7  1  0.75494729  0.73677026  -0.01092028  1
  V  V8  1  0.74917670  0.26456926  0.00413416  1
  V  V9  1  0.36605870  0.50859127  0.86615391  1
  V  V10  1  0.74849309  0.37664356  0.13593892  1
  V  V11  1  0.73204142  0.23808341  0.50373856  1
  V  V12  1  0.49643574  0.12829653  0.12393727  1
  V  V13  1  0.25074253  0.48657551  0.24651213  1
  V  V14  1  0.61576088  0.75185632  0.37045611  1
  V  V15  1  0.12448964  0.49780749  0.11404133  1
  V  V16  1  0.37948382  0.49929173  0.37487863  1
  V  V17  1  -0.00321569  0.62441076  0.62080965  1
  V  V18  1  0.09606696  0.37516129  0.24903084  1
  V  V19  1  0.87547358  0.12453001  0.75068466  1
  V  V20  1  0.61827890  0.86154276  0.24219389  1
  V  V21  1  0.24328925  0.01701424  0.24969220  1
  V  V22  1  0.13257205  0.87209541  0.24272874  1
  V  V23  1  0.24934021  0.13009561  0.87731052  1
  V  V24  1  -0.00438690  0.25367781  0.74968751  1
  V  V25  1  0.87343397  0.87280054  0.49863836  1
  V  V26  1  0.87304720  0.36427277  0.50424312  1
  V  V27  1  0.12355452  0.87667059  0.75064388  1
  V  V28  1  0.90607919  0.43365838  0.93588120  1
  V  V29  1  0.38150380  0.87441410  0.49106827  1
  V  V30  1  0.12094539  0.26318494  0.87438431  1
  V  V31  1  0.22788662  0.73561971  -0.00377170  1
  V  V32  1  0.51370424  0.49840675  -0.00711708  1
  V  V33  1  0.12242458  0.62254859  0.49600032  1
  V  V34  1  0.50672517  0.37373844  0.38060722  1
  V  V35  1  0.63826777  0.01417873  0.13355775  1
  V  V36  1  0.12362133  0.49810858  0.62551471  1
  V  V37  1  0.87764835  0.88182634  -0.00489809  1
  V  V38  1  0.24830195  0.26614728  0.00238207  1
  V  V39  1  0.36961136  0.26136183  0.12497449  1
  V  V40  1  0.12610697  0.26216097  0.37394430  1
  V  V41  1  0.62373832  0.50016936  0.13632381  1
  V  V42  1  0.75761862  0.12221400  0.87965974  1
  V  V43  1  0.86743610  0.48942295  0.36053434  1
  V  V44  1  0.50693056  0.09907263  0.62404914  1
  V  V45  1  0.61956180  0.12749948  -0.00559631  1
  V  V46  1  0.61249559  0.74173832  0.88227784  1
  V  V47  1  0.11989172  0.74882308  0.37050730  1
  V  V48  1  -0.00374374  0.00951649  -0.00700682  1
  V  V49  1  0.12379296  0.37700572  0.74756756  1
  V  V50  1  0.50331057  0.63292908  0.12636016  1
  V  V51  1  0.75468923  0.87144177  0.12079917  1
  V  V52  1  0.62672180  0.62795731  0.50395397  1
  V  V53  1  0.12354186  0.12927508  0.00089516  1
  V  V54  1  0.00891851  0.62822285  0.10682581  1
  V  V55  1  0.73838884  0.38032166  0.62878182  1
  V  V56  1  0.37808535  0.12572334  0.75171015  1
  V  V57  1  0.50382525  0.26284747  0.75214211  1
  V  V58  1  0.61913052  0.26632769  0.87179642  1
  V  V59  1  0.00062358  0.87427764  0.36916372  1
  V  V60  1  0.86621076  0.75155777  0.61887213  1
  V  V61  1  0.36878655  0.13102786  0.25935606  1
  V  V62  1  0.25206461  0.00124764  0.75159099  1
  V  V63  1  0.87330940  0.01294592  0.37033253  1
  V  V64  1  0.37787047  -0.00336581  0.88127878  1
  V  V65  1  -0.00137389  0.87890890  0.87228602  1
  V  V66  1  0.24892204  0.37027789  0.61905816  1
  V  V67  1  0.12603920  0.00535539  0.62292458  1
  V  V68  1  0.14232540  0.13300676  0.49403098  1
  V  V69  1  0.86187691  0.62022337  0.75499048  1
  V  V70  1  -0.00681356  0.49347973  0.49098562  1
  V  V71  1  0.37977590  0.38037343  -0.00748158  1
  V  V72  1  0.50662500  0.25048996  0.25158342  1
  V  V73  1  0.88823729  0.63553468  0.24718679  1
  V  V74  1  0.75192451  -0.00117534  0.75594610  1
  V  V75  1  -0.00381173  0.13075090  0.62215260  1
  V  V76  1  0.75455134  0.63628121  0.36840456  1
  V  V77  1  0.00046210  0.75023745  0.74803925  1
  V  V78  1  0.74889222  0.88265555  0.62969192  1
  Zn  Zn79  1  0.50308241  0.50846479  0.50913489  1
  Zn  Zn80  1  0.62265936  0.51397125  0.65566968  1
  Zn  Zn81  1  0.12772823  -0.00943200  0.11376553  1
  Zn  Zn82  1  0.25245044  0.74477546  0.50571327  1
  Zn  Zn83  1  0.32277981  0.83662866  0.07435443  1
  Zn  Zn84  1  0.37555495  0.00063885  0.38179894  1
  Zn  Zn85  1  0.62803562  0.21839980  0.37456134  1
  Zn  Zn86  1  0.88848604  0.75585390  0.12349770  1
  Zn  Zn87  1  0.62234139  0.08117773  0.50294553  1
  Zn  Zn88  1  0.62606433  0.37642004  0.25975886  1
  Zn  Zn89  1  0.43231189  0.66169165  0.77696176  1
  Zn  Zn90  1  0.00264536  0.00330842  0.49838246  1
  Zn  Zn91  1  0.75451166  0.00411315  0.26077746  1
  Zn  Zn92  1  0.88550230  0.25548590  0.15106870  1
  Zn  Zn93  1  0.37317639  0.37291180  0.49938147  1
  Zn  Zn94  1  0.18183344  0.19758165  0.18639576  1
  Zn  Zn95  1  0.18713600  0.18966030  0.68662154  1
  Zn  Zn96  1  0.19189287  0.68674134  0.18110952  1
  Zn  Zn97  1  0.14953147  0.70536181  0.83294611  1
  Zn  Zn98  1  0.71707817  0.19363354  0.20606211  1
  Zn  Zn99  1  0.68687210  0.18721547  0.68225435  1
  Zn  Zn100  1  0.69987425  0.68070323  0.18280759  1
  Zn  Zn101  1  0.57455891  0.70742533  0.67537492  1
  Zn  Zn102  1  0.31133185  0.30800966  0.32051724  1
  Zn  Zn103  1  0.30923478  0.32190596  0.81160882  1
  Zn  Zn104  1  0.30644972  0.81392327  0.30707396  1
  Zn  Zn105  1  0.34005167  0.78834823  0.86425623  1
  Zn  Zn106  1  0.81067188  0.30313139  0.31893951  1
  Zn  Zn107  1  0.80528357  0.30367018  0.80742881  1
  Zn  Zn108  1  0.81488836  0.81757002  0.30546796  1
  Zn  Zn109  1  0.81523544  0.80620896  0.81102314  1
  Zn  Zn110  1  0.18715581  0.43656538  0.43528978  1
  Zn  Zn111  1  0.18287243  0.55582079  0.93138039  1
  Zn  Zn112  1  0.19375013  0.94221673  0.43393913  1
  Zn  Zn113  1  0.19193992  0.93328273  0.93772872  1
  Zn  Zn114  1  0.69371665  0.44158571  0.44076437  1
  Zn  Zn115  1  0.75899755  0.48153417  0.79604299  1
  Zn  Zn116  1  0.68970498  0.92979764  0.43470841  1
  Zn  Zn117  1  0.69022271  0.94020050  0.94366714  1
  Zn  Zn118  1  0.31018526  0.06319929  0.07006715  1
  Zn  Zn119  1  0.31946078  0.05950008  0.56537320  1
  Zn  Zn120  1  0.31328734  0.56262861  0.06358803  1
  Zn  Zn121  1  0.30392969  0.55277934  0.55668349  1
  Zn  Zn122  1  0.80438392  0.07323282  0.07766202  1
  Zn  Zn123  1  0.81488451  0.05919906  0.56102736  1
  Zn  Zn124  1  0.76998189  0.52354264  -0.00219447  1
  Zn  Zn125  1  0.80723212  0.56127684  0.55719552  1
  Zn  Zn126  1  0.43944907  0.43929328  0.18958325  1
  Zn  Zn127  1  0.44274806  0.44285128  0.68475586  1
  Zn  Zn128  1  0.43739480  0.93617824  0.21970718  1
  Zn  Zn129  1  0.43345640  0.82143130  0.68875438  1
  Zn  Zn130  1  0.90861967  0.47434116  0.13706351  1
  Zn  Zn131  1  0.93090371  0.43692362  0.68532004  1
  Zn  Zn132  1  0.94369402  0.94520351  0.18445041  1
  Zn  Zn133  1  0.93476291  0.94406055  0.68789317  1
  Zn  Zn134  1  0.06297572  0.06174379  0.31779231  1
  Zn  Zn135  1  0.06200977  0.06804342  0.81498382  1
  Zn  Zn136  1  0.06106449  0.55588361  0.30955698  1
  Zn  Zn137  1  0.03282921  0.54890299  0.81374771  1
  Zn  Zn138  1  0.55351540  0.04394108  0.32596987  1
  Zn  Zn139  1  0.56266751  0.06057696  0.81297951  1
  Zn  Zn140  1  0.56181695  0.56620676  0.31420746  1
  Zn  Zn141  1  0.57878589  0.56084891  0.81677091  1
  Zn  Zn142  1  0.44745385  0.18264049  0.44164287  1
  Zn  Zn143  1  0.43506034  0.19073583  0.93677281  1
  Zn  Zn144  1  0.44570588  0.70411206  0.44861428  1
  Zn  Zn145  1  0.42845057  0.68387598  0.95899156  1
  Zn  Zn146  1  0.94711201  0.19155841  0.43335257  1
  Zn  Zn147  1  0.93326146  0.26075045  0.94506259  1
  Zn  Zn148  1  0.93616784  0.68742569  0.43425605  1
  Zn  Zn149  1  0.94129159  0.68945736  0.93422894  1
  Zn  Zn150  1  0.05380698  0.32275467  0.06123365  1
  Zn  Zn151  1  0.05969848  0.30997029  0.55930749  1
  Zn  Zn152  1  0.06787292  0.80973479  0.05562073  1
  Zn  Zn153  1  0.06344158  0.81219342  0.55872944  1
  Zn  Zn154  1  0.56353538  0.31648969  0.06267574  1
  Zn  Zn155  1  0.55761863  0.31446791  0.56706879  1
  Zn  Zn156  1  0.56727377  0.81285066  0.05934101  1
  Zn  Zn157  1  0.55779193  0.89484670  0.57431828  1
  O  O158  1  0.11711155  0.13554969  0.10974591  1
  O  O159  1  0.11976592  0.12207049  0.61831859  1
  O  O160  1  0.11557129  0.61322461  0.13300028  1
  O  O161  1  0.10927567  0.61224228  0.61389646  1
  O  O162  1  0.61061247  0.12714105  0.11148885  1
  O  O163  1  0.60970820  0.11886618  0.62865181  1
  O  O164  1  0.61462092  0.61331518  0.13466117  1
  O  O165  1  0.63810124  0.63240229  0.60463531  1
  O  O166  1  0.38280383  0.38311961  0.37668629  1
  O  O167  1  0.37432558  0.38407674  0.88583258  1
  O  O168  1  0.35374822  0.87334361  0.38948229  1
  O  O169  1  0.37120964  0.89946235  0.87409413  1
  O  O170  1  0.86551596  0.38438457  0.38099615  1
  O  O171  1  0.87549580  0.34405468  0.88352102  1
  O  O172  1  0.88418427  0.87468639  0.38097443  1
  O  O173  1  0.88944368  0.87113760  0.88174855  1
  O  O174  1  0.25357090  0.00016326  0.35427974  1
  O  O175  1  0.25417806  0.00906858  0.86992762  1
  O  O176  1  0.25723189  0.50672916  0.36810175  1
  O  O177  1  0.26669163  0.50295132  0.87318113  1
  O  O178  1  0.76775789  -0.00641707  0.37593315  1
  O  O179  1  0.75090483  0.01201565  0.87234412  1
  O  O180  1  0.76425490  0.50797628  0.37113981  1
  O  O181  1  0.80539366  0.47758178  0.89889459  1
  O  O182  1  0.23460969  0.50899973  0.13606561  1
  O  O183  1  0.23062270  0.49028624  0.62132141  1
  O  O184  1  0.23713714  1.00879005  0.13783897  1
  O  O185  1  0.24029834  1.00291412  0.63600903  1
  O  O186  1  0.73214943  0.48590662  0.11166611  1
  O  O187  1  0.74089637  0.48524836  0.61267181  1
  O  O188  1  0.73740198  0.97741107  0.09062507  1
  O  O189  1  0.76008271  0.99309997  0.64101513  1
  O  O190  1  0.00062607  0.37692537  0.25132796  1
  O  O191  1  0.00522913  0.36119556  0.73599416  1
  O  O192  1  0.01252298  0.88257229  0.26216135  1
  O  O193  1  0.00321780  0.87267087  0.75205403  1
  O  O194  1  0.49989223  0.36419970  0.25904963  1
  O  O195  1  0.49796557  0.35995621  0.75325925  1
  O  O196  1  0.52182705  0.85243113  0.23375076  1
  O  O197  1  0.51215123  0.89259181  0.76026130  1
  O  O198  1  0.48917620  0.13587289  0.24048450  1
  O  O199  1  0.49158923  0.12445985  0.74318004  1
  O  O200  1  0.48806706  0.62359013  0.24214564  1
  O  O201  1  0.52480485  0.62181793  0.73431212  1
  O  O202  1  1.01638309  0.12025005  0.23212257  1
  O  O203  1  0.99552059  0.13152748  0.74359295  1
  O  O204  1  0.98962154  0.62927425  0.26199578  1
  O  O205  1  0.99487414  0.63220333  0.73320610  1
  O  O206  1  0.36957186  0.25941718  0.00434080  1
  O  O207  1  0.38418278  0.24929881  0.51638327  1
  O  O208  1  0.35260326  0.76266307  -0.01819410  1
  O  O209  1  0.36639278  0.76248840  0.50134879  1
  O  O210  1  0.84721236  0.23898585  0.02006170  1
  O  O211  1  0.87203200  0.26210015  0.49078037  1
  O  O212  1  0.87182386  0.75984590  0.00114534  1
  O  O213  1  0.88412801  0.76087981  0.50717661  1
  O  O214  1  0.12481735  0.24277307  0.49025692  1
  O  O215  1  0.12939512  0.25193699  0.99297617  1
  O  O216  1  0.12752780  0.74083812  0.48889689  1
  O  O217  1  0.12540902  0.73414658  0.99421214  1
  O  O218  1  0.62860313  0.24636445  0.50223118  1
  O  O219  1  0.62268032  0.24635351  0.98769605  1
  O  O220  1  0.63257549  0.73775732  0.47221213  1
  O  O221  1  0.64567478  0.75985407  0.99124883  1
  O  O222  1  0.49338668  0.24742594  0.13191720  1
  O  O223  1  0.49235464  0.24801015  0.64136060  1
  O  O224  1  0.50752814  0.73100423  0.11365805  1
  O  O225  1  0.51944918  0.79194559  0.62173780  1
  O  O226  1  0.99600893  0.23826904  0.12134067  1
  O  O227  1  1.00757403  0.23863549  0.63483669  1
  O  O228  1  1.00500768  0.73321271  0.12072743  1
  O  O229  1  0.99435968  0.74306598  0.62751687  1
  O  O230  1  0.02525912  0.23770526  0.36817068  1
  O  O231  1  0.01179626  0.24209110  0.86193226  1
  O  O232  1  0.01192398  0.75747583  0.37759104  1
  O  O233  1  0.00176420  0.76194389  0.85904310  1
  O  O234  1  0.50204440  0.25717637  0.36831213  1
  O  O235  1  0.50849323  0.24413305  0.86398249  1
  O  O236  1  0.51691027  0.74406862  0.36443347  1
  O  O237  1  0.51360939  0.74539243  0.89945714  1
  O  O238  1  0.24022718  0.12679308  0.51046235  1
  O  O239  1  0.24152310  0.13641554  0.99610060  1
  O  O240  1  0.24257051  0.62217000  0.48702278  1
  O  O241  1  0.24876334  0.62812106  0.99614606  1
  O  O242  1  0.74135728  0.13457317  0.51464711  1
  O  O243  1  0.73564055  0.13118968  0.99744889  1
  O  O244  1  0.74439554  0.62281809  0.47760599  1
  O  O245  1  0.75796792  0.63864186  1.00546996  1
  O  O246  1  0.26068089  0.36594548  0.00163864  1
  O  O247  1  0.25189231  0.37857230  0.51256499  1
  O  O248  1  0.22738650  0.85649952  0.00888404  1
  O  O249  1  0.23943552  0.87364609  0.51565907  1
  O  O250  1  0.74603006  0.36417864  0.00643585  1
  O  O251  1  0.75649915  0.36594080  0.50671244  1
  O  O252  1  0.76504846  0.86560061  -0.00125037  1
  O  O253  1  0.76649581  0.87909473  0.51388503  1
  O  O254  1  0.13095389  0.48441355  0.25306459  1
  O  O255  1  0.10247884  0.48567657  0.73362003  1
  O  O256  1  0.13245898  0.99082628  0.25241075  1
  O  O257  1  0.13195854  1.00013255  0.74438893  1
  O  O258  1  0.62234111  0.49845200  0.23978601  1
  O  O259  1  0.65441964  0.50008830  0.76330936  1
  O  O260  1  0.62249506  0.98272365  0.23849870  1
  O  O261  1  0.64108055  0.98964425  0.76261841  1
  O  O262  1  0.35242625  0.02239819  0.23544511  1
  O  O263  1  0.36379499  0.01405609  0.75968929  1
  O  O264  1  0.36938909  0.50589895  0.25753026  1
  O  O265  1  0.38460826  0.49198366  0.76819592  1
  O  O266  1  0.87914132  -0.00242452  0.26576307  1
  O  O267  1  0.87103962  0.01599681  0.75515306  1
  O  O268  1  0.88235116  0.50518757  0.25967208  1
  O  O269  1  0.86740071  0.51479863  0.73887369  1
  O  O270  1  0.12017022  0.37008954  0.36710424  1
  O  O271  1  0.12543206  0.36551378  0.86102222  1
  O  O272  1  0.12130195  0.86784251  0.36830513  1
  O  O273  1  0.11465659  0.88383428  0.85868296  1
  O  O274  1  0.61348666  0.38094521  0.37707509  1
  O  O275  1  0.62365360  0.36103612  0.87443427  1
  O  O276  1  0.63665172  0.86073685  0.35501614  1
  O  O277  1  0.63042319  0.87177776  0.87244019  1
  O  O278  1  0.38131429  0.14060763  0.12932699  1
  O  O279  1  0.38316418  0.13015852  0.63553228  1
  O  O280  1  0.38611254  0.61689954  0.13867245  1
  O  O281  1  0.33573399  0.62010660  0.65732834  1
  O  O282  1  0.89519867  0.11859108  0.12497485  1
  O  O283  1  0.88846555  0.11830821  0.63301278  1
  O  O284  1  0.89727625  0.61616309  0.14095086  1
  O  O285  1  0.88030639  0.63223624  0.62224505  1
  O  O286  1  0.26039810  0.24749135  0.11544668  1
  O  O287  1  0.26226365  0.25704510  0.63201218  1
  O  O288  1  0.25279627  0.74191974  0.10450155  1
  O  O289  1  0.24157482  0.76561163  0.62825483  1
  O  O290  1  0.72222300  0.26818227  0.11177413  1
  O  O291  1  0.74652672  0.26105949  0.61230807  1
  O  O292  1  0.75515009  0.75961353  0.11198439  1
  O  O293  1  0.76672659  0.76588522  0.63028465  1
  O  O294  1  0.22970278  0.24906391  0.37029379  1
  O  O295  1  0.24258981  0.24989510  0.88206387  1
  O  O296  1  0.23991364  0.73625420  0.37327147  1
  O  O297  1  0.23476461  0.75107189  0.88549454  1
  O  O298  1  0.74009384  0.25246833  0.39755336  1
  O  O299  1  0.73361345  0.24398079  0.88467754  1
  O  O300  1  0.75620554  0.73874768  0.36936282  1
  O  O301  1  0.75327924  0.74898488  0.88652899  1
  O  O302  1  0.00899654  0.12061742  0.00179718  1
  O  O303  1  0.00997487  0.12560313  0.51115700  1
  O  O304  1  -0.00152200  0.62132233  0.00851714  1
  O  O305  1  0.00052119  0.61633390  0.50292524  1
  O  O306  1  0.50333646  0.12861277  0.00740575  1
  O  O307  1  0.49719252  0.11842082  0.52094466  1
  O  O308  1  0.49087940  0.60744643  0.02036307  1
  O  O309  1  0.51964539  0.62904607  0.49119449  1
  O  O310  1  0.49550291  0.37539162  0.48922175  1
  O  O311  1  0.49248214  0.38878115  1.00474469  1
  O  O312  1  0.47985349  0.87432528  0.48715166  1
  O  O313  1  0.50462419  0.89326238  1.00491668  1
  O  O314  1  0.98446066  0.38040249  0.50396966  1
  O  O315  1  0.97109628  0.36288581  0.99629041  1
  O  O316  1  0.99565404  0.87896528  0.48949406  1
  O  O317  1  0.99895132  0.88367118  0.99118556  1
  O  O318  1  0.49167932  0.49250537  0.37164743  1
  O  O319  1  0.50287722  0.50701075  0.89201865  1
  O  O320  1  0.46870588  0.97634428  0.32127283  1
  O  O321  1  0.49324803  1.01208296  0.89468469  1
  O  O322  1  0.98627016  0.50322207  0.38445192  1
  O  O323  1  0.97316585  0.47994430  0.87796653  1
  O  O324  1  0.99165331  0.99190944  0.37827886  1
  O  O325  1  1.00259666  0.99390494  0.88194225  1
  O  O326  1  0.00963865  0.01048642  0.11123335  1
  O  O327  1  0.01272687  0.01001757  0.62698677  1
  O  O328  1  0.01655187  0.51350550  0.13206965  1
  O  O329  1  -0.00013239  0.50548289  0.61111250  1
  O  O330  1  0.50978444  0.01594896  0.11664081  1
  O  O331  1  0.49937839  0.00166172  0.62976336  1
  O  O332  1  0.51081755  0.50354707  0.12257725  1
  O  O333  1  0.51822194  0.48720491  0.61862421  1
  O  O334  1  0.25696827  0.38645816  0.25119536  1
  O  O335  1  0.23364675  0.37196828  0.73711046  1
  O  O336  1  0.23700122  0.88494964  0.24610313  1
  O  O337  1  0.23928609  0.88922746  0.73825685  1
  O  O338  1  0.73978068  0.37215169  0.23907799  1
  O  O339  1  0.76342340  0.37456218  0.73095864  1
  O  O340  1  0.75224512  0.88293166  0.23215782  1
  O  O341  1  0.76600104  0.88807790  0.74780265  1
  O  O342  1  0.24904953  0.12498301  0.24882755  1
  O  O343  1  0.25596724  0.12152421  0.75513213  1
  O  O344  1  0.25907519  0.61549955  0.25577031  1
  O  O345  1  0.28035712  0.62190567  0.70806456  1
  O  O346  1  0.72671888  0.08242117  0.18365302  1
  O  O347  1  0.75503281  0.12051825  0.75621217  1
  O  O348  1  0.76999512  0.62349944  0.25729033  1
  O  O349  1  0.76673010  0.63694719  0.75169977  1
  O  O350  1  0.38103459  0.12791258  0.36202339  1
  O  O351  1  0.36886431  0.12316647  0.86872753  1
  O  O352  1  0.36965314  0.61846264  0.36393260  1
  O  O353  1  0.38624323  0.61242998  0.87365476  1
  O  O354  1  0.88140783  0.11107176  0.38332914  1
  O  O355  1  0.85910260  0.13880445  0.86878600  1
  O  O356  1  0.86924690  0.61873065  0.36743649  1
  O  O357  1  0.88889628  0.63098464  0.85288194  1
  O  O358  1  0.11421388  0.38752307  0.13787347  1
  O  O359  1  0.12852385  0.37758866  0.62630537  1
  O  O360  1  0.11204172  0.87371743  0.14147939  1
  O  O361  1  0.12669271  0.88707045  0.63176855  1
  O  O362  1  0.62323856  0.38726356  0.13141505  1
  O  O363  1  0.63734229  0.37200424  0.62601100  1
  O  O364  1  0.63578130  0.87882849  0.12974259  1
  O  O365  1  0.64707874  0.87409501  0.65637118  1
  O  O366  1  0.12608738  0.27086194  0.25459321  1
  O  O367  1  0.11757793  0.25594409  0.75509442  1
  O  O368  1  0.13494710  0.76209798  0.25790264  1
  O  O369  1  0.11139668  0.76470107  0.74082446  1
  O  O370  1  0.61506287  0.24442207  0.25424004  1
  O  O371  1  0.61369812  0.24404862  0.76023107  1
  O  O372  1  0.64220283  0.75696260  0.25105844  1
  O  O373  1  0.62051984  0.76829146  0.77161203  1
  O  O374  1  0.38036008  0.24828260  0.24333288  1
  O  O375  1  0.38437097  0.24253748  0.75001634  1
  O  O376  1  0.36697098  0.73433887  0.25070898  1
  O  O377  1  0.37978847  0.75829203  0.76353570  1
  O  O378  1  0.82317594  0.22617364  0.24024674  1
  O  O379  1  0.88425406  0.23586898  0.74948870  1
  O  O380  1  0.87673026  0.73981512  0.24245932  1
  O  O381  1  0.88629098  0.74495520  0.73760535  1
  O  O382  1  0.37978737  0.50303511  0.48723150  1
  O  O383  1  0.38168645  0.49403103  0.99378271  1
  O  O384  1  0.36220553  0.98387505  0.49620070  1
  O  O385  1  0.38606624  1.01210266  0.99753997  1
  O  O386  1  0.87719466  0.49026447  0.48788582  1
  O  O387  1  0.88175424  0.48875640  1.02481469  1
  O  O388  1  0.88027549  0.99024540  0.49083307  1
  O  O389  1  0.88596087  0.99075271  1.00359399  1
  O  O390  1  0.11897745  0.01385472  -0.00582229  1
  O  O391  1  0.12741330  0.01233152  0.50861882  1
  O  O392  1  0.13095434  0.49210869  0.01609339  1
  O  O393  1  0.11307371  0.50100233  0.50236081  1
  O  O394  1  0.61259004  0.01083244  0.00756829  1
  O  O395  1  0.62316529  -0.03178166  0.51406734  1
  O  O396  1  0.61304650  0.50139168  0.01156404  1
  O  O397  1  0.62515010  0.52252846  0.48514795  1
  O  O398  1  0.38128705  0.36659482  0.11663309  1
  O  O399  1  0.36578453  0.36821060  0.62684519  1
  O  O400  1  0.39216398  0.89664253  0.12930286  1
  O  O401  1  0.35703400  0.87796895  0.61485236  1
  O  O402  1  0.85183649  0.37163083  0.13523268  1
  O  O403  1  0.86521264  0.37786286  0.60746014  1
  O  O404  1  0.87400378  0.87646145  0.11512483  1
  O  O405  1  0.87623263  0.87153241  0.61780856  1
  O  O406  1  0.12918423  0.12255767  0.39201384  1
  O  O407  1  0.13042707  0.13765299  0.88211340  1
  O  O408  1  0.13103480  0.62781289  0.37457419  1
  O  O409  1  0.11191266  0.60773444  0.86359159  1
  O  O410  1  0.61380553  0.10749197  0.39003802  1
  O  O411  1  0.63157326  0.12737040  0.88386337  1
  O  O412  1  0.64126792  0.63648359  0.35905437  1
  O  O413  1  0.63109701  0.64449867  0.87905832  1
