# generated using pymatgen
data_V79Zn79O256
_symmetry_space_group_name_H-M   'P 1'
_cell_length_a   16.90135694
_cell_length_b   16.92797007
_cell_length_c   16.93639478
_cell_angle_alpha   90.02352567
_cell_angle_beta   89.82862170
_cell_angle_gamma   89.95920818
_symmetry_Int_Tables_number   1
_chemical_formula_structural   V79Zn79O256
_chemical_formula_sum   'V79 Zn79 O256'
_cell_volume   4845.57516319
_cell_formula_units_Z   1
loop_
 _symmetry_equiv_pos_site_id
 _symmetry_equiv_pos_as_xyz
  1  'x, y, z'
loop_
 _atom_site_type_symbol
 _atom_site_label
 _atom_site_symmetry_multiplicity
 _atom_site_fract_x
 _atom_site_fract_y
 _atom_site_fract_z
 _atom_site_occupancy
  V  V0  1  0.01760487  0.87730704  0.37637653  1
  V  V1  1  0.22956539  0.37270670  0.62641856  1
  V  V2  1  0.87750140  0.63867506  0.24853529  1
  V  V3  1  0.25151754  0.11447791  0.87697292  1
  V  V4  1  0.49859423  0.75257697  0.25118886  1
  V  V5  1  0.00262016  -0.00828562  0.01213411  1
  V  V6  1  0.49770968  0.37754619  0.37589232  1
  V  V7  1  0.37458413  0.62253106  0.74886378  1
  V  V8  1  0.62292880  0.12107155  0.00244671  1
  V  V9  1  0.36656100  0.01204252  0.36383198  1
  V  V10  1  0.63426791  0.37652353  0.24656480  1
  V  V11  1  0.49215930  0.12027118  0.13067094  1
  V  V12  1  0.24265085  0.62630172  0.37358906  1
  V  V13  1  0.62251237  0.00336130  0.62147662  1
  V  V14  1  0.49655878  0.37251805  0.87787551  1
  V  V15  1  0.37671983  0.49723230  0.87114229  1
  V  V16  1  0.63719863  0.74596787  0.87383912  1
  V  V17  1  0.63474065  -0.00761153  0.12415220  1
  V  V18  1  0.11374498  0.12396410  0.00515296  1
  V  V19  1  0.63620263  0.62366823  -0.00400163  1
  V  V20  1  0.75547139  0.12536255  0.87257544  1
  V  V21  1  0.61896785  0.87530409  0.75568097  1
  V  V22  1  0.88091711  0.88962984  0.49424599  1
  V  V23  1  0.37002478  0.50198276  0.37801851  1
  V  V24  1  0.12081359  0.00314376  0.63954681  1
  V  V25  1  0.50165057  0.62458514  0.62524352  1
  V  V26  1  0.63893167  0.87079438  0.24041799  1
  V  V27  1  0.49897826  0.49607949  -0.00138487  1
  V  V28  1  0.37567339  0.87193525  -0.00433034  1
  V  V29  1  0.76347666  0.25439220  0.49950919  1
  V  V30  1  0.63638081  0.49746804  0.62372642  1
  V  V31  1  0.24278133  0.87625952  0.13036172  1
  V  V32  1  0.75634484  0.76303342  0.01350172  1
  V  V33  1  0.13124148  0.26869937  0.38288158  1
  V  V34  1  0.00319179  0.87613913  0.86061912  1
  V  V35  1  0.24441501  0.88153008  0.63469434  1
  V  V36  1  0.87629889  0.48669590  0.36845426  1
  V  V37  1  0.49955084  0.12462401  0.62051189  1
  V  V38  1  0.75203835  0.62045323  0.36782211  1
  V  V39  1  0.88028904  0.00035838  0.87667350  1
  V  V40  1  0.12117778  0.62049302  0.00699138  1
  V  V41  1  0.49881878  -0.00556338  0.49427430  1
  V  V42  1  0.63211560  0.37459013  0.74622036  1
  V  V43  1  0.87965929  0.75155937  0.62952780  1
  V  V44  1  0.37315680  0.74887705  0.62464568  1
  V  V45  1  0.88082237  0.12231841  0.24007713  1
  V  V46  1  0.12512965  0.85676503  0.24992541  1
  V  V47  1  0.24140814  0.75103459  0.00276447  1
  V  V48  1  0.62419464  0.24324327  0.38438100  1
  V  V49  1  0.75728364  0.50514170  0.76828661  1
  V  V50  1  0.62508594  0.24804605  0.87346516  1
  V  V51  1  0.86946969  0.25721900  0.63688767  1
  V  V52  1  0.22782991  0.49673469  0.74783282  1
  V  V53  1  0.37135833  0.11885997  0.75026016  1
  V  V54  1  0.49257035  0.24251449  0.25096872  1
  V  V55  1  0.49932947  0.75200376  0.75931214  1
  V  V56  1  -0.00668195  0.48792958  0.49652416  1
  V  V57  1  0.49832597  -0.00818349  -0.00778309  1
  V  V58  1  0.75516392  0.00488221  0.74926190  1
  V  V59  1  0.63758435  0.49594782  0.12722229  1
  V  V60  1  0.13327670  0.11398642  0.48963882  1
  V  V61  1  0.12810665  0.25852202  0.86854539  1
  V  V62  1  0.13273186  0.38864112  0.23278728  1
  V  V63  1  0.75029546  0.25129922  0.01712657  1
  V  V64  1  0.12058374  0.75479746  0.86517114  1
  V  V65  1  0.37662743  0.26852255  0.11748264  1
  V  V66  1  0.36846555  0.61916964  0.24886263  1
  V  V67  1  -0.00136436  0.63827609  0.13089666  1
  V  V68  1  -0.00952957  0.49244092  0.00577540  1
  V  V69  1  0.62691337  0.62405616  0.49810174  1
  V  V70  1  0.49952618  0.62251580  0.12368005  1
  V  V71  1  0.37230275  0.25367369  0.61968256  1
  V  V72  1  0.18027175  0.05391740  0.18196043  1
  V  V73  1  0.75046286  0.87376095  0.62539095  1
  V  V74  1  0.37682752  0.87296260  0.49018738  1
  V  V75  1  -0.00144280  0.62479833  0.62714216  1
  V  V76  1  0.11627057  0.62551189  0.49619712  1
  V  V77  1  0.62136056  0.75371623  0.37330488  1
  V  V78  1  0.24119236  0.75068332  0.49705781  1
  Zn  Zn79  1  0.49854351  0.24998804  0.74871618  1
  Zn  Zn80  1  0.00618701  0.25404917  0.74378694  1
  Zn  Zn81  1  -0.00300687  0.25961058  0.26266783  1
  Zn  Zn82  1  0.25308215  0.24883771  0.00752955  1
  Zn  Zn83  1  0.75228523  0.75067156  0.49702541  1
  Zn  Zn84  1  0.37253390  0.74902629  0.12454570  1
  Zn  Zn85  1  0.49932194  0.49874797  0.50354147  1
  Zn  Zn86  1  0.24401323  0.62412805  0.87285113  1
  Zn  Zn87  1  0.86668091  0.37449772  0.00139427  1
  Zn  Zn88  1  0.77190475  0.10314232  0.37652051  1
  Zn  Zn89  1  -0.01165503  0.12175674  0.62653661  1
  Zn  Zn90  1  0.37568572  -0.01160021  0.86602774  1
  Zn  Zn91  1  0.86369446  0.63667222  0.76319413  1
  Zn  Zn92  1  0.36917799  0.37412225  0.50306761  1
  Zn  Zn93  1  -0.00721607  0.38847666  0.85880411  1
  Zn  Zn94  1  0.21692824  0.22891566  0.22640454  1
  Zn  Zn95  1  0.19086883  0.18448948  0.68652414  1
  Zn  Zn96  1  0.18638577  0.68680594  0.18736437  1
  Zn  Zn97  1  0.18470544  0.68280264  0.68256317  1
  Zn  Zn98  1  0.68677866  0.17898178  0.19962226  1
  Zn  Zn99  1  0.69016693  0.18760794  0.68237639  1
  Zn  Zn100  1  0.68978120  0.68331998  0.18634314  1
  Zn  Zn101  1  0.68979811  0.68552229  0.68777783  1
  Zn  Zn102  1  0.30864377  0.31762792  0.31803226  1
  Zn  Zn103  1  0.30605177  0.30786795  0.80755962  1
  Zn  Zn104  1  0.31313607  0.81104113  0.31188286  1
  Zn  Zn105  1  0.30795061  0.80805893  0.81366843  1
  Zn  Zn106  1  0.81052579  0.30039819  0.30952366  1
  Zn  Zn107  1  0.81583727  0.31994446  0.81693759  1
  Zn  Zn108  1  0.81493326  0.81406026  0.31222426  1
  Zn  Zn109  1  0.81486635  0.81868709  0.81545735  1
  Zn  Zn110  1  0.18641243  0.44436704  0.44674314  1
  Zn  Zn111  1  0.18276142  0.44429947  0.93302474  1
  Zn  Zn112  1  0.19090303  0.94387661  0.43892500  1
  Zn  Zn113  1  0.18375353  0.93580104  0.93995582  1
  Zn  Zn114  1  0.69105558  0.43498596  0.43571279  1
  Zn  Zn115  1  0.68709552  0.43340361  0.94011401  1
  Zn  Zn116  1  0.69302370  0.93444668  0.43925947  1
  Zn  Zn117  1  0.68842816  0.93671287  0.93635539  1
  Zn  Zn118  1  0.31519382  0.06160632  0.05811871  1
  Zn  Zn119  1  0.31027885  0.06336619  0.55617783  1
  Zn  Zn120  1  0.31176700  0.55782459  0.05782087  1
  Zn  Zn121  1  0.30595197  0.55872131  0.56459726  1
  Zn  Zn122  1  0.81971208  0.06352078  0.06316753  1
  Zn  Zn123  1  0.80862508  0.07756774  0.55517956  1
  Zn  Zn124  1  0.81742160  0.56673204  0.06264679  1
  Zn  Zn125  1  0.81737620  0.56079194  0.55986007  1
  Zn  Zn126  1  0.44219296  0.43919771  0.19307684  1
  Zn  Zn127  1  0.44380480  0.43589692  0.68893354  1
  Zn  Zn128  1  0.43837597  0.93681052  0.18199949  1
  Zn  Zn129  1  0.43336817  0.93437564  0.68209889  1
  Zn  Zn130  1  0.95676535  0.44826940  0.19482308  1
  Zn  Zn131  1  0.93659700  0.43074772  0.68012745  1
  Zn  Zn132  1  0.93809524  0.94167390  0.20078461  1
  Zn  Zn133  1  0.93766189  0.94011305  0.68577583  1
  Zn  Zn134  1  0.04181275  0.06467452  0.31868168  1
  Zn  Zn135  1  0.06222776  0.07157092  0.80816944  1
  Zn  Zn136  1  0.06087929  0.55671073  0.31197994  1
  Zn  Zn137  1  0.02736536  0.58216896  0.83197277  1
  Zn  Zn138  1  0.59912786  0.03944382  0.33182966  1
  Zn  Zn139  1  0.56047040  0.06321313  0.80856070  1
  Zn  Zn140  1  0.56105103  0.56087511  0.31111123  1
  Zn  Zn141  1  0.56637237  0.56279308  0.81068782  1
  Zn  Zn142  1  0.43516600  0.18558754  0.43786702  1
  Zn  Zn143  1  0.43630984  0.18507283  0.94007127  1
  Zn  Zn144  1  0.43622074  0.68655817  0.43746070  1
  Zn  Zn145  1  0.43625541  0.68459673  0.93699820  1
  Zn  Zn146  1  0.95074374  0.18181382  0.44028142  1
  Zn  Zn147  1  0.92570991  0.21521180  0.92351163  1
  Zn  Zn148  1  0.93544515  0.69797603  0.43714604  1
  Zn  Zn149  1  0.93423921  0.68977194  0.93680164  1
  Zn  Zn150  1  0.06681948  0.31070317  0.06452879  1
  Zn  Zn151  1  0.05551082  0.29469032  0.55073972  1
  Zn  Zn152  1  -0.07160305  0.82267298  0.06424613  1
  Zn  Zn153  1  0.06029035  0.81561153  0.56439199  1
  Zn  Zn154  1  0.56346244  0.30966260  0.06524952  1
  Zn  Zn155  1  0.55989656  0.31405299  0.56345545  1
  Zn  Zn156  1  0.56308601  0.80851628  0.06028644  1
  Zn  Zn157  1  0.56179853  0.81154834  0.56483607  1
  O  O158  1  0.13030860  0.11704230  0.11014216  1
  O  O159  1  0.13555413  0.10834967  0.62395547  1
  O  O160  1  0.11374123  0.63318492  0.11606757  1
  O  O161  1  0.10995825  0.63109986  0.60969277  1
  O  O162  1  0.61652311  0.11451853  0.11749454  1
  O  O163  1  0.61384625  0.11239804  0.63323507  1
  O  O164  1  0.61724984  0.61619673  0.11879471  1
  O  O165  1  0.62292162  0.61984440  0.61616383  1
  O  O166  1  0.37880296  0.38477596  0.37824501  1
  O  O167  1  0.38759181  0.38177544  0.86597879  1
  O  O168  1  0.37469788  0.87537066  0.38709903  1
  O  O169  1  0.36396397  0.87338406  0.88978220  1
  O  O170  1  0.86552205  0.38933166  0.36543385  1
  O  O171  1  0.89479473  0.33467054  0.89572219  1
  O  O172  1  0.86358558  0.87614096  0.39414833  1
  O  O173  1  0.88874976  0.88687404  0.87326722  1
  O  O174  1  0.26747896  -0.00319757  0.37328075  1
  O  O175  1  0.25179412  0.01147984  0.88007948  1
  O  O176  1  0.25969480  0.51402909  0.38388237  1
  O  O177  1  0.25877859  0.49984212  0.86283587  1
  O  O178  1  0.70641758  0.01275192  0.36605567  1
  O  O179  1  0.75784340  0.00522353  0.87045381  1
  O  O180  1  0.76221629  0.51172385  0.38053718  1
  O  O181  1  0.74933096  0.49853691  0.86848245  1
  O  O182  1  0.26032277  0.45218576  0.08117530  1
  O  O183  1  0.24546662  0.49172233  0.63963480  1
  O  O184  1  0.24747794  0.99245963  0.12505712  1
  O  O185  1  0.24919014  0.98473479  0.62324750  1
  O  O186  1  0.73650329  0.50209128  0.11742448  1
  O  O187  1  0.73861812  0.50392820  0.62689800  1
  O  O188  1  0.73294408  1.00396356  0.11361277  1
  O  O189  1  0.74127347  0.99532914  0.63259423  1
  O  O190  1  0.01892028  0.37640502  0.25315986  1
  O  O191  1  -0.00161230  0.36782147  0.74952694  1
  O  O192  1  0.01868093  0.87937404  0.26124914  1
  O  O193  1  0.00037360  0.87542720  0.76172778  1
  O  O194  1  0.50361069  0.36715680  0.26180217  1
  O  O195  1  0.51355677  0.37315420  0.76235613  1
  O  O196  1  0.50202286  0.85389410  0.23898720  1
  O  O197  1  0.50759877  0.86433203  0.74232155  1
  O  O198  1  0.51057564  0.13556342  0.23769509  1
  O  O199  1  0.49169519  0.12689456  0.74034472  1
  O  O200  1  0.49329394  0.62874607  0.24003130  1
  O  O201  1  0.49702123  0.63313772  0.74520311  1
  O  O202  1  0.99190125  0.13766010  0.24795420  1
  O  O203  1  1.00678507  0.13952372  0.74050887  1
  O  O204  1  0.99378699  0.62575624  0.23966964  1
  O  O205  1  1.00780455  0.61690405  0.72499474  1
  O  O206  1  0.37867219  0.25195938  0.01266456  1
  O  O207  1  0.37721581  0.25031611  0.51504293  1
  O  O208  1  0.36280157  0.75251504  -0.00035684  1
  O  O209  1  0.36841357  0.75361215  0.50525466  1
  O  O210  1  0.85000709  0.23194651  0.00965429  1
  O  O211  1  0.86476038  0.25471408  0.49439001  1
  O  O212  1  0.86138883  0.75006061  -0.00217517  1
  O  O213  1  0.86944236  0.76271989  0.51363951  1
  O  O214  1  0.13792590  0.24665334  0.48690810  1
  O  O215  1  0.12845692  0.23585770  0.99942976  1
  O  O216  1  0.13421656  0.74496739  0.50164981  1
  O  O217  1  0.13628028  0.74298765  0.99380233  1
  O  O218  1  0.61596722  0.25125094  0.48604224  1
  O  O219  1  0.62685746  0.23964331  0.99244415  1
  O  O220  1  0.62387440  0.74277846  0.49096972  1
  O  O221  1  0.63318655  0.74334148  0.99233605  1
  O  O222  1  0.49387873  0.24133312  0.12975772  1
  O  O223  1  0.49408982  0.24002574  0.62672047  1
  O  O224  1  0.49806643  0.73429286  0.12793078  1
  O  O225  1  0.49499249  0.74357176  0.63549158  1
  O  O226  1  0.95768129  0.28913773  0.11993853  1
  O  O227  1  0.98092636  0.25301467  0.62506961  1
  O  O228  1  0.99087288  0.73567043  0.11450972  1
  O  O229  1  0.99112222  0.73976071  0.61923261  1
  O  O230  1  0.02562013  0.24874742  0.38037095  1
  O  O231  1  0.02501888  0.23963678  0.87478770  1
  O  O232  1  -0.00836477  0.77679215  0.37920063  1
  O  O233  1  0.01060052  0.76721762  0.88354023  1
  O  O234  1  0.50045711  0.25917244  0.36968841  1
  O  O235  1  0.50947692  0.25427003  0.87652853  1
  O  O236  1  0.51064450  0.73673186  0.36297952  1
  O  O237  1  0.50838481  0.74552556  0.86407629  1
  O  O238  1  0.23558438  0.12910284  0.50542016  1
  O  O239  1  0.24517832  0.12468422  0.98974823  1
  O  O240  1  0.23860249  0.63056221  0.49622994  1
  O  O241  1  0.23826634  0.62969382  1.00162412  1
  O  O242  1  0.74669704  0.14343960  0.48590015  1
  O  O243  1  0.73636093  0.12699301  0.99178286  1
  O  O244  1  0.73958991  0.62730998  0.49200021  1
  O  O245  1  0.73990647  0.63311547  1.00405879  1
  O  O246  1  0.25728113  0.40480127  0.01835809  1
  O  O247  1  0.25343502  0.38927717  0.52375480  1
  O  O248  1  0.25198136  0.86913207  0.00923880  1
  O  O249  1  0.25701037  0.86508139  0.50524722  1
  O  O250  1  0.74793867  0.35690283  0.00006357  1
  O  O251  1  0.73899114  0.35459942  0.49617474  1
  O  O252  1  0.74543972  0.86199497  -0.00120038  1
  O  O253  1  0.75394515  0.87359966  0.51373197  1
  O  O254  1  0.12728885  0.49066771  0.25082349  1
  O  O255  1  0.13221877  0.50461096  0.76106348  1
  O  O256  1  0.12110351  1.00209083  0.24563940  1
  O  O257  1  0.12993084  1.00144410  0.73925040  1
  O  O258  1  0.61891301  0.48723610  0.24222303  1
  O  O259  1  0.63545047  0.49503004  0.74464124  1
  O  O260  1  0.61237524  0.97578035  0.23680701  1
  O  O261  1  0.62874648  0.99115433  0.74427313  1
  O  O262  1  0.38869618  -0.00989466  0.26727654  1
  O  O263  1  0.38162869  0.01206375  0.75101136  1
  O  O264  1  0.37985531  0.51107184  0.26111360  1
  O  O265  1  0.38023261  0.50556429  0.75950132  1
  O  O266  1  0.88519342  0.02046929  0.25872671  1
  O  O267  1  0.86276865  -0.00296915  0.75830047  1
  O  O268  1  0.88410104  0.51256622  0.26477852  1
  O  O269  1  0.85584073  0.49418497  0.74393605  1
  O  O270  1  0.13506334  0.37106138  0.37858009  1
  O  O271  1  0.12570180  0.35986778  0.88707024  1
  O  O272  1  0.12545403  0.87659807  0.36668973  1
  O  O273  1  0.11732859  0.86606006  0.87592013  1
  O  O274  1  0.61520394  0.37310693  0.36402093  1
  O  O275  1  0.61801965  0.36549538  0.86926024  1
  O  O276  1  0.62802233  0.85936026  0.36048237  1
  O  O277  1  0.62887653  0.86595581  0.86197477  1
  O  O278  1  0.38973363  0.12621697  0.11892358  1
  O  O279  1  0.37759810  0.13037297  0.63205172  1
  O  O280  1  0.38018882  0.61859190  0.13110702  1
  O  O281  1  0.37932634  0.62861881  0.62912062  1
  O  O282  1  0.87280197  0.12477542  0.13798981  1
  O  O283  1  0.87377982  0.14274357  0.61751410  1
  O  O284  1  0.88261692  0.62256370  0.13984409  1
  O  O285  1  0.88198278  0.63548168  0.62468249  1
  O  O286  1  0.27315424  0.25064924  0.12579319  1
  O  O287  1  0.25886968  0.26684874  0.63661117  1
  O  O288  1  0.25047889  0.75710322  0.11800080  1
  O  O289  1  0.25256299  0.75482356  0.61582088  1
  O  O290  1  0.72901750  0.24381383  0.11372064  1
  O  O291  1  0.75481485  0.24420281  0.60935884  1
  O  O292  1  0.74532177  0.74949508  0.11209838  1
  O  O293  1  0.75308803  0.76181094  0.62571934  1
  O  O294  1  0.23194788  0.23882003  0.35217820  1
  O  O295  1  0.24460810  0.24530381  0.88665259  1
  O  O296  1  0.25803631  0.73728326  0.38696625  1
  O  O297  1  0.23675068  0.74729551  0.88245983  1
  O  O298  1  0.73039856  0.25338354  0.38044957  1
  O  O299  1  0.73774912  0.24134143  0.88172830  1
  O  O300  1  0.73886244  0.73822415  0.37446399  1
  O  O301  1  0.74135440  0.75102448  0.87892816  1
  O  O302  1  0.01292947  0.12003274  -0.00488558  1
  O  O303  1  0.02694155  0.13864867  0.51640064  1
  O  O304  1  0.00720617  0.62128117  0.00942414  1
  O  O305  1  0.00400661  0.62693741  0.50097077  1
  O  O306  1  0.50894147  0.11586997  0.00573206  1
  O  O307  1  0.49172144  0.11238133  0.51521067  1
  O  O308  1  0.50900235  0.61783585  0.00623922  1
  O  O309  1  0.51211521  0.62555534  0.50473567  1
  O  O310  1  0.49736345  0.37803211  0.48651204  1
  O  O311  1  0.51177014  0.38530008  0.98925650  1
  O  O312  1  0.48724613  0.88158098  0.51184755  1
  O  O313  1  0.48824899  0.87868001  1.00675685  1
  O  O314  1  1.00384731  0.39102099  0.50571362  1
  O  O315  1  1.00714312  0.39170563  1.00724124  1
  O  O316  1  0.98806621  0.87716248  0.49580132  1
  O  O317  1  0.99744410  0.88983355  0.99058069  1
  O  O318  1  0.49024769  0.49416716  0.37564627  1
  O  O319  1  0.49812936  0.49289838  0.87948155  1
  O  O320  1  0.50326073  1.00150792  0.39254719  1
  O  O321  1  0.49919609  1.00339306  0.88821600  1
  O  O322  1  0.98693872  0.50362641  0.38538763  1
  O  O323  1  1.01288780  0.49394437  0.90013407  1
  O  O324  1  0.99667769  0.97737928  0.37861523  1
  O  O325  1  0.99725978  0.99271031  0.87288202  1
  O  O326  1  -0.00151227  -0.00467643  0.10960422  1
  O  O327  1  0.01594739  -0.00058158  0.62949896  1
  O  O328  1  -0.00082512  0.51844874  0.11265958  1
  O  O329  1  -0.01671412  0.51570483  0.60599627  1
  O  O330  1  0.50699801  0.00349932  0.11287471  1
  O  O331  1  0.50426350  0.00537130  0.62103207  1
  O  O332  1  0.50593795  0.50705249  0.11662032  1
  O  O333  1  0.51316208  0.50796678  0.62605830  1
  O  O334  1  0.23619440  0.36909577  0.24713375  1
  O  O335  1  0.24965922  0.38861849  0.74216154  1
  O  O336  1  0.24020822  0.86723974  0.24430284  1
  O  O337  1  0.25342101  0.86757226  0.73334556  1
  O  O338  1  0.73215476  0.36873094  0.25193254  1
  O  O339  1  0.73770125  0.38565096  0.75979976  1
  O  O340  1  0.73706309  0.86604127  0.24509829  1
  O  O341  1  0.74201371  0.88534294  0.74379604  1
  O  O342  1  0.23912800  0.11484385  0.23194492  1
  O  O343  1  0.25873254  0.12953741  0.76740909  1
  O  O344  1  0.25891982  0.63186299  0.25812345  1
  O  O345  1  0.25389755  0.61145064  0.74826091  1
  O  O346  1  0.76756307  0.13565751  0.26145500  1
  O  O347  1  0.73681773  0.11251835  0.76076619  1
  O  O348  1  0.76299580  0.62638909  0.25597766  1
  O  O349  1  0.74878631  0.61121821  0.75132028  1
  O  O350  1  0.38041957  0.11152560  0.37410825  1
  O  O351  1  0.36551546  0.12441771  0.87082259  1
  O  O352  1  0.36825937  0.61946247  0.36820870  1
  O  O353  1  0.37166752  0.61550612  0.86798308  1
  O  O354  1  0.88260290  0.13101136  0.36691927  1
  O  O355  1  0.86101236  0.12155505  0.87603216  1
  O  O356  1  0.86862101  0.62731765  0.36558199  1
  O  O357  1  0.91833521  0.61782153  0.85661012  1
  O  O358  1  0.12741910  0.37539297  0.13216015  1
  O  O359  1  0.13233725  0.36271571  0.62285115  1
  O  O360  1  0.13607153  0.87563109  0.14197140  1
  O  O361  1  0.13688989  0.88353689  0.61926492  1
  O  O362  1  0.61538209  0.38162412  0.13841184  1
  O  O363  1  0.61666889  0.38385865  0.63672372  1
  O  O364  1  0.62304537  0.87498071  0.13267559  1
  O  O365  1  0.63191056  0.87902763  0.63613852  1
  O  O366  1  0.11547089  0.26927212  0.25874478  1
  O  O367  1  0.13810206  0.25071934  0.76704523  1
  O  O368  1  0.12204509  0.75796739  0.25136669  1
  O  O369  1  0.12777404  0.74041686  0.76716294  1
  O  O370  1  0.61334324  0.26229923  0.25627722  1
  O  O371  1  0.62723187  0.25583742  0.75797576  1
  O  O372  1  0.61916505  0.75324536  0.25184998  1
  O  O373  1  0.61986963  0.75426627  0.75577707  1
  O  O374  1  0.38725444  0.25623563  0.23893345  1
  O  O375  1  0.37731039  0.23859234  0.74204868  1
  O  O376  1  0.38200185  0.73695218  0.24824831  1
  O  O377  1  0.38125986  0.74368346  0.74699622  1
  O  O378  1  0.88452922  0.24190358  0.25472357  1
  O  O379  1  0.85941507  0.24849376  0.73843206  1
  O  O380  1  0.87714265  0.73792012  0.25296651  1
  O  O381  1  0.86708719  0.75343078  0.73578215  1
  O  O382  1  0.37884350  0.50348718  0.49030420  1
  O  O383  1  0.39025392  0.50799356  0.98453513  1
  O  O384  1  0.38080190  0.99166805  0.49108650  1
  O  O385  1  0.38272924  0.98896285  0.99753518  1
  O  O386  1  0.88315505  0.50416952  0.48466576  1
  O  O387  1  0.88411140  0.49305287  1.00540937  1
  O  O388  1  0.86570957  0.98718760  0.51008542  1
  O  O389  1  0.89088901  1.01213722  0.98588805  1
  O  O390  1  0.11232370  0.01025676  -0.00708343  1
  O  O391  1  0.13006171  0.00786971  0.51121112  1
  O  O392  1  0.12391748  0.51877182  0.00077222  1
  O  O393  1  0.10561734  0.51417585  0.49384994  1
  O  O394  1  0.61765227  0.00230097  0.00280813  1
  O  O395  1  0.61482857  -0.01519700  0.51765322  1
  O  O396  1  0.61828030  0.50598364  0.00478390  1
  O  O397  1  0.62493673  0.50822200  0.50501016  1
  O  O398  1  0.39021373  0.36729214  0.12193306  1
  O  O399  1  0.38058266  0.36469772  0.62666297  1
  O  O400  1  0.36253704  0.87239685  0.11547090  1
  O  O401  1  0.36288658  0.86866166  0.61559976  1
  O  O402  1  0.90832447  0.35126704  0.11907458  1
  O  O403  1  0.86671948  0.35827823  0.62249221  1
  O  O404  1  0.87197000  0.87914486  0.13961811  1
  O  O405  1  0.86790243  0.87209265  0.62052139  1
  O  O406  1  0.12258277  0.11403988  0.38849689  1
  O  O407  1  0.13910902  0.13018761  0.88431093  1
  O  O408  1  0.13378324  0.62237298  0.38037775  1
  O  O409  1  0.11733938  0.63991159  0.89031241  1
  O  O410  1  0.60945537  0.14715919  0.36667005  1
  O  O411  1  0.62852622  0.12913553  0.88204701  1
  O  O412  1  0.63184552  0.62721054  0.37818074  1
  O  O413  1  0.62053204  0.63320686  0.88554976  1
