# generated using pymatgen
data_V79Zn79O256
_symmetry_space_group_name_H-M   'P 1'
_cell_length_a   16.90136589
_cell_length_b   16.93398555
_cell_length_c   16.91511162
_cell_angle_alpha   89.87000019
_cell_angle_beta   90.00325320
_cell_angle_gamma   89.91948518
_symmetry_Int_Tables_number   1
_chemical_formula_structural   V79Zn79O256
_chemical_formula_sum   'V79 Zn79 O256'
_cell_volume   4841.21431828
_cell_formula_units_Z   1
loop_
 _symmetry_equiv_pos_site_id
 _symmetry_equiv_pos_as_xyz
  1  'x, y, z'
loop_
 _atom_site_type_symbol
 _atom_site_label
 _atom_site_symmetry_multiplicity
 _atom_site_fract_x
 _atom_site_fract_y
 _atom_site_fract_z
 _atom_site_occupancy
  V  V0  1  0.13088097  0.63088941  -0.00887768  1
  V  V1  1  0.62580175  -0.00307872  0.12165847  1
  V  V2  1  0.75350192  0.24107728  -0.00614140  1
  V  V3  1  -0.00642392  0.49505540  0.49321773  1
  V  V4  1  0.24879868  -0.00042498  0.24977406  1
  V  V5  1  0.73435434  0.23695103  0.50261355  1
  V  V6  1  0.37569415  0.49949435  0.89673271  1
  V  V7  1  -0.00075857  0.75580364  0.24413892  1
  V  V8  1  0.74592980  0.74470296  -0.00470723  1
  V  V9  1  0.38153541  0.87610076  -0.00897294  1
  V  V10  1  0.11526360  0.00670633  0.61661394  1
  V  V11  1  0.87690224  0.75556998  0.62389607  1
  V  V12  1  0.11518225  0.26640221  0.38299550  1
  V  V13  1  0.63037003  0.39642300  0.24381344  1
  V  V14  1  0.75381379  0.01154652  0.74978835  1
  V  V15  1  0.87728221  0.62792152  0.74573041  1
  V  V16  1  0.75244032  0.37542506  0.62324243  1
  V  V17  1  0.37726791  0.25309282  0.12452142  1
  V  V18  1  0.11788764  0.62977047  0.51398573  1
  V  V19  1  0.87359788  0.01255852  0.86980292  1
  V  V20  1  0.12867541  0.37376436  0.74678632  1
  V  V21  1  0.75046218  0.87238939  0.12361696  1
  V  V22  1  0.37222115  0.12002745  0.74570279  1
  V  V23  1  0.00305980  0.62379905  0.11881217  1
  V  V24  1  0.25135012  0.37443900  0.12554436  1
  V  V25  1  0.38233123  0.49681784  0.37681045  1
  V  V26  1  0.25619039  0.12252369  0.87876660  1
  V  V27  1  0.50185053  0.12177129  0.12153859  1
  V  V28  1  0.49677882  0.75028720  0.23779367  1
  V  V29  1  0.12791491  0.49903123  0.12564478  1
  V  V30  1  0.87671273  0.87394277  -0.00614129  1
  V  V31  1  0.49732555  0.37952760  0.88651702  1
  V  V32  1  0.87758851  0.37269055  -0.00064597  1
  V  V33  1  0.87594591  0.74633085  0.12237742  1
  V  V34  1  0.01492588  0.86898093  0.87119842  1
  V  V35  1  0.24808401  0.87255777  0.60636175  1
  V  V36  1  0.50200366  0.86594087  0.38419274  1
  V  V37  1  0.75680824  0.01000558  0.25107030  1
  V  V38  1  0.87725105  0.24302815  0.13851682  1
  V  V39  1  0.75225592  0.50267345  0.74294592  1
  V  V40  1  0.49809155  -0.00434562  -0.01364427  1
  V  V41  1  0.87467258  0.01181452  0.38225900  1
  V  V42  1  -0.00964664  0.87714936  0.39097585  1
  V  V43  1  0.01571847  0.74818698  0.74929058  1
  V  V44  1  0.26073600  0.49675817  0.73679499  1
  V  V45  1  0.50725715  0.37495507  0.37067110  1
  V  V46  1  0.24429246  -0.01317525  0.75472307  1
  V  V47  1  0.62887858  0.24490851  0.87253648  1
  V  V48  1  0.11552839  0.50050967  0.62949709  1
  V  V49  1  0.75212028  0.38085188  0.12963516  1
  V  V50  1  0.61402229  0.75469028  0.87220746  1
  V  V51  1  0.61611209  0.88046327  0.75069215  1
  V  V52  1  0.50736683  0.11824985  0.61483581  1
  V  V53  1  0.62754600  0.12127489  -0.00579748  1
  V  V54  1  0.51168151  0.24565528  0.25018923  1
  V  V55  1  0.00069926  0.12592647  0.14590517  1
  V  V56  1  0.37536610  0.11978685  0.25278661  1
  V  V57  1  0.75833064  0.60504589  0.37200832  1
  V  V58  1  0.75143984  0.76279262  0.49288224  1
  V  V59  1  0.00386788  0.00619893  -0.00140187  1
  V  V60  1  0.75294692  0.87594642  0.63042640  1
  V  V61  1  0.62987797  0.62364572  0.49644435  1
  V  V62  1  0.51355618  0.60829222  0.11742584  1
  V  V63  1  0.25790193  0.86640502  0.13013358  1
  V  V64  1  0.24923138  0.49438754  0.25250468  1
  V  V65  1  0.50974895  0.50166420  0.49414796  1
  V  V66  1  0.11927241  0.74172630  0.37173075  1
  V  V67  1  0.25340619  0.25242972  0.00233614  1
  V  V68  1  0.74304118  0.62307772  0.87217036  1
  V  V69  1  0.00078303  0.37516075  0.87257291  1
  V  V70  1  0.37174956  -0.00667222  0.38369801  1
  V  V71  1  0.49259663  0.24728978  0.74878351  1
  V  V72  1  0.25162968  0.75128667  -0.00702918  1
  V  V73  1  0.87904335  0.23481568  0.62432904  1
  V  V74  1  0.37723354  0.62698981  0.24066458  1
  V  V75  1  0.62540450  0.86705784  0.25174688  1
  V  V76  1  0.57077467  0.55456497  0.67518945  1
  V  V77  1  0.62118376  0.37326383  0.74111609  1
  V  V78  1  -0.00275427  0.23707991  0.74546889  1
  Zn  Zn79  1  0.61261101  0.21015346  0.40235272  1
  Zn  Zn80  1  0.25418320  0.62476683  0.37218360  1
  Zn  Zn81  1  0.87543404  0.50068404  0.87272428  1
  Zn  Zn82  1  0.00516942  0.49885432  -0.00324481  1
  Zn  Zn83  1  0.86391917  0.60259341  0.24344711  1
  Zn  Zn84  1  0.51135194  0.00398654  0.49604862  1
  Zn  Zn85  1  0.12850073  0.12693606  0.00467657  1
  Zn  Zn86  1  0.25879506  0.62864190  0.86755066  1
  Zn  Zn87  1  0.12776804  0.24805449  0.87491456  1
  Zn  Zn88  1  0.12559704  0.13349492  0.50148469  1
  Zn  Zn89  1  0.87609163  0.37176523  0.49402671  1
  Zn  Zn90  1  0.32627964  0.31915674  0.52831966  1
  Zn  Zn91  1  0.12750799  0.00196962  0.12849846  1
  Zn  Zn92  1  0.39270624  0.76179506  0.60199032  1
  Zn  Zn93  1  0.12366633  0.87838230  0.25092822  1
  Zn  Zn94  1  0.18550705  0.18813918  0.20188385  1
  Zn  Zn95  1  0.18623465  0.18472534  0.68346000  1
  Zn  Zn96  1  0.18640835  0.68651772  0.18868799  1
  Zn  Zn97  1  0.20739449  0.68577179  0.68955327  1
  Zn  Zn98  1  0.69040678  0.18520063  0.17941973  1
  Zn  Zn99  1  0.68189230  0.18553088  0.67930619  1
  Zn  Zn100  1  0.68715406  0.68257903  0.19011440  1
  Zn  Zn101  1  0.50526326  0.72371601  0.73591149  1
  Zn  Zn102  1  0.29572082  0.29492350  0.32449471  1
  Zn  Zn103  1  0.31433138  0.31344630  0.81475056  1
  Zn  Zn104  1  0.31541540  0.80925296  0.31932383  1
  Zn  Zn105  1  0.31700781  0.81635595  0.81571337  1
  Zn  Zn106  1  0.79642412  0.29644331  0.31936522  1
  Zn  Zn107  1  0.81420279  0.31043492  0.80797689  1
  Zn  Zn108  1  0.81538740  0.81437690  0.30880943  1
  Zn  Zn109  1  0.81267524  0.81274302  0.80996967  1
  Zn  Zn110  1  0.19427729  0.44197356  0.44877195  1
  Zn  Zn111  1  0.19149133  0.43694511  0.93650130  1
  Zn  Zn112  1  0.17866649  0.93735736  0.43346022  1
  Zn  Zn113  1  0.19186648  0.93945253  0.94224546  1
  Zn  Zn114  1  0.68768828  0.42979665  0.43569891  1
  Zn  Zn115  1  0.69012552  0.42944184  0.93288871  1
  Zn  Zn116  1  0.68796637  0.94456386  0.43353445  1
  Zn  Zn117  1  0.68950213  0.93666313  0.93307438  1
  Zn  Zn118  1  0.31603856  0.05962997  0.06539205  1
  Zn  Zn119  1  0.31298441  0.05974708  0.57081694  1
  Zn  Zn120  1  0.31489861  0.56688896  0.06615124  1
  Zn  Zn121  1  0.25493109  0.74414161  0.49440113  1
  Zn  Zn122  1  0.81622806  0.06175654  0.06354398  1
  Zn  Zn123  1  0.81630785  0.05921355  0.56410246  1
  Zn  Zn124  1  0.80900378  0.55871418  0.05642900  1
  Zn  Zn125  1  0.81396279  0.56861656  0.56323418  1
  Zn  Zn126  1  0.43866208  0.43591401  0.18855836  1
  Zn  Zn127  1  0.42588622  0.42111244  0.66588084  1
  Zn  Zn128  1  0.43771491  0.93565246  0.18406466  1
  Zn  Zn129  1  0.43009433  0.94032505  0.68105373  1
  Zn  Zn130  1  0.90361269  0.44267927  0.32860999  1
  Zn  Zn131  1  0.93756331  0.43350592  0.68373078  1
  Zn  Zn132  1  0.93638439  0.93977796  0.18553052  1
  Zn  Zn133  1  0.94020631  0.93576525  0.68963887  1
  Zn  Zn134  1  0.04666695  0.08324896  0.35347038  1
  Zn  Zn135  1  0.07030098  0.05982077  0.81458453  1
  Zn  Zn136  1  0.04078431  0.55180838  0.29898600  1
  Zn  Zn137  1  0.06412590  0.56262340  0.81176863  1
  Zn  Zn138  1  0.55810198  0.04782582  0.30670447  1
  Zn  Zn139  1  0.56471109  0.06091163  0.80690848  1
  Zn  Zn140  1  0.56979739  0.57265695  0.31285193  1
  Zn  Zn141  1  0.56791665  0.56046828  0.94543515  1
  Zn  Zn142  1  0.42010361  0.19345522  0.43423900  1
  Zn  Zn143  1  0.43805687  0.18552501  0.93523711  1
  Zn  Zn144  1  0.43969245  0.68258421  0.43293850  1
  Zn  Zn145  1  0.43047738  0.68866891  0.94232702  1
  Zn  Zn146  1  0.93913996  0.19773037  0.43318270  1
  Zn  Zn147  1  0.94178827  0.18997225  0.93644400  1
  Zn  Zn148  1  0.93627219  0.68555760  0.43923602  1
  Zn  Zn149  1  0.93765365  0.68631112  0.93159940  1
  Zn  Zn150  1  0.06493543  0.30977614  0.06604392  1
  Zn  Zn151  1  0.06765347  0.31511848  0.56146248  1
  Zn  Zn152  1  0.07036673  0.81647408  0.06121988  1
  Zn  Zn153  1  0.06665729  0.81870899  0.56954166  1
  Zn  Zn154  1  0.56849458  0.31223891  0.06444676  1
  Zn  Zn155  1  0.53488394  0.31274853  0.56566783  1
  Zn  Zn156  1  0.56192744  0.80886870  0.06274148  1
  Zn  Zn157  1  0.57591018  0.80909495  0.56745139  1
  O  O158  1  0.11181259  0.12893604  0.12997418  1
  O  O159  1  0.12185942  0.11288095  0.62252110  1
  O  O160  1  0.12231103  0.62115258  0.11336139  1
  O  O161  1  0.12783406  0.62227760  0.61734061  1
  O  O162  1  0.62103397  0.11730729  0.11350153  1
  O  O163  1  0.60728211  0.11356219  0.63010295  1
  O  O164  1  0.61264379  0.62620071  0.12707465  1
  O  O165  1  0.62653161  0.61313867  0.61395522  1
  O  O166  1  0.39920894  0.38868841  0.35559487  1
  O  O167  1  0.39077283  0.38159925  0.87116153  1
  O  O168  1  0.38956636  0.88164949  0.37318438  1
  O  O169  1  0.37395522  0.88077979  0.89194387  1
  O  O170  1  0.86610706  0.35809768  0.38163988  1
  O  O171  1  0.88307202  0.37202586  0.88147278  1
  O  O172  1  0.88733358  0.87696464  0.37153436  1
  O  O173  1  0.88310240  0.87919041  0.88428857  1
  O  O174  1  0.26518232  -0.01662683  0.36371347  1
  O  O175  1  0.24323577  0.00726247  0.86285399  1
  O  O176  1  0.26165572  0.49943529  0.36682403  1
  O  O177  1  0.26930041  0.49074139  0.86747275  1
  O  O178  1  0.76306848  -0.00948460  0.35823701  1
  O  O179  1  0.76642084  -0.00265292  0.86816587  1
  O  O180  1  0.76063731  0.50496608  0.37870127  1
  O  O181  1  0.75147351  0.50343318  0.85898995  1
  O  O182  1  0.24789094  0.49341238  0.13083690  1
  O  O183  1  0.23285263  0.49943226  0.63882326  1
  O  O184  1  0.25072344  0.98953126  0.13283449  1
  O  O185  1  0.24560189  0.99038616  0.63581213  1
  O  O186  1  0.76472814  0.47888748  0.12550486  1
  O  O187  1  0.75671209  0.49012100  0.63296123  1
  O  O188  1  0.74805556  0.99291557  0.13086309  1
  O  O189  1  0.76431460  0.99094833  0.64210202  1
  O  O190  1  -0.00547115  0.37098833  0.23181014  1
  O  O191  1  0.00561213  0.36783262  0.75822011  1
  O  O192  1  0.00114781  0.86408467  0.24324019  1
  O  O193  1  0.00022103  0.86489227  0.76455511  1
  O  O194  1  0.51535453  0.36461506  0.24771860  1
  O  O195  1  0.50629748  0.36517130  0.75281430  1
  O  O196  1  0.50620868  0.86791285  0.25087778  1
  O  O197  1  0.51772650  0.89777095  0.74565924  1
  O  O198  1  0.49610942  0.12597222  0.24284127  1
  O  O199  1  0.48778408  0.12427082  0.74946418  1
  O  O200  1  0.49801444  0.63174954  0.24148871  1
  O  O201  1  0.51512839  0.60847370  0.73697746  1
  O  O202  1  1.00195699  0.11884416  0.24333637  1
  O  O203  1  1.00617205  0.13927795  0.75662755  1
  O  O204  1  1.00733572  0.64612322  0.23007810  1
  O  O205  1  0.99139549  0.64020109  0.76298485  1
  O  O206  1  0.36791102  0.24034606  0.01442145  1
  O  O207  1  0.33323095  0.26337391  0.42803568  1
  O  O208  1  0.36727624  0.76560356  0.00130869  1
  O  O209  1  0.36702483  0.73490786  0.49738060  1
  O  O210  1  0.86923900  0.25436275  -0.00092821  1
  O  O211  1  0.86726232  0.24868147  0.51365136  1
  O  O212  1  0.86958396  0.75624808  0.00356144  1
  O  O213  1  0.86422999  0.74441611  0.51186608  1
  O  O214  1  0.12487773  0.25152627  0.49040333  1
  O  O215  1  0.13963828  0.24674675  1.00120080  1
  O  O216  1  0.11204518  0.73871426  0.49344324  1
  O  O217  1  0.13703945  0.74216938  1.00310065  1
  O  O218  1  0.63043624  0.25050150  0.51500992  1
  O  O219  1  0.63408447  0.24327367  0.99224704  1
  O  O220  1  0.64597125  0.73763496  0.50740837  1
  O  O221  1  0.63823800  0.76133138  0.98820479  1
  O  O222  1  0.49629758  0.24418463  0.13039617  1
  O  O223  1  0.51053007  0.23021793  0.64572409  1
  O  O224  1  0.50041991  0.74158831  0.13380978  1
  O  O225  1  0.50048995  0.75761891  0.62881310  1
  O  O226  1  0.98957985  0.23746760  0.12363152  1
  O  O227  1  0.98946159  0.25363798  0.63468305  1
  O  O228  1  0.99359920  0.74714390  0.12152271  1
  O  O229  1  0.99365767  0.76229030  0.64251183  1
  O  O230  1  0.01515407  0.25880556  0.36639531  1
  O  O231  1  0.00200729  0.25745976  0.86230744  1
  O  O232  1  -0.00162331  0.76023224  0.36443858  1
  O  O233  1  0.00008041  0.76193380  0.86807839  1
  O  O234  1  0.50765250  0.25406926  0.36753183  1
  O  O235  1  0.50702085  0.25709219  0.86828926  1
  O  O236  1  0.49954367  0.76304645  0.36443260  1
  O  O237  1  0.51418132  0.74487684  0.88179302  1
  O  O238  1  0.25275263  0.15506044  0.53623198  1
  O  O239  1  0.25219629  0.12932843  0.99623545  1
  O  O240  1  0.21802892  0.62386340  0.48446294  1
  O  O241  1  0.24808536  0.63594096  1.00153073  1
  O  O242  1  0.74628959  0.13944299  0.52045870  1
  O  O243  1  0.74644387  0.13294442  1.00202689  1
  O  O244  1  0.74861985  0.63095608  0.48896482  1
  O  O245  1  0.75974709  0.63619849  0.98752684  1
  O  O246  1  0.25117125  0.36366246  0.01103646  1
  O  O247  1  0.24146263  0.38960357  0.53365108  1
  O  O248  1  0.25907535  0.87192959  0.00870982  1
  O  O249  1  0.24933806  0.87502930  0.50421174  1
  O  O250  1  0.75776140  0.36087744  0.00766211  1
  O  O251  1  0.74754013  0.36317082  0.51218201  1
  O  O252  1  0.75982067  0.86735731  0.00203375  1
  O  O253  1  0.73683728  0.86956445  0.50950042  1
  O  O254  1  0.13595221  0.51084733  0.23644588  1
  O  O255  1  0.12676375  0.49045861  0.74767701  1
  O  O256  1  0.14295119  0.99846737  0.25448895  1
  O  O257  1  0.13969465  1.00724763  0.73866550  1
  O  O258  1  0.62727706  0.49481335  0.24522458  1
  O  O259  1  0.63212999  0.49157735  0.73930017  1
  O  O260  1  0.63556863  0.98828311  0.24088413  1
  O  O261  1  0.64525354  0.98969832  0.76512352  1
  O  O262  1  0.37114568  0.00231923  0.25416749  1
  O  O263  1  0.35892432  0.01074366  0.74852995  1
  O  O264  1  0.36912456  0.50735902  0.25264908  1
  O  O265  1  0.36222394  0.48473918  0.73491596  1
  O  O266  1  0.86065941  -0.00320861  0.24821916  1
  O  O267  1  0.87025513  -0.00343615  0.76297046  1
  O  O268  1  0.93201454  0.51674709  0.25655352  1
  O  O269  1  0.87028258  0.50791008  0.74795511  1
  O  O270  1  0.13767621  0.36624364  0.38462864  1
  O  O271  1  0.11726362  0.37186038  0.86854863  1
  O  O272  1  0.10792873  0.86623507  0.37243397  1
  O  O273  1  0.11310655  0.87849848  0.88147479  1
  O  O274  1  0.62144046  0.37562562  0.35606120  1
  O  O275  1  0.61533100  0.36654917  0.86266397  1
  O  O276  1  0.61211850  0.88513964  0.36117513  1
  O  O277  1  0.63168714  0.86464740  0.86558935  1
  O  O278  1  0.38333611  0.13068791  0.13275262  1
  O  O279  1  0.38376645  0.12396577  0.64216117  1
  O  O280  1  0.38970165  0.62036629  0.13497918  1
  O  O281  1  0.34625744  0.71232027  0.70245025  1
  O  O282  1  0.88728118  0.13330428  0.12140014  1
  O  O283  1  0.87778104  0.13609634  0.62630796  1
  O  O284  1  0.88285229  0.63204519  0.11973086  1
  O  O285  1  0.87031577  0.63855915  0.63807523  1
  O  O286  1  0.25667435  0.25552748  0.12383955  1
  O  O287  1  0.25887769  0.21568789  0.59164406  1
  O  O288  1  0.24756396  0.76234214  0.11871329  1
  O  O289  1  0.23247782  0.76725743  0.61418407  1
  O  O290  1  0.76230310  0.24796548  0.11382884  1
  O  O291  1  0.76070847  0.25530834  0.62591021  1
  O  O292  1  0.75722736  0.75017325  0.11545457  1
  O  O293  1  0.76232951  0.76482141  0.61537542  1
  O  O294  1  0.18751288  0.25000366  0.29668296  1
  O  O295  1  0.25349469  0.24415584  0.88716926  1
  O  O296  1  0.23392860  0.74796240  0.37422547  1
  O  O297  1  0.25519648  0.74791230  0.88706925  1
  O  O298  1  0.73247177  0.24068838  0.39679482  1
  O  O299  1  0.74027999  0.25815134  0.88150863  1
  O  O300  1  0.75658540  0.75983511  0.39190631  1
  O  O301  1  0.74609058  0.74329507  0.87865420  1
  O  O302  1  0.00373686  0.11505413  0.00073210  1
  O  O303  1  0.01521633  0.11790112  0.46240707  1
  O  O304  1  0.00958572  0.62798928  0.00331174  1
  O  O305  1  0.00952355  0.61452953  0.49566804  1
  O  O306  1  0.50578129  0.11599799  0.00234437  1
  O  O307  1  0.48760711  0.14042512  0.51417338  1
  O  O308  1  0.49822495  0.62565716  0.01270856  1
  O  O309  1  0.51902346  0.61639723  0.48562952  1
  O  O310  1  0.52269118  0.38752814  0.47743639  1
  O  O311  1  0.50693084  0.36625287  0.98465776  1
  O  O312  1  0.51820335  0.87618197  0.48545038  1
  O  O313  1  0.48853977  0.87955760  1.00738961  1
  O  O314  1  0.99558331  0.39167244  0.51473299  1
  O  O315  1  0.99443473  0.36921895  0.99148030  1
  O  O316  1  0.99804125  0.87199147  0.48944949  1
  O  O317  1  0.99555419  0.88263033  0.99214212  1
  O  O318  1  0.50255214  0.49600439  0.37284871  1
  O  O319  1  0.49202952  0.48781116  0.88120451  1
  O  O320  1  0.48697892  0.98519854  0.37545573  1
  O  O321  1  0.50654120  1.00078284  0.88756743  1
  O  O322  1  1.00739205  0.48962187  0.39260665  1
  O  O323  1  0.99806967  0.48754047  0.87656931  1
  O  O324  1  0.98603885  0.98406692  0.36368024  1
  O  O325  1  0.99315573  0.99000415  0.87803706  1
  O  O326  1  -0.00152293  0.01316891  0.11826608  1
  O  O327  1  0.01640229  -0.00923805  0.62857600  1
  O  O328  1  0.01419715  0.51511273  0.11686489  1
  O  O329  1  0.01028816  0.50490011  0.62624095  1
  O  O330  1  0.50776442  0.00350001  0.11707446  1
  O  O331  1  0.48822718  0.01197561  0.61019297  1
  O  O332  1  0.50262761  0.50845797  0.12714505  1
  O  O333  1  0.50677937  0.49745226  0.61372402  1
  O  O334  1  0.25888919  0.38733288  0.24060790  1
  O  O335  1  0.23834525  0.38072656  0.75651208  1
  O  O336  1  0.25589110  0.87743799  0.23942482  1
  O  O337  1  0.24774733  0.88551869  0.75431405  1
  O  O338  1  0.74407954  0.36508737  0.23681640  1
  O  O339  1  0.74298370  0.38196925  0.74451479  1
  O  O340  1  0.74230303  0.87566876  0.24172335  1
  O  O341  1  0.74569486  0.88166351  0.74549450  1
  O  O342  1  0.26627089  0.11050690  0.23998468  1
  O  O343  1  0.26007333  0.12616067  0.75668652  1
  O  O344  1  0.25964470  0.61624915  0.24760300  1
  O  O345  1  0.24281508  0.60095559  0.75652111  1
  O  O346  1  0.74366273  0.10854526  0.24671581  1
  O  O347  1  0.74600957  0.11010788  0.74498889  1
  O  O348  1  0.75204535  0.62647779  0.26458414  1
  O  O349  1  0.75928200  0.61486463  0.75770287  1
  O  O350  1  0.38524302  0.10499200  0.36123927  1
  O  O351  1  0.36491514  0.12526958  0.86707129  1
  O  O352  1  0.37833928  0.61263944  0.35951024  1
  O  O353  1  0.37785392  0.60414748  0.88144011  1
  O  O354  1  0.88002845  0.11063454  0.37078006  1
  O  O355  1  0.88091397  0.11080922  0.87749828  1
  O  O356  1  0.86015271  0.63149790  0.37266324  1
  O  O357  1  0.86495066  0.62383987  0.86545207  1
  O  O358  1  0.13755812  0.38624528  0.11925505  1
  O  O359  1  0.11678352  0.38405377  0.64046055  1
  O  O360  1  0.14010708  0.88095566  0.12729132  1
  O  O361  1  0.13857799  0.89122185  0.62232463  1
  O  O362  1  0.64375613  0.36689842  0.12957421  1
  O  O363  1  0.63276963  0.36312887  0.63680535  1
  O  O364  1  0.63074214  0.87744571  0.13029581  1
  O  O365  1  0.63861483  0.87531659  0.64262167  1
  O  O366  1  0.05655494  0.33320610  0.23968636  1
  O  O367  1  0.11542091  0.25702349  0.74543537  1
  O  O368  1  0.11762984  0.75520907  0.25470319  1
  O  O369  1  0.11372510  0.74017554  0.74641769  1
  O  O370  1  0.61459035  0.23781488  0.24941924  1
  O  O371  1  0.62042010  0.25363081  0.75753769  1
  O  O372  1  0.61678506  0.76049578  0.24535840  1
  O  O373  1  0.61601572  0.76618716  0.76369252  1
  O  O374  1  0.38621901  0.23812645  0.24388131  1
  O  O375  1  0.38329488  0.23843337  0.75723733  1
  O  O376  1  0.38415666  0.73819717  0.25617594  1
  O  O377  1  0.39120231  0.74191685  0.76799609  1
  O  O378  1  0.86607471  0.24631814  0.23614293  1
  O  O379  1  0.88665609  0.25130946  0.74025104  1
  O  O380  1  0.88055580  0.75137958  0.23226407  1
  O  O381  1  0.88007263  0.74423225  0.74404710  1
  O  O382  1  0.39886867  0.50310913  0.48145239  1
  O  O383  1  0.36880331  0.49220076  0.99497000  1
  O  O384  1  0.37023123  1.00736735  0.48420509  1
  O  O385  1  0.38474949  0.98803816  1.00609345  1
  O  O386  1  0.88997424  0.50381154  0.50652113  1
  O  O387  1  0.87800320  0.48350567  0.99651182  1
  O  O388  1  0.86387180  0.99941720  0.48149357  1
  O  O389  1  0.88279547  0.99342672  0.99066427  1
  O  O390  1  0.11496731  0.00276703  0.00455902  1
  O  O391  1  0.13741204  0.00886848  0.51179463  1
  O  O392  1  0.13119569  0.50873557  0.00912044  1
  O  O393  1  0.11321605  0.51060565  0.51092262  1
  O  O394  1  0.62117265  0.00072065  0.00211125  1
  O  O395  1  0.62181917  0.03851202  0.46268757  1
  O  O396  1  0.64688115  0.50526055  -0.00231420  1
  O  O397  1  0.62222012  0.50864352  0.49372484  1
  O  O398  1  0.36889600  0.36132687  0.13155583  1
  O  O399  1  0.41910544  0.34143993  0.59002594  1
  O  O400  1  0.36244080  0.87652564  0.11821721  1
  O  O401  1  0.35273574  0.87368915  0.63055800  1
  O  O402  1  0.86594031  0.35443666  0.11471212  1
  O  O403  1  0.86355803  0.36611002  0.62406262  1
  O  O404  1  0.87288679  0.86746998  0.11143997  1
  O  O405  1  0.86780363  0.86693439  0.63276128  1
  O  O406  1  0.13743117  0.14503853  0.38180727  1
  O  O407  1  0.14127667  0.12907772  0.87758174  1
  O  O408  1  0.10946555  0.63844846  0.36819687  1
  O  O409  1  0.13326494  0.61497902  0.88864707  1
  O  O410  1  0.62179260  0.09206542  0.39315511  1
  O  O411  1  0.61960932  0.13791554  0.87751988  1
  O  O412  1  0.64624577  0.62452083  0.38242881  1
  O  O413  1  0.63511749  0.64123715  0.87442593  1
