# generated using pymatgen
data_V79Zn79O256
_symmetry_space_group_name_H-M   'P 1'
_cell_length_a   16.96602948
_cell_length_b   16.94011467
_cell_length_c   16.97165615
_cell_angle_alpha   90.27441702
_cell_angle_beta   89.93559544
_cell_angle_gamma   89.96803574
_symmetry_Int_Tables_number   1
_chemical_formula_structural   V79Zn79O256
_chemical_formula_sum   'V79 Zn79 O256'
_cell_volume   4877.70423594
_cell_formula_units_Z   1
loop_
 _symmetry_equiv_pos_site_id
 _symmetry_equiv_pos_as_xyz
  1  'x, y, z'
loop_
 _atom_site_type_symbol
 _atom_site_label
 _atom_site_symmetry_multiplicity
 _atom_site_fract_x
 _atom_site_fract_y
 _atom_site_fract_z
 _atom_site_occupancy
  V  V0  1  0.38878831  0.75146934  0.63015095  1
  V  V1  1  0.00044894  0.62034621  0.62512628  1
  V  V2  1  0.62880605  0.36986352  0.25001320  1
  V  V3  1  0.52042330  0.11923007  0.11143268  1
  V  V4  1  0.87549739  0.62689715  0.24979023  1
  V  V5  1  0.37856668  0.49687452  0.37480158  1
  V  V6  1  -0.00242953  0.74910183  0.25097318  1
  V  V7  1  0.50400942  0.37078439  0.86438599  1
  V  V8  1  0.37044986  0.01507270  0.37054333  1
  V  V9  1  0.25039130  0.49632551  0.74427921  1
  V  V10  1  0.87958974  0.26259752  0.12577864  1
  V  V11  1  0.38359468  0.63142281  0.74605650  1
  V  V12  1  0.37854149  0.00236754  0.88013468  1
  V  V13  1  0.24218118  0.62914016  0.87674693  1
  V  V14  1  0.37772321  0.37098423  0.51839013  1
  V  V15  1  0.88215331  0.49828100  0.38678950  1
  V  V16  1  0.49872514  0.74773984  0.24915113  1
  V  V17  1  0.62719750  0.14528142  0.50605985  1
  V  V18  1  0.25025428  0.02206275  0.25754589  1
  V  V19  1  -0.00995828  0.13329898  0.62374754  1
  V  V20  1  0.50278897  0.24273417  0.24910958  1
  V  V21  1  0.49498456  0.22233665  0.74784832  1
  V  V22  1  0.12623417  0.49351740  0.62288262  1
  V  V23  1  0.49541382  0.87873442  0.36818114  1
  V  V24  1  0.37273328  0.50113042  0.87426878  1
  V  V25  1  0.25222453  0.61415871  0.37384623  1
  V  V26  1  0.24457292  0.11929103  0.87654745  1
  V  V27  1  0.74655503  0.88968717  0.63523106  1
  V  V28  1  0.75083131  0.36449671  0.62673132  1
  V  V29  1  0.24567479  0.87635487  0.12938229  1
  V  V30  1  0.13106591  0.12719565  0.49549192  1
  V  V31  1  0.62838031  0.50229898  0.64014957  1
  V  V32  1  0.25102304  0.74697944  0.50245323  1
  V  V33  1  0.75076169  0.74886402  -0.00229506  1
  V  V34  1  0.78040866  0.01747031  0.25201082  1
  V  V35  1  0.12576637  0.74607997  0.37840312  1
  V  V36  1  0.74985346  0.14972612  0.37871375  1
  V  V37  1  0.25049271  0.38233940  0.14276395  1
  V  V38  1  0.37099274  0.74907635  0.12404062  1
  V  V39  1  0.12787252  0.36957247  0.75220939  1
  V  V40  1  0.86584378  0.87059688  0.50201934  1
  V  V41  1  0.38171672  0.88251705  0.00116346  1
  V  V42  1  0.51213530  0.50370312  0.50537106  1
  V  V43  1  0.77138007  0.51012027  0.75836170  1
  V  V44  1  0.63094760  0.23471598  0.87438313  1
  V  V45  1  0.24193966  0.74829996  -0.00173206  1
  V  V46  1  0.12130841  0.87472913  0.75977402  1
  V  V47  1  -0.00207598  0.39099007  0.87958625  1
  V  V48  1  0.11815424  0.00854919  0.13065735  1
  V  V49  1  -0.00810698  -0.00438737  0.50185523  1
  V  V50  1  0.12612525  0.50543480  0.12178715  1
  V  V51  1  0.24627474  0.25275258  -0.00507680  1
  V  V52  1  0.86331740  0.73980222  0.62405581  1
  V  V53  1  0.12532218  0.87619930  0.25606223  1
  V  V54  1  0.37293470  0.87593165  0.49958644  1
  V  V55  1  0.75865516  0.86272770  0.13309220  1
  V  V56  1  0.11259898  0.13257007  0.00386821  1
  V  V57  1  0.24776289  0.87207821  0.63007545  1
  V  V58  1  0.51489631  0.00180243  0.50197795  1
  V  V59  1  0.50857009  0.36838993  0.37752421  1
  V  V60  1  0.75148960  0.49406358  0.24891588  1
  V  V61  1  0.62113315  0.88343116  0.24002414  1
  V  V62  1  0.87675089  0.35740384  0.50296948  1
  V  V63  1  0.74339682  0.62806564  0.38307660  1
  V  V64  1  -0.00695777  0.25145954  0.75796043  1
  V  V65  1  0.62919753  0.49434371  0.12364475  1
  V  V66  1  -0.00588757  0.87506408  0.37764318  1
  V  V67  1  0.12047079  0.61719007  0.49978611  1
  V  V68  1  0.37390835  0.37580346  -0.00150490  1
  V  V69  1  0.74848535  0.25182986  0.00459667  1
  V  V70  1  0.86304398  0.11700416  0.76006377  1
  V  V71  1  0.00281567  0.62427393  0.11622087  1
  V  V72  1  0.37529085  0.24079486  0.12736038  1
  V  V73  1  0.37194072  0.61931590  0.25253281  1
  V  V74  1  0.12273690  -0.00192997  0.62926091  1
  V  V75  1  -0.00470494  0.74971992  0.75324350  1
  V  V76  1  0.49794959  0.62025044  0.12308854  1
  V  V77  1  0.61054276  0.77266888  0.87289007  1
  V  V78  1  0.62388250  0.62599611  -0.00849839  1
  Zn  Zn79  1  0.13186641  0.24831880  0.36632039  1
  Zn  Zn80  1  0.28680985  0.05230710  0.71228116  1
  Zn  Zn81  1  0.10757446  0.75121362  0.88587157  1
  Zn  Zn82  1  0.63056356  0.75291015  0.37780255  1
  Zn  Zn83  1  0.62809608  0.63899221  0.51696259  1
  Zn  Zn84  1  0.86724036  0.38944015  -0.00999168  1
  Zn  Zn85  1  0.04627765  0.44095654  0.44185843  1
  Zn  Zn86  1  0.58034628  0.87468736  0.72473337  1
  Zn  Zn87  1  0.25733955  0.24956554  0.50656109  1
  Zn  Zn88  1  0.88003670  0.86406286  0.00617538  1
  Zn  Zn89  1  0.37505119  0.21217312  0.63732677  1
  Zn  Zn90  1  0.09913592  0.37396405  0.25891809  1
  Zn  Zn91  1  -0.01490100  0.14338052  0.16254812  1
  Zn  Zn92  1  -0.00650330  -0.02295087  -0.02918092  1
  Zn  Zn93  1  0.50173723  0.49546161  -0.00112346  1
  Zn  Zn94  1  0.18416598  0.20029670  0.18562970  1
  Zn  Zn95  1  0.18395082  0.19410650  0.67962168  1
  Zn  Zn96  1  0.18729066  0.68791020  0.19154919  1
  Zn  Zn97  1  0.18740647  0.68698582  0.69171348  1
  Zn  Zn98  1  0.69664915  0.18771585  0.18375915  1
  Zn  Zn99  1  0.67960435  0.18285265  0.69085162  1
  Zn  Zn100  1  0.68524788  0.68427345  0.18961098  1
  Zn  Zn101  1  0.67814089  0.68483847  0.70437108  1
  Zn  Zn102  1  0.32234418  0.29519688  0.31936101  1
  Zn  Zn103  1  0.31439489  0.30851616  0.81007236  1
  Zn  Zn104  1  0.31144750  0.81022532  0.31442611  1
  Zn  Zn105  1  0.31578093  0.81759593  0.81276066  1
  Zn  Zn106  1  0.92007499  0.31100622  0.30585511  1
  Zn  Zn107  1  0.81208942  0.31916515  0.80974604  1
  Zn  Zn108  1  0.81115232  0.81188092  0.31472501  1
  Zn  Zn109  1  0.80303746  0.79521720  0.80948869  1
  Zn  Zn110  1  0.21707133  0.39828668  0.41177266  1
  Zn  Zn111  1  0.18367874  0.43924869  0.93512207  1
  Zn  Zn112  1  0.18640883  0.93932830  0.43837324  1
  Zn  Zn113  1  0.18235293  0.93925787  0.94536685  1
  Zn  Zn114  1  0.69587088  0.43164546  0.43716370  1
  Zn  Zn115  1  0.68641528  0.43571238  0.93428922  1
  Zn  Zn116  1  0.69301537  0.93546648  0.42497961  1
  Zn  Zn117  1  0.70091258  0.94551228  0.82339215  1
  Zn  Zn118  1  0.30293493  0.06353646  0.06465876  1
  Zn  Zn119  1  0.31636844  0.05726587  0.55120309  1
  Zn  Zn120  1  0.30896184  0.56116060  0.06064529  1
  Zn  Zn121  1  0.31751736  0.56194072  0.56219572  1
  Zn  Zn122  1  0.83156583  0.08203720  0.03045703  1
  Zn  Zn123  1  0.80574338  0.06766453  0.55932261  1
  Zn  Zn124  1  0.80868884  0.57322023  0.06885738  1
  Zn  Zn125  1  0.80680826  0.56018206  0.56692195  1
  Zn  Zn126  1  0.43960998  0.43205140  0.18942115  1
  Zn  Zn127  1  0.44263659  0.44548551  0.69205695  1
  Zn  Zn128  1  0.43225113  0.94614872  0.18491001  1
  Zn  Zn129  1  0.44993702  1.01398934  0.69743258  1
  Zn  Zn130  1  0.93539995  0.44140997  0.17782939  1
  Zn  Zn131  1  0.93617621  0.43482843  0.68444459  1
  Zn  Zn132  1  0.91602495  0.96723841  0.14411037  1
  Zn  Zn133  1  0.93515401  0.93578268  0.69221274  1
  Zn  Zn134  1  0.05823576  0.06012419  0.31676599  1
  Zn  Zn135  1  0.06356615  0.06961928  0.81329637  1
  Zn  Zn136  1  0.06628269  0.55634361  0.30118979  1
  Zn  Zn137  1  0.06319474  0.56460468  0.80744677  1
  Zn  Zn138  1  0.57011154  0.06729752  0.31802834  1
  Zn  Zn139  1  0.56578810  0.05284708  0.82496180  1
  Zn  Zn140  1  0.56078312  0.55708759  0.31146092  1
  Zn  Zn141  1  0.56031408  0.56029488  0.81538096  1
  Zn  Zn142  1  0.44613892  0.18964998  0.44105143  1
  Zn  Zn143  1  0.43490803  0.18568049  0.93880491  1
  Zn  Zn144  1  0.45813079  0.69952068  0.45255228  1
  Zn  Zn145  1  0.43258847  0.69079550  0.93522944  1
  Zn  Zn146  1  0.92967509  0.17007729  0.43116015  1
  Zn  Zn147  1  0.93081755  0.19769397  0.93360046  1
  Zn  Zn148  1  0.93400386  0.68624294  0.43948814  1
  Zn  Zn149  1  0.92973535  0.67036391  0.93423684  1
  Zn  Zn150  1  0.06134760  0.31806181  0.06494547  1
  Zn  Zn151  1  0.06047885  0.31064213  0.56457026  1
  Zn  Zn152  1  0.06156533  0.81342920  0.07040485  1
  Zn  Zn153  1  0.06013005  0.80720883  0.56524420  1
  Zn  Zn154  1  0.56254497  0.30684990  0.05921514  1
  Zn  Zn155  1  0.56046900  0.31611191  0.57688625  1
  Zn  Zn156  1  0.56245743  0.81187765  0.06010575  1
  Zn  Zn157  1  0.56680922  0.81850397  0.55432071  1
  O  O158  1  0.12800819  0.12412504  0.11570329  1
  O  O159  1  0.11363701  0.11522841  0.61742981  1
  O  O160  1  0.11820076  0.61445132  0.13440926  1
  O  O161  1  0.12070331  0.61728402  0.61750453  1
  O  O162  1  0.61981560  0.12664366  0.12255523  1
  O  O163  1  0.62928878  0.12573917  0.60492622  1
  O  O164  1  0.61292947  0.61627397  0.12055834  1
  O  O165  1  0.63089423  0.60887870  0.62709131  1
  O  O166  1  0.38952726  0.38199086  0.38341534  1
  O  O167  1  0.38055139  0.37870147  0.88175262  1
  O  O168  1  0.38000602  0.88044299  0.37865857  1
  O  O169  1  0.36431478  0.88628619  0.89351528  1
  O  O170  1  0.87663905  0.38931133  0.39075614  1
  O  O171  1  0.89397408  0.37287937  0.87283370  1
  O  O172  1  0.88606267  0.86183175  0.38726948  1
  O  O173  1  0.85974328  0.87076187  0.88544381  1
  O  O174  1  0.25753777  -0.00310428  0.36879060  1
  O  O175  1  0.24854663  0.01488742  0.88677690  1
  O  O176  1  0.26557969  0.50358335  0.38310245  1
  O  O177  1  0.25327415  0.50869026  0.86691993  1
  O  O178  1  0.75804110  -0.02756290  0.34018072  1
  O  O179  1  0.85061359  -0.04741984  0.87169436  1
  O  O180  1  0.76107125  0.50864375  0.36804970  1
  O  O181  1  0.74609853  0.48568340  0.85317971  1
  O  O182  1  0.24646982  0.49026249  0.12807613  1
  O  O183  1  0.24101458  0.50761131  0.63543103  1
  O  O184  1  0.23860324  0.99804610  0.13879692  1
  O  O185  1  0.23848655  0.98945375  0.62265508  1
  O  O186  1  0.73840171  0.51006285  0.13533514  1
  O  O187  1  0.74167997  0.49666760  0.63607870  1
  O  O188  1  0.75190280  0.97345710  0.15910485  1
  O  O189  1  0.75160573  0.98744409  0.62437781  1
  O  O190  1  -0.01308600  0.38674609  0.25851225  1
  O  O191  1  0.00430916  0.36552528  0.75319517  1
  O  O192  1  0.00621755  0.86379432  0.26392273  1
  O  O193  1  0.00669218  0.85884152  0.74220761  1
  O  O194  1  0.51043040  0.36893381  0.25785141  1
  O  O195  1  0.49398240  0.37088387  0.76376141  1
  O  O196  1  0.50370204  0.86833875  0.24805074  1
  O  O197  1  0.47508462  0.90571730  0.72812890  1
  O  O198  1  0.51340033  0.14042326  0.24643635  1
  O  O199  1  0.49656708  0.12042616  0.75294131  1
  O  O200  1  0.49331693  0.62911799  0.24337608  1
  O  O201  1  0.48247284  0.61769877  0.75441462  1
  O  O202  1  0.98526287  0.14390378  0.28266409  1
  O  O203  1  1.00152757  0.13660382  0.73866403  1
  O  O204  1  0.99329900  0.63204300  0.24940994  1
  O  O205  1  1.00887792  0.63786597  0.73570672  1
  O  O206  1  0.36694370  0.25867695  0.00836357  1
  O  O207  1  0.38790129  0.26274898  0.50859643  1
  O  O208  1  0.36443096  0.76221027  0.00536433  1
  O  O209  1  0.37131883  0.75511830  0.50899825  1
  O  O210  1  0.86358527  0.26047181  0.00060924  1
  O  O211  1  0.88204282  0.25940572  0.49122518  1
  O  O212  1  0.85343517  0.74080761  -0.01143101  1
  O  O213  1  0.87877448  0.75736753  0.51541059  1
  O  O214  1  0.12210477  0.23327000  0.50408878  1
  O  O215  1  0.13504465  0.24185265  1.01045024  1
  O  O216  1  0.13025686  0.73825464  0.49716366  1
  O  O217  1  0.13741870  0.75593772  1.00030353  1
  O  O218  1  0.61086493  0.24378037  0.50117438  1
  O  O219  1  0.63534123  0.25729486  0.98565454  1
  O  O220  1  0.58216983  0.73440880  0.47973970  1
  O  O221  1  0.62767065  0.74450283  0.99335521  1
  O  O222  1  0.49451780  0.24129383  0.12995904  1
  O  O223  1  0.49813128  0.24590523  0.64612233  1
  O  O224  1  0.49261525  0.73914657  0.13121967  1
  O  O225  1  0.48706060  0.76247247  0.62323132  1
  O  O226  1  0.98760887  0.25656841  0.12593972  1
  O  O227  1  1.00031030  0.23633406  0.63024308  1
  O  O228  1  1.01233605  0.73626012  0.14312235  1
  O  O229  1  0.99168465  0.74063818  0.63293771  1
  O  O230  1  -0.01193029  0.21263511  0.33769908  1
  O  O231  1  0.00544823  0.25472093  0.85887114  1
  O  O232  1  0.00580856  0.75299006  0.37173537  1
  O  O233  1  -0.00890792  0.73334353  0.85808676  1
  O  O234  1  0.49608896  0.26105434  0.36415053  1
  O  O235  1  0.50239945  0.25483758  0.86897034  1
  O  O236  1  0.48442358  0.76326428  0.35844428  1
  O  O237  1  0.51120424  0.75478046  0.88552576  1
  O  O238  1  0.23227601  0.11720225  0.50166280  1
  O  O239  1  0.23937676  0.13509993  0.99694694  1
  O  O240  1  0.24228523  0.62559002  0.49228397  1
  O  O241  1  0.25831838  0.63644358  0.98998348  1
  O  O242  1  0.73701514  0.13040545  0.49400093  1
  O  O243  1  0.75582647  0.15028158  0.98732988  1
  O  O244  1  0.74414601  0.61892503  0.48671394  1
  O  O245  1  0.73389639  0.63939713  1.01134219  1
  O  O246  1  0.25909493  0.36950877  -0.00160378  1
  O  O247  1  0.27668923  0.38276661  0.50938478  1
  O  O248  1  0.25130554  0.86843532  0.01167494  1
  O  O249  1  0.25139476  0.86805181  0.50640799  1
  O  O250  1  0.75322287  0.36184653  -0.01504011  1
  O  O251  1  0.76585038  0.38009312  0.51056122  1
  O  O252  1  0.75312042  0.85964353  0.02371425  1
  O  O253  1  0.76064120  0.87990851  0.50588648  1
  O  O254  1  0.12379837  0.48789345  0.23258101  1
  O  O255  1  0.13354204  0.49313324  0.74133884  1
  O  O256  1  0.13425935  0.99674832  0.25335164  1
  O  O257  1  0.11862073  0.99138550  0.73579464  1
  O  O258  1  0.62996062  0.49373741  0.24180340  1
  O  O259  1  0.62206503  0.49777857  0.73994237  1
  O  O260  1  0.61924037  0.98212751  0.25217531  1
  O  O261  1  0.61956260  0.98145950  0.75885661  1
  O  O262  1  0.36042918  -0.00372071  0.25954525  1
  O  O263  1  0.35963719  -0.00427416  0.77902410  1
  O  O264  1  0.38806431  0.50377282  0.26602258  1
  O  O265  1  0.36624708  0.50758419  0.75289115  1
  O  O266  1  0.88023407  0.01288225  0.24382918  1
  O  O267  1  0.87833160  0.01787224  0.74250530  1
  O  O268  1  0.86765499  0.51022195  0.25833918  1
  O  O269  1  0.87161501  0.50658956  0.74623349  1
  O  O270  1  0.11309419  0.37362836  0.38050147  1
  O  O271  1  0.11590442  0.38000836  0.85965248  1
  O  O272  1  0.11568793  0.86655127  0.37642514  1
  O  O273  1  0.13195101  0.87143570  0.86349106  1
  O  O274  1  0.61767271  0.38272192  0.36473036  1
  O  O275  1  0.60451136  0.36919375  0.87834061  1
  O  O276  1  0.61095998  0.86967863  0.36076903  1
  O  O277  1  0.62265197  0.87066650  0.88473755  1
  O  O278  1  0.37107505  0.14020203  0.12041625  1
  O  O279  1  0.37284981  0.09275901  0.64269280  1
  O  O280  1  0.38032481  0.62584477  0.13027288  1
  O  O281  1  0.36878752  0.63817584  0.63292954  1
  O  O282  1  0.87779210  0.15136027  0.11416886  1
  O  O283  1  0.88845525  0.12249362  0.62692579  1
  O  O284  1  0.89178754  0.61800997  0.13749368  1
  O  O285  1  0.88368953  0.63432684  0.61484645  1
  O  O286  1  0.25823680  0.26543348  0.11746587  1
  O  O287  1  0.26571487  0.23616413  0.61837548  1
  O  O288  1  0.25189216  0.75292359  0.11951208  1
  O  O289  1  0.24849509  0.75618356  0.61852515  1
  O  O290  1  0.75274834  0.25546765  0.10851214  1
  O  O291  1  0.73965578  0.26678813  0.63184981  1
  O  O292  1  0.74006026  0.75298135  0.11652194  1
  O  O293  1  0.76314231  0.74286954  0.63330592  1
  O  O294  1  0.24478163  0.27494568  0.39506541  1
  O  O295  1  0.25742283  0.23979162  0.88862703  1
  O  O296  1  0.24627289  0.73807831  0.38348609  1
  O  O297  1  0.25182308  0.74423237  0.88370587  1
  O  O298  1  0.75557107  0.24524154  0.37195023  1
  O  O299  1  0.73111395  0.25603248  0.86460056  1
  O  O300  1  0.74815094  0.73292904  0.37344544  1
  O  O301  1  0.73079926  0.75341572  0.89054521  1
  O  O302  1  0.01333735  0.13844608  -0.00354110  1
  O  O303  1  0.00203980  0.11597886  0.50991908  1
  O  O304  1  0.00208838  0.63957253  0.01917457  1
  O  O305  1  0.01237319  0.63143442  0.50922435  1
  O  O306  1  0.50189323  0.13286953  0.01325112  1
  O  O307  1  0.51719205  0.11040206  0.48584155  1
  O  O308  1  0.50254798  0.62414193  0.01082244  1
  O  O309  1  0.49731989  0.60347335  0.49938995  1
  O  O310  1  0.49887938  0.38243674  0.49465551  1
  O  O311  1  0.48588153  0.37114952  0.99327073  1
  O  O312  1  0.49435797  0.88394363  0.48493554  1
  O  O313  1  0.48010880  0.87464902  1.01115318  1
  O  O314  1  0.98346266  0.37807896  0.51229775  1
  O  O315  1  1.00919428  0.37418938  0.97964757  1
  O  O316  1  0.99243125  0.87708132  0.49762821  1
  O  O317  1  0.99284305  0.86781483  1.00565318  1
  O  O318  1  0.49774913  0.49103170  0.38604300  1
  O  O319  1  0.49254280  0.48580410  0.87724961  1
  O  O320  1  0.49023039  0.99089659  0.36937613  1
  O  O321  1  0.47654335  1.01060691  0.88604760  1
  O  O322  1  0.98533192  0.51440324  0.37580600  1
  O  O323  1  1.00460896  0.49062310  0.86806275  1
  O  O324  1  1.00431032  0.98438669  0.38843744  1
  O  O325  1  1.00630254  0.99441942  0.86514045  1
  O  O326  1  0.01755939  0.02578446  0.15414602  1
  O  O327  1  0.00552161  0.00470660  0.61859580  1
  O  O328  1  0.01200151  0.51403232  0.12273524  1
  O  O329  1  0.01206585  0.51091009  0.63335212  1
  O  O330  1  0.49281323  0.02373337  0.13249855  1
  O  O331  1  0.50890588  -0.00269230  0.59903655  1
  O  O332  1  0.50560881  0.50755691  0.12473391  1
  O  O333  1  0.51718180  0.49050299  0.61487883  1
  O  O334  1  0.26208580  0.37312338  0.23987134  1
  O  O335  1  0.24350299  0.38616757  0.75815961  1
  O  O336  1  0.24037886  0.87198830  0.24590931  1
  O  O337  1  0.23693446  0.86779280  0.73803733  1
  O  O338  1  0.73983395  0.39172929  0.25431714  1
  O  O339  1  0.76301633  0.38764688  0.73070984  1
  O  O340  1  0.72733618  0.84748289  0.24372937  1
  O  O341  1  0.75721892  0.87703707  0.73977079  1
  O  O342  1  0.24478032  0.12048875  0.24950821  1
  O  O343  1  0.23057641  0.13175983  0.77250862  1
  O  O344  1  0.25562993  0.62815987  0.26619602  1
  O  O345  1  0.25595084  0.61677807  0.75758363  1
  O  O346  1  0.74367798  0.11782749  0.26302297  1
  O  O347  1  0.76511903  0.13067758  0.74303020  1
  O  O348  1  0.75771862  0.61845893  0.25657541  1
  O  O349  1  0.74861510  0.60969540  0.75225706  1
  O  O350  1  0.37912261  0.11398456  0.38270186  1
  O  O351  1  0.35650618  0.11395471  0.89087277  1
  O  O352  1  0.36945840  0.61516561  0.37462821  1
  O  O353  1  0.36599777  0.62143871  0.86730556  1
  O  O354  1  0.84487346  0.11046370  0.38831388  1
  O  O355  1  0.87875437  0.12768917  0.85973716  1
  O  O356  1  0.86438231  0.61862294  0.37075712  1
  O  O357  1  0.87399450  0.56735669  0.91865951  1
  O  O358  1  0.14234719  0.38119410  0.12521089  1
  O  O359  1  0.11920654  0.38659751  0.63231933  1
  O  O360  1  0.12563278  0.88874961  0.13620601  1
  O  O361  1  0.12887149  0.87964771  0.62848723  1
  O  O362  1  0.61447627  0.38821697  0.13119845  1
  O  O363  1  0.64109537  0.39047313  0.61605719  1
  O  O364  1  0.62474682  0.87035948  0.13702229  1
  O  O365  1  0.64537631  0.86048217  0.62376152  1
  O  O366  1  0.12562496  0.26236860  0.25418411  1
  O  O367  1  0.11315795  0.26310096  0.73808928  1
  O  O368  1  0.11782003  0.75352028  0.26030148  1
  O  O369  1  0.11195524  0.75714905  0.75165835  1
  O  O370  1  0.62039711  0.26472419  0.23753937  1
  O  O371  1  0.60588003  0.24051466  0.76370946  1
  O  O372  1  0.60655807  0.74828288  0.25312184  1
  O  O373  1  0.62341332  0.76373942  0.76666598  1
  O  O374  1  0.39054258  0.25813339  0.23850375  1
  O  O375  1  0.39045079  0.24258596  0.75675578  1
  O  O376  1  0.37911851  0.74181312  0.24253447  1
  O  O377  1  0.36736889  0.74308658  0.74175856  1
  O  O378  1  0.85620959  0.26573028  0.22339881  1
  O  O379  1  0.88987437  0.24302856  0.74937978  1
  O  O380  1  0.88543115  0.73784777  0.25969286  1
  O  O381  1  0.88556021  0.75148205  0.73735900  1
  O  O382  1  0.39018281  0.49078334  0.49724503  1
  O  O383  1  0.37498706  0.49135922  0.99337791  1
  O  O384  1  0.38631903  0.99313217  0.48691697  1
  O  O385  1  0.36316956  0.98766297  1.00114863  1
  O  O386  1  0.87324505  0.50637332  0.48719821  1
  O  O387  1  0.87206886  0.52157998  0.98528959  1
  O  O388  1  0.88584569  0.98819400  0.51090209  1
  O  O389  1  0.89257326  0.98927212  1.03299902  1
  O  O390  1  0.11852404  0.01254446  0.01634124  1
  O  O391  1  0.11362027  0.00539274  0.50862364  1
  O  O392  1  0.13408208  0.49688099  0.02070381  1
  O  O393  1  0.12386479  0.50736614  0.50829241  1
  O  O394  1  0.77990259  -0.01891715  -0.10299009  1
  O  O395  1  0.61485991  -0.00970720  0.48614521  1
  O  O396  1  0.62388234  0.50691862  0.00758957  1
  O  O397  1  0.61753921  0.50134126  0.50058155  1
  O  O398  1  0.36664248  0.37304094  0.11722961  1
  O  O399  1  0.38898496  0.37878125  0.61704049  1
  O  O400  1  0.36541609  0.87126741  0.11950023  1
  O  O401  1  0.35756832  0.86693997  0.61727961  1
  O  O402  1  0.88179642  0.37320927  0.10412135  1
  O  O403  1  0.86602070  0.37653705  0.61170654  1
  O  O404  1  0.85986029  0.86056159  0.14187478  1
  O  O405  1  0.86285061  0.86319824  0.62096403  1
  O  O406  1  0.11725130  0.12487036  0.39374258  1
  O  O407  1  0.13402051  0.12264563  0.89499997  1
  O  O408  1  0.13244128  0.62252704  0.38146811  1
  O  O409  1  0.13834645  0.63037131  0.86823706  1
  O  O410  1  0.64134175  0.12041968  0.38768101  1
  O  O411  1  0.62217564  0.13591043  0.88074020  1
  O  O412  1  0.63985398  0.61943744  0.36818435  1
  O  O413  1  0.61597054  0.62658465  0.88938305  1
