# generated using pymatgen
data_V79Zn79O256
_symmetry_space_group_name_H-M   'P 1'
_cell_length_a   16.86681093
_cell_length_b   16.86559528
_cell_length_c   16.87499637
_cell_angle_alpha   90.07399374
_cell_angle_beta   89.95237802
_cell_angle_gamma   89.90537087
_symmetry_Int_Tables_number   1
_chemical_formula_structural   V79Zn79O256
_chemical_formula_sum   'V79 Zn79 O256'
_cell_volume   4800.39786812
_cell_formula_units_Z   1
loop_
 _symmetry_equiv_pos_site_id
 _symmetry_equiv_pos_as_xyz
  1  'x, y, z'
loop_
 _atom_site_type_symbol
 _atom_site_label
 _atom_site_symmetry_multiplicity
 _atom_site_fract_x
 _atom_site_fract_y
 _atom_site_fract_z
 _atom_site_occupancy
  V  V0  1  0.87733036  0.76123675  0.61858658  1
  V  V1  1  -0.01587870  0.62406101  0.12639683  1
  V  V2  1  -0.01271657  0.49454553  0.49601114  1
  V  V3  1  0.38172808  0.12456629  0.75146842  1
  V  V4  1  0.00364372  0.75361195  0.75455831  1
  V  V5  1  0.63252631  0.62144658  -0.00490013  1
  V  V6  1  0.00745012  0.49943142  -0.00609444  1
  V  V7  1  0.12160565  0.37456653  0.75486726  1
  V  V8  1  -0.01628863  0.37378881  0.37507639  1
  V  V9  1  0.49960815  0.48083753  0.49675665  1
  V  V10  1  0.50051114  0.87558156  0.37064457  1
  V  V11  1  0.25615332  0.37117600  0.61839773  1
  V  V12  1  0.12837571  0.51000360  0.13584466  1
  V  V13  1  0.24852605  0.38070908  0.13435366  1
  V  V14  1  0.36923374  0.49833805  0.87030120  1
  V  V15  1  0.24495826  -0.00021501  0.24928952  1
  V  V16  1  0.12359135  0.12207337  0.00733059  1
  V  V17  1  0.24589662  0.13078453  0.38799599  1
  V  V18  1  0.24977832  0.74812896  0.49751901  1
  V  V19  1  0.12392861  0.76006046  0.36995524  1
  V  V20  1  0.38139418  0.74265853  0.62397253  1
  V  V21  1  0.13260189  0.49882263  0.62814439  1
  V  V22  1  0.12620257  0.24992353  0.39196657  1
  V  V23  1  0.00031604  0.24427382  0.23808888  1
  V  V24  1  0.36583760  0.61927823  0.24937745  1
  V  V25  1  0.50106751  0.00600759  0.50480414  1
  V  V26  1  0.37591819  0.24836718  0.61566875  1
  V  V27  1  0.63693830  0.74374633  0.87005368  1
  V  V28  1  0.38011174  0.25720736  0.11801335  1
  V  V29  1  0.24790625  0.87603222  0.13091257  1
  V  V30  1  0.37630745  0.87455481  0.49978541  1
  V  V31  1  0.75071046  0.74889695  0.49682500  1
  V  V32  1  0.49530108  0.37404911  0.87380257  1
  V  V33  1  0.74988605  0.76073746  0.01241300  1
  V  V34  1  0.23968263  0.63150850  0.87901068  1
  V  V35  1  0.25782674  0.00032636  0.75690412  1
  V  V36  1  0.75942814  0.24393378  -0.00536458  1
  V  V37  1  0.61177290  0.62983858  0.50454988  1
  V  V38  1  0.89993240  -0.01010125  0.86952525  1
  V  V39  1  0.49468860  0.49259080  -0.00266405  1
  V  V40  1  0.37511721  0.88382072  -0.01005216  1
  V  V41  1  -0.00473620  0.62566096  0.62483675  1
  V  V42  1  -0.01218902  0.75427487  0.25325483  1
  V  V43  1  0.12617678  0.62369556  0.49724824  1
  V  V44  1  0.62353421  0.01032092  0.62834189  1
  V  V45  1  0.12241782  0.01655065  0.62041431  1
  V  V46  1  0.86244526  0.49985901  0.87881317  1
  V  V47  1  0.50345455  0.24688874  0.74596146  1
  V  V48  1  0.37719791  0.48749392  0.37451491  1
  V  V49  1  0.25138302  0.26343639  -0.00129269  1
  V  V50  1  0.89105911  0.13202973  0.74265056  1
  V  V51  1  0.62859047  0.13119608  0.47802843  1
  V  V52  1  0.25576500  0.13040103  0.87817206  1
  V  V53  1  0.75021599  0.88247718  0.62269795  1
  V  V54  1  0.63525907  0.88230952  0.23707529  1
  V  V55  1  0.62892914  0.87958080  0.75038637  1
  V  V56  1  0.12471831  0.87209591  0.75799786  1
  V  V57  1  0.62798751  0.24898882  0.87627352  1
  V  V58  1  0.62609114  0.49019167  0.12591747  1
  V  V59  1  0.61874198  0.50248128  0.62322129  1
  V  V60  1  0.37131873  0.74508923  0.11588757  1
  V  V61  1  0.74879297  0.11027582  0.86513905  1
  V  V62  1  0.37344580  0.00252308  0.37552432  1
  V  V63  1  0.77009123  0.25032068  0.49532497  1
  V  V64  1  0.85713565  0.12380633  0.24957236  1
  V  V65  1  0.62768747  0.74697968  0.37391567  1
  V  V66  1  0.87854775  0.87802395  0.00952594  1
  V  V67  1  0.11350246  0.25601777  0.87214457  1
  V  V68  1  0.50048131  0.74612800  0.75269716  1
  V  V69  1  0.37645148  0.12863853  0.24892963  1
  V  V70  1  0.85920935  0.60817942  0.26987384  1
  V  V71  1  0.62417226  0.36519833  0.25506345  1
  V  V72  1  0.37172356  0.62046408  0.74802428  1
  V  V73  1  0.49946776  0.62002119  0.12896602  1
  V  V74  1  0.49974869  0.25256665  0.26472301  1
  V  V75  1  0.24998106  0.87454579  0.62647685  1
  V  V76  1  0.74934355  0.50601127  0.74594796  1
  V  V77  1  0.85613447  -0.00003627  0.37685149  1
  V  V78  1  0.75804553  0.37045197  0.12075893  1
  Zn  Zn79  1  0.88509210  0.36675407  -0.01025965  1
  Zn  Zn80  1  0.12616662  0.37843565  0.25691235  1
  Zn  Zn81  1  0.50085273  0.74866795  0.24665084  1
  Zn  Zn82  1  -0.01465329  0.11618045  0.11497570  1
  Zn  Zn83  1  0.63034632  0.37467990  0.74612459  1
  Zn  Zn84  1  0.11585112  -0.00380082  0.12821024  1
  Zn  Zn85  1  -0.00403560  0.00372234  0.49933855  1
  Zn  Zn86  1  0.50187781  0.88833774  0.88055299  1
  Zn  Zn87  1  0.86937337  0.63358926  0.75898371  1
  Zn  Zn88  1  0.53186265  0.04632740  0.02263466  1
  Zn  Zn89  1  0.75349136  0.36986494  0.62240004  1
  Zn  Zn90  1  0.22218361  0.74733370  0.00103823  1
  Zn  Zn91  1  0.05986191  0.81079325  0.92060623  1
  Zn  Zn92  1  -0.01194389  0.87644559  0.39066704  1
  Zn  Zn93  1  0.24654092  0.61642770  0.36774731  1
  Zn  Zn94  1  0.18928077  0.19244303  0.19364837  1
  Zn  Zn95  1  0.19260120  0.19300569  0.69057372  1
  Zn  Zn96  1  0.18228455  0.69011613  0.18823985  1
  Zn  Zn97  1  0.18917523  0.68588383  0.68968223  1
  Zn  Zn98  1  0.68618226  0.18922317  0.18026528  1
  Zn  Zn99  1  0.70022720  0.18820050  0.68645288  1
  Zn  Zn100  1  0.68561852  0.68786357  0.18920439  1
  Zn  Zn101  1  0.68865354  0.68815887  0.68187482  1
  Zn  Zn102  1  0.30985700  0.31215765  0.31588500  1
  Zn  Zn103  1  0.30872922  0.31679193  0.80339660  1
  Zn  Zn104  1  0.31406104  0.80767536  0.30967351  1
  Zn  Zn105  1  0.31061925  0.80655151  0.81351339  1
  Zn  Zn106  1  0.80712426  0.29978596  0.30913913  1
  Zn  Zn107  1  0.81965636  0.31717507  0.80693452  1
  Zn  Zn108  1  0.81045637  0.81555259  0.30696204  1
  Zn  Zn109  1  0.81446641  0.81600460  0.81110404  1
  Zn  Zn110  1  0.18825683  0.43504775  0.43824870  1
  Zn  Zn111  1  0.18674756  0.44399659  0.93991240  1
  Zn  Zn112  1  0.18755993  0.93984965  0.43711323  1
  Zn  Zn113  1  0.19844642  0.93971845  0.94356666  1
  Zn  Zn114  1  0.72680401  0.43135407  0.43215177  1
  Zn  Zn115  1  0.68607828  0.43015610  0.93780365  1
  Zn  Zn116  1  0.68515328  0.93607019  0.43828391  1
  Zn  Zn117  1  0.66876676  0.94210187  0.93948675  1
  Zn  Zn118  1  0.35319165  0.04698817  0.08443363  1
  Zn  Zn119  1  0.31341420  0.06352598  0.56825125  1
  Zn  Zn120  1  0.30963416  0.56201791  0.05571141  1
  Zn  Zn121  1  0.31520826  0.55800557  0.55808687  1
  Zn  Zn122  1  0.82583052  0.06868402  0.04959572  1
  Zn  Zn123  1  0.81120606  0.06924841  0.56084699  1
  Zn  Zn124  1  0.80948731  0.56000219  0.06431193  1
  Zn  Zn125  1  0.80498753  0.56737226  0.56034119  1
  Zn  Zn126  1  0.43873251  0.43482736  0.19067113  1
  Zn  Zn127  1  0.44033059  0.43550581  0.68563888  1
  Zn  Zn128  1  0.44971895  0.93441788  0.17790781  1
  Zn  Zn129  1  0.44166434  0.93381278  0.68977241  1
  Zn  Zn130  1  0.93705820  0.43865772  0.19123104  1
  Zn  Zn131  1  0.94328994  0.44206269  0.69750783  1
  Zn  Zn132  1  0.93141814  0.94633245  0.19127316  1
  Zn  Zn133  1  0.94040719  0.94225428  0.68605461  1
  Zn  Zn134  1  0.05752010  0.06459683  0.31819987  1
  Zn  Zn135  1  0.07022358  0.06269945  0.80976625  1
  Zn  Zn136  1  0.05353431  0.56505694  0.31308324  1
  Zn  Zn137  1  0.05882157  0.56183849  0.80949911  1
  Zn  Zn138  1  0.56237385  0.06147898  0.30247013  1
  Zn  Zn139  1  0.56234292  0.05969918  0.82502322  1
  Zn  Zn140  1  0.60413897  0.53115045  0.34124311  1
  Zn  Zn141  1  0.56034983  0.56315393  0.80947238  1
  Zn  Zn142  1  0.44018908  0.18733136  0.43618333  1
  Zn  Zn143  1  0.43964672  0.18447932  0.93762208  1
  Zn  Zn144  1  0.43764412  0.68441743  0.43174667  1
  Zn  Zn145  1  0.44109273  0.68450454  0.93460142  1
  Zn  Zn146  1  0.94206329  0.17494132  0.43337686  1
  Zn  Zn147  1  0.93824665  0.18100778  0.92683381  1
  Zn  Zn148  1  0.93496647  0.68635250  0.43545442  1
  Zn  Zn149  1  0.92844480  0.68326657  0.94199771  1
  Zn  Zn150  1  0.06724708  0.31890130  0.06222711  1
  Zn  Zn151  1  0.05615976  0.31628849  0.56633793  1
  Zn  Zn152  1  0.05643705  0.81481489  0.08372649  1
  Zn  Zn153  1  0.06315290  0.81897946  0.56110056  1
  Zn  Zn154  1  0.56232778  0.29641720  0.05595230  1
  Zn  Zn155  1  0.56846355  0.31071155  0.56333664  1
  Zn  Zn156  1  0.55870188  0.80698419  0.05808163  1
  Zn  Zn157  1  0.56275118  0.81710236  0.56292673  1
  O  O158  1  0.13255009  0.13121272  0.11066180  1
  O  O159  1  0.13526038  0.11546530  0.63299590  1
  O  O160  1  0.11401377  0.61393429  0.12975084  1
  O  O161  1  0.11839331  0.61968963  0.61815997  1
  O  O162  1  0.63439880  0.10045497  0.12433115  1
  O  O163  1  0.62760200  0.11095412  0.63288567  1
  O  O164  1  0.61818798  0.61278077  0.11887264  1
  O  O165  1  0.62555449  0.61397296  0.61816343  1
  O  O166  1  0.37772915  0.38789346  0.36947629  1
  O  O167  1  0.38452647  0.38347670  0.86529287  1
  O  O168  1  0.38032673  0.87936930  0.38053173  1
  O  O169  1  0.37588658  0.86636047  0.88582944  1
  O  O170  1  0.88528147  0.37041046  0.37122056  1
  O  O171  1  0.87949721  0.39389338  0.87148942  1
  O  O172  1  0.87263915  0.89370716  0.36421106  1
  O  O173  1  0.87554754  0.88602928  0.87756394  1
  O  O174  1  0.25414295  0.00814605  0.36947000  1
  O  O175  1  0.24486486  0.01364316  0.86387102  1
  O  O176  1  0.27009072  0.50112114  0.38760490  1
  O  O177  1  0.26358328  0.50731700  0.88078970  1
  O  O178  1  0.75521976  0.00034514  0.37657524  1
  O  O179  1  0.74054240  0.01115460  0.87653796  1
  O  O180  1  0.71257867  0.51401416  0.36811984  1
  O  O181  1  0.75626438  0.49669144  0.86776824  1
  O  O182  1  0.23600966  0.49662374  0.11724934  1
  O  O183  1  0.24237820  0.48961601  0.61974979  1
  O  O184  1  0.25896771  0.99232529  0.13454227  1
  O  O185  1  0.24871740  0.99229928  0.63662289  1
  O  O186  1  0.73810545  0.48185256  0.11493278  1
  O  O187  1  0.74203683  0.49671547  0.62787265  1
  O  O188  1  0.68404885  1.04071637  0.09846513  1
  O  O189  1  0.73943523  0.98994090  0.61725168  1
  O  O190  1  -0.00065590  0.36792918  0.26195767  1
  O  O191  1  0.02095406  0.37645747  0.75022652  1
  O  O192  1  -0.01052644  0.85410581  0.24000978  1
  O  O193  1  0.01262528  0.86544384  0.74305777  1
  O  O194  1  0.50963108  0.36132868  0.24540066  1
  O  O195  1  0.50297992  0.36579676  0.75768460  1
  O  O196  1  0.49800900  0.87275082  0.26076066  1
  O  O197  1  0.50717543  0.86563856  0.75721923  1
  O  O198  1  0.48810861  0.13846329  0.25456697  1
  O  O199  1  0.49236753  0.13174769  0.76235764  1
  O  O200  1  0.49255872  0.62179733  0.23337729  1
  O  O201  1  0.48897709  0.63663679  0.75204839  1
  O  O202  1  1.00097939  0.13822640  0.24399891  1
  O  O203  1  0.99228657  0.12453215  0.75646662  1
  O  O204  1  0.98360557  0.62590416  0.24475381  1
  O  O205  1  1.00118966  0.63228935  0.73674941  1
  O  O206  1  0.36618411  0.24914633  0.01207601  1
  O  O207  1  0.38471979  0.24606963  0.51693713  1
  O  O208  1  0.37204596  0.74509390  0.01024452  1
  O  O209  1  0.37143796  0.75332720  0.50596045  1
  O  O210  1  0.86543156  0.25080934  -0.01289023  1
  O  O211  1  0.86876402  0.23497138  0.49800781  1
  O  O212  1  0.85788275  0.76064569  -0.00667664  1
  O  O213  1  0.86720161  0.74660528  0.50945559  1
  O  O214  1  0.11546947  0.25203566  0.49156177  1
  O  O215  1  0.13233270  0.25116081  0.98826577  1
  O  O216  1  0.12804424  0.74164900  0.49340886  1
  O  O217  1  0.11005158  0.75430389  1.00333159  1
  O  O218  1  0.60951688  0.22954689  0.49746386  1
  O  O219  1  0.64276124  0.25791943  0.98353881  1
  O  O220  1  0.62847886  0.74819699  0.49628633  1
  O  O221  1  0.63305491  0.74358005  0.99047561  1
  O  O222  1  0.48192988  0.25718267  0.12880746  1
  O  O223  1  0.48857835  0.25919375  0.63721626  1
  O  O224  1  0.48992279  0.73467836  0.12161878  1
  O  O225  1  0.48878053  0.75965261  0.63455205  1
  O  O226  1  1.00428915  0.25397741  0.13626658  1
  O  O227  1  0.95352569  0.29047566  0.62283992  1
  O  O228  1  0.99988776  0.73146825  0.14149610  1
  O  O229  1  0.99534102  0.74424735  0.62867942  1
  O  O230  1  0.00826311  0.26111761  0.37192821  1
  O  O231  1  0.01513134  0.25495845  0.87918658  1
  O  O232  1  0.00439954  0.75388124  0.36869543  1
  O  O233  1  -0.00903173  0.74109732  0.85857090  1
  O  O234  1  0.49704155  0.25556128  0.36365677  1
  O  O235  1  0.50635106  0.25766273  0.86529317  1
  O  O236  1  0.50529502  0.76269651  0.37545132  1
  O  O237  1  0.51083405  0.75083140  0.86580458  1
  O  O238  1  0.25779464  0.12274943  0.48726215  1
  O  O239  1  0.24057692  0.14312102  0.98967783  1
  O  O240  1  0.23890046  0.62954511  0.50216897  1
  O  O241  1  0.24971839  0.62804141  0.98496255  1
  O  O242  1  0.73347489  0.13578124  0.50217360  1
  O  O243  1  0.75709561  0.13690199  0.98296716  1
  O  O244  1  0.73520546  0.64183102  0.50562351  1
  O  O245  1  0.73802939  0.63359764  1.00690106  1
  O  O246  1  0.24460831  0.36926852  0.00952300  1
  O  O247  1  0.24429089  0.37185103  0.51856103  1
  O  O248  1  0.26017177  0.86628894  0.00852749  1
  O  O249  1  0.25639614  0.86923846  0.50807386  1
  O  O250  1  0.75773066  0.36548426  0.00483650  1
  O  O251  1  0.76089305  0.36191143  0.50658598  1
  O  O252  1  0.74949288  0.86388924  -0.00696039  1
  O  O253  1  0.73976426  0.86303191  0.51303964  1
  O  O254  1  0.11991573  0.50039155  0.23983412  1
  O  O255  1  0.12149434  0.49138598  0.73771089  1
  O  O256  1  0.14274489  1.01367488  0.24859291  1
  O  O257  1  0.13795409  0.99250684  0.74142521  1
  O  O258  1  0.61360818  0.47790009  0.23370039  1
  O  O259  1  0.63009919  0.50189367  0.74143349  1
  O  O260  1  0.61943200  0.98234054  0.24965624  1
  O  O261  1  0.61297560  0.98670641  0.74352188  1
  O  O262  1  0.36876659  0.01222539  0.25755320  1
  O  O263  1  0.36942541  0.00912899  0.74417449  1
  O  O264  1  0.38553596  0.50656604  0.26434525  1
  O  O265  1  0.38482009  0.51000768  0.75703448  1
  O  O266  1  0.86632227  0.01485457  0.25700211  1
  O  O267  1  0.88218419  0.00397387  0.76551930  1
  O  O268  1  0.87231154  0.50846880  0.25294355  1
  O  O269  1  0.86939088  0.50438161  0.75792468  1
  O  O270  1  0.12027049  0.36454263  0.37584891  1
  O  O271  1  0.13447549  0.36869730  0.86553689  1
  O  O272  1  0.12593795  0.86227210  0.37775085  1
  O  O273  1  0.13201016  0.88128407  0.86309281  1
  O  O274  1  0.63316577  0.36940864  0.35153201  1
  O  O275  1  0.61605618  0.36772050  0.86805512  1
  O  O276  1  0.61618790  0.86877755  0.36801065  1
  O  O277  1  0.62812991  0.85950350  0.86342582  1
  O  O278  1  0.35880471  0.14955205  0.13983421  1
  O  O279  1  0.37058649  0.13877231  0.63747912  1
  O  O280  1  0.37884561  0.62386334  0.12810767  1
  O  O281  1  0.36678197  0.63522739  0.63119537  1
  O  O282  1  0.87001185  0.12063101  0.13795444  1
  O  O283  1  0.87351021  0.11424144  0.64425955  1
  O  O284  1  0.88158774  0.61759584  0.13468039  1
  O  O285  1  0.88552318  0.63507736  0.62367520  1
  O  O286  1  0.25200054  0.26338122  0.11882162  1
  O  O287  1  0.26413426  0.25838545  0.62805032  1
  O  O288  1  0.25494473  0.75594013  0.12609799  1
  O  O289  1  0.25846182  0.75726034  0.62088502  1
  O  O290  1  0.74463063  0.25590778  0.10284666  1
  O  O291  1  0.74252269  0.25371896  0.60726607  1
  O  O292  1  0.74324565  0.75375225  0.11097714  1
  O  O293  1  0.75904589  0.75836386  0.61881483  1
  O  O294  1  0.23591458  0.24728590  0.37477149  1
  O  O295  1  0.24774126  0.24884999  0.88064139  1
  O  O296  1  0.24198454  0.74460314  0.37892534  1
  O  O297  1  0.24692376  0.73639100  0.87658494  1
  O  O298  1  0.74832350  0.25532318  0.39484466  1
  O  O299  1  0.74561275  0.25063426  0.87870154  1
  O  O300  1  0.73851337  0.76158499  0.38575673  1
  O  O301  1  0.74078246  0.74549773  0.87406059  1
  O  O302  1  0.01810170  0.13632690  0.00051130  1
  O  O303  1  0.01356952  0.11517509  0.49200162  1
  O  O304  1  -0.01151865  0.61420653  0.01757237  1
  O  O305  1  0.00769587  0.61659894  0.50533639  1
  O  O306  1  0.52145174  0.15669075  0.00262373  1
  O  O307  1  0.50802939  0.11149252  0.49311335  1
  O  O308  1  0.50949094  0.61414827  0.00705657  1
  O  O309  1  0.50907780  0.63183040  0.50535705  1
  O  O310  1  0.50436714  0.38214927  0.49558383  1
  O  O311  1  0.50636352  0.38113132  0.98644666  1
  O  O312  1  0.49711965  0.88419372  0.49059795  1
  O  O313  1  0.47989045  0.86731206  1.00059378  1
  O  O314  1  0.99936266  0.38678000  0.49017294  1
  O  O315  1  0.99521112  0.39437120  1.01196663  1
  O  O316  1  0.99757353  0.88727613  0.50484117  1
  O  O317  1  0.98115067  0.86147507  1.00164845  1
  O  O318  1  0.49736695  0.50305593  0.38884885  1
  O  O319  1  0.49418271  0.49311483  0.87876854  1
  O  O320  1  0.49378650  0.99293318  0.38163402  1
  O  O321  1  0.55114459  0.99057371  0.91416886  1
  O  O322  1  1.00338746  0.48778636  0.38600009  1
  O  O323  1  0.99784994  0.50553098  0.89041484  1
  O  O324  1  0.99290246  0.99368023  0.37444361  1
  O  O325  1  0.99904289  0.99727939  0.87816631  1
  O  O326  1  0.00469591  0.00470504  0.12976048  1
  O  O327  1  0.02054516  0.00018847  0.62812443  1
  O  O328  1  0.00745534  0.50890299  0.12261746  1
  O  O329  1  0.00770734  0.50587526  0.61538254  1
  O  O330  1  0.46325978  0.01953919  0.11066594  1
  O  O331  1  0.50841690  -0.00899388  0.61343261  1
  O  O332  1  0.50418541  0.49963682  0.11450871  1
  O  O333  1  0.50446185  0.49589769  0.61107920  1
  O  O334  1  0.24682441  0.37331079  0.23890095  1
  O  O335  1  0.23671943  0.37477039  0.73485051  1
  O  O336  1  0.26061123  0.88630019  0.24338510  1
  O  O337  1  0.24837505  0.88031972  0.74552039  1
  O  O338  1  0.73544289  0.35228123  0.22919986  1
  O  O339  1  0.75212321  0.38841882  0.74182229  1
  O  O340  1  0.73505831  0.86968059  0.24176311  1
  O  O341  1  0.73800181  0.86828755  0.73789600  1
  O  O342  1  0.25923937  0.12322296  0.26090144  1
  O  O343  1  0.25995579  0.12102392  0.75860422  1
  O  O344  1  0.26107010  0.62347123  0.24638604  1
  O  O345  1  0.26326497  0.62901228  0.75944904  1
  O  O346  1  0.75908546  0.14297524  0.25370806  1
  O  O347  1  0.76268994  0.12444449  0.76279703  1
  O  O348  1  0.76193355  0.62903909  0.24669299  1
  O  O349  1  0.75254174  0.61236100  0.74212852  1
  O  O350  1  0.36754045  0.12426297  0.36833871  1
  O  O351  1  0.36549090  0.13281263  0.86712523  1
  O  O352  1  0.37319971  0.62016209  0.36336984  1
  O  O353  1  0.37004268  0.61766924  0.86685708  1
  O  O354  1  0.87777986  0.11525727  0.35782812  1
  O  O355  1  0.86847638  0.10608394  0.87220438  1
  O  O356  1  0.87273223  0.61863214  0.37056115  1
  O  O357  1  0.87755846  0.60731085  0.87308697  1
  O  O358  1  0.13085725  0.38996378  0.12933114  1
  O  O359  1  0.13172363  0.37727493  0.63282761  1
  O  O360  1  0.14263585  0.87985417  0.12464165  1
  O  O361  1  0.14028121  0.87726040  0.63460615  1
  O  O362  1  0.63049509  0.37609665  0.12027274  1
  O  O363  1  0.62486382  0.39041176  0.62564706  1
  O  O364  1  0.60816689  0.86554251  0.14036013  1
  O  O365  1  0.63053008  0.88192130  0.63228971  1
  O  O366  1  0.11207700  0.25423070  0.25826807  1
  O  O367  1  0.12880250  0.25943711  0.76249514  1
  O  O368  1  0.10766520  0.73677391  0.26269741  1
  O  O369  1  0.11724457  0.75873420  0.74461866  1
  O  O370  1  0.60686284  0.25202037  0.23692626  1
  O  O371  1  0.61865796  0.25027484  0.75441004  1
  O  O372  1  0.62023820  0.75629824  0.25929806  1
  O  O373  1  0.61856776  0.75305113  0.75100945  1
  O  O374  1  0.38398035  0.24944142  0.24694025  1
  O  O375  1  0.38416932  0.24253421  0.74575585  1
  O  O376  1  0.37849845  0.73823398  0.23790650  1
  O  O377  1  0.38149666  0.74341261  0.74286532  1
  O  O378  1  0.89055495  0.23861599  0.25558931  1
  O  O379  1  0.87676744  0.23160402  0.76169438  1
  O  O380  1  0.88463743  0.73611510  0.26168228  1
  O  O381  1  0.88349510  0.75064478  0.73752493  1
  O  O382  1  0.39160945  0.50507320  0.49027705  1
  O  O383  1  0.38788084  0.50397915  0.98862264  1
  O  O384  1  0.38183469  0.99555989  0.49785873  1
  O  O385  1  0.36187703  0.98372544  0.98803869  1
  O  O386  1  0.88875644  0.50601100  0.50607675  1
  O  O387  1  0.87727121  0.49921998  0.98888079  1
  O  O388  1  0.87263805  1.01313955  0.48149827  1
  O  O389  1  0.86762445  0.98703495  0.98355907  1
  O  O390  1  0.13562078  0.01966156  0.00026673  1
  O  O391  1  0.13779089  -0.00129632  0.52036142  1
  O  O392  1  0.11167573  0.50115430  0.00957830  1
  O  O393  1  0.11790584  0.50659922  0.50820930  1
  O  O394  1  0.64080076  -0.00531216  0.04496076  1
  O  O395  1  0.61974647  0.01127084  0.50638604  1
  O  O396  1  0.61731295  0.50311133  0.00367899  1
  O  O397  1  0.61028383  0.51034253  0.50528204  1
  O  O398  1  0.36492802  0.36603130  0.13053168  1
  O  O399  1  0.36461318  0.36560291  0.63097907  1
  O  O400  1  0.36830236  0.86298716  0.11551617  1
  O  O401  1  0.36692889  0.86712203  0.62205645  1
  O  O402  1  0.85925544  0.37828476  0.12616326  1
  O  O403  1  0.90500856  0.35208986  0.62757380  1
  O  O404  1  0.86743399  0.88847535  0.10772732  1
  O  O405  1  0.86575989  0.86976085  0.63119672  1
  O  O406  1  0.13202440  0.14121869  0.37174057  1
  O  O407  1  0.13405772  0.14052673  0.87876261  1
  O  O408  1  0.12376550  0.62777513  0.38544412  1
  O  O409  1  0.14215887  0.61463533  0.86503282  1
  O  O410  1  0.62451033  0.12145971  0.37910048  1
  O  O411  1  0.64191114  0.13733279  0.86519255  1
  O  O412  1  0.61406919  0.64320715  0.38427005  1
  O  O413  1  0.61860445  0.62970825  0.88535715  1
