# generated using pymatgen
data_V79Zn79O256
_symmetry_space_group_name_H-M   'P 1'
_cell_length_a   16.91074944
_cell_length_b   16.90579972
_cell_length_c   16.95294611
_cell_angle_alpha   89.96581146
_cell_angle_beta   89.98656578
_cell_angle_gamma   89.98247504
_symmetry_Int_Tables_number   1
_chemical_formula_structural   V79Zn79O256
_chemical_formula_sum   'V79 Zn79 O256'
_cell_volume   4846.67218470
_cell_formula_units_Z   1
loop_
 _symmetry_equiv_pos_site_id
 _symmetry_equiv_pos_as_xyz
  1  'x, y, z'
loop_
 _atom_site_type_symbol
 _atom_site_label
 _atom_site_symmetry_multiplicity
 _atom_site_fract_x
 _atom_site_fract_y
 _atom_site_fract_z
 _atom_site_occupancy
  V  V0  1  0.49647492  0.37946318  0.37676749  1
  V  V1  1  0.13592174  0.74685571  0.87044235  1
  V  V2  1  0.13077370  0.63380845  -0.00275763  1
  V  V3  1  0.87840415  0.23544582  0.62948076  1
  V  V4  1  0.25178815  0.36513848  0.12608915  1
  V  V5  1  0.87727358  0.37577741  0.50277624  1
  V  V6  1  0.12168905  0.12723685  0.50189185  1
  V  V7  1  0.00544616  0.12245469  0.12311409  1
  V  V8  1  0.25332397  0.87765408  0.60425088  1
  V  V9  1  -0.00073068  0.23317160  0.74841462  1
  V  V10  1  0.37352358  0.40837783  0.00043302  1
  V  V11  1  -0.00563424  -0.00087625  -0.00217277  1
  V  V12  1  0.36677279  0.75079089  0.59853335  1
  V  V13  1  0.50175847  0.13276257  0.11930328  1
  V  V14  1  0.00083522  0.37817118  0.38002373  1
  V  V15  1  0.61935662  0.37407255  0.75523658  1
  V  V16  1  0.36915926  -0.01356106  0.37823395  1
  V  V17  1  0.49785998  0.88123038  0.87208275  1
  V  V18  1  0.74854858  0.50135799  0.75543796  1
  V  V19  1  0.00317689  0.49537808  -0.00072841  1
  V  V20  1  0.87452328  0.62280931  0.74983031  1
  V  V21  1  0.12952335  0.38094236  0.25127290  1
  V  V22  1  0.12959212  0.87487621  0.74560898  1
  V  V23  1  0.49619989  0.25397584  0.74884894  1
  V  V24  1  0.86410934  0.25506122  0.12446009  1
  V  V25  1  0.62165167  0.11580367  0.50332550  1
  V  V26  1  0.74520865  0.87478723  0.62179768  1
  V  V27  1  0.37448901  0.87217632  0.01396704  1
  V  V28  1  0.25411470  0.12692780  0.37631288  1
  V  V29  1  0.87110474  0.74782188  0.62404754  1
  V  V30  1  0.26523376  0.24936145  -0.00302350  1
  V  V31  1  0.51213043  0.87497930  0.37779919  1
  V  V32  1  0.26424946  0.51376795  0.75918445  1
  V  V33  1  0.00483754  0.86191581  0.37241199  1
  V  V34  1  0.62928252  0.50190975  0.11346459  1
  V  V35  1  0.62364979  0.88147696  0.74282827  1
  V  V36  1  0.11425709  0.49741488  0.62867230  1
  V  V37  1  0.74838240  0.37407815  0.62600188  1
  V  V38  1  0.13055133  0.25498597  0.86946123  1
  V  V39  1  0.37701285  0.60860242  0.25416912  1
  V  V40  1  0.62524157  0.50864466  0.61814104  1
  V  V41  1  0.24517585  0.62019982  0.39121081  1
  V  V42  1  0.74270489  -0.00417495  0.24849812  1
  V  V43  1  0.87547916  0.12621172  0.25100718  1
  V  V44  1  -0.00568844  0.87589251  0.87447508  1
  V  V45  1  0.09794137  0.62762575  0.50669853  1
  V  V46  1  0.75687220  0.00673839  0.75068193  1
  V  V47  1  0.11918377  0.00364430  0.62588075  1
  V  V48  1  0.49002092  0.24969285  0.25187234  1
  V  V49  1  0.50829582  0.62178589  0.11612647  1
  V  V50  1  0.36481287  0.24679897  0.62068802  1
  V  V51  1  0.26278926  0.11164848  0.86372733  1
  V  V52  1  0.12789293  0.49887772  0.12564683  1
  V  V53  1  0.49966616  0.12092143  0.62693833  1
  V  V54  1  0.49917553  0.50184303  0.49852959  1
  V  V55  1  0.00075717  0.74284392  0.74458076  1
  V  V56  1  0.12617698  0.12282565  -0.00279522  1
  V  V57  1  0.75118185  0.49503547  0.24847781  1
  V  V58  1  0.74516532  0.14738957  0.89995181  1
  V  V59  1  0.62770882  0.74556568  0.87692634  1
  V  V60  1  0.36357224  0.37678489  0.49942108  1
  V  V61  1  0.74899922  0.12593859  0.37605614  1
  V  V62  1  0.87816165  0.63433329  0.24796034  1
  V  V63  1  -0.00330576  0.63453631  0.12882286  1
  V  V64  1  0.62908155  0.37401209  0.25146843  1
  V  V65  1  0.87825868  0.49921214  0.37836583  1
  V  V66  1  0.75073440  0.62473292  0.38762984  1
  V  V67  1  0.87069391  0.87234704  0.49888882  1
  V  V68  1  0.62515255  -0.00384410  0.11924886  1
  V  V69  1  0.00533084  0.25064162  0.24954370  1
  V  V70  1  0.13268636  0.25238683  0.38388255  1
  V  V71  1  0.49444566  0.62774276  0.62164437  1
  V  V72  1  0.00469914  0.37419128  0.86870816  1
  V  V73  1  0.86457254  0.37187194  0.00477353  1
  V  V74  1  0.50192087  -0.00004299  -0.00776547  1
  V  V75  1  0.62942489  0.73852280  0.38388828  1
  V  V76  1  0.50031346  0.75163544  0.24385878  1
  V  V77  1  0.74921009  0.24706957  0.50356935  1
  V  V78  1  0.48654560  0.75313309  0.74497835  1
  Zn  Zn79  1  0.25062968  -0.02163570  0.22122916  1
  Zn  Zn80  1  0.49676566  -0.01033985  0.51151664  1
  Zn  Zn81  1  0.87503472  0.49776418  0.87623154  1
  Zn  Zn82  1  -0.00410578  0.00329892  0.49891850  1
  Zn  Zn83  1  0.26094117  0.75340432  -0.00161712  1
  Zn  Zn84  1  0.37340254  0.11972080  0.24752286  1
  Zn  Zn85  1  0.50797119  0.35045086  0.91275256  1
  Zn  Zn86  1  0.12909677  0.88087258  0.26492675  1
  Zn  Zn87  1  0.87833191  -0.00132200  0.37656786  1
  Zn  Zn88  1  0.62178177  0.24957240  0.37869552  1
  Zn  Zn89  1  0.24086136  0.37352074  0.64499838  1
  Zn  Zn90  1  0.74049572  0.61637371  0.88922680  1
  Zn  Zn91  1  0.87775608  0.01424487  0.86803562  1
  Zn  Zn92  1  0.77410581  0.86518902  0.12348216  1
  Zn  Zn93  1  0.77099352  0.74484344  0.01274252  1
  Zn  Zn94  1  0.21200647  0.15222527  0.16636222  1
  Zn  Zn95  1  0.18712776  0.18603304  0.69079799  1
  Zn  Zn96  1  0.21808537  0.71453408  0.22731005  1
  Zn  Zn97  1  0.19016583  0.68290084  0.67907533  1
  Zn  Zn98  1  0.68050253  0.18614783  0.18689200  1
  Zn  Zn99  1  0.68235049  0.18835598  0.68737496  1
  Zn  Zn100  1  0.68718980  0.68384754  0.20090640  1
  Zn  Zn101  1  0.68470700  0.68986500  0.69028769  1
  Zn  Zn102  1  0.31132829  0.31625154  0.31544177  1
  Zn  Zn103  1  0.31997744  0.32639198  0.81862816  1
  Zn  Zn104  1  0.31701436  0.80519206  0.31651531  1
  Zn  Zn105  1  0.31902295  0.84732887  0.80511970  1
  Zn  Zn106  1  0.81334328  0.30983429  0.31418801  1
  Zn  Zn107  1  0.81766262  0.31275392  0.81184597  1
  Zn  Zn108  1  0.81109375  0.81225965  0.31402689  1
  Zn  Zn109  1  0.81086005  0.81361995  0.81169424  1
  Zn  Zn110  1  0.18428496  0.45361236  0.43801523  1
  Zn  Zn111  1  0.19256939  0.44095007  0.93362494  1
  Zn  Zn112  1  0.18303345  0.94024704  0.43506453  1
  Zn  Zn113  1  0.18539199  0.93534715  0.93954657  1
  Zn  Zn114  1  0.68745652  0.43687097  0.43669934  1
  Zn  Zn115  1  0.67887120  0.32238958  0.94246649  1
  Zn  Zn116  1  0.68704949  0.93624939  0.43641096  1
  Zn  Zn117  1  0.69435351  0.93105678  0.93528333  1
  Zn  Zn118  1  0.32185742  0.06308452  0.05274383  1
  Zn  Zn119  1  0.31036011  0.06138691  0.55593165  1
  Zn  Zn120  1  0.30480712  0.57687480  0.08989307  1
  Zn  Zn121  1  0.30862907  0.55818678  0.57240727  1
  Zn  Zn122  1  0.81484692  0.06465634  0.06347756  1
  Zn  Zn123  1  0.80830627  0.05494606  0.56500980  1
  Zn  Zn124  1  0.81197300  0.56163595  0.06115109  1
  Zn  Zn125  1  0.81880306  0.56018152  0.56809018  1
  Zn  Zn126  1  0.44224507  0.43724866  0.18170202  1
  Zn  Zn127  1  0.43042635  0.43742004  0.68516976  1
  Zn  Zn128  1  0.44329469  0.93951817  0.19338759  1
  Zn  Zn129  1  0.42454336  0.93980433  0.68998021  1
  Zn  Zn130  1  0.93875840  0.43950209  0.18780917  1
  Zn  Zn131  1  0.93709346  0.43368800  0.68753791  1
  Zn  Zn132  1  0.94587152  0.94137011  0.19509390  1
  Zn  Zn133  1  0.93805091  0.93491081  0.68689504  1
  Zn  Zn134  1  0.06742926  0.05379758  0.31525502  1
  Zn  Zn135  1  0.07363839  0.05996056  0.81456749  1
  Zn  Zn136  1  0.06543507  0.56845122  0.31607024  1
  Zn  Zn137  1  0.06999817  0.55968052  0.80976254  1
  Zn  Zn138  1  0.56034716  0.06409254  0.31320038  1
  Zn  Zn139  1  0.57265767  0.07022484  0.80977807  1
  Zn  Zn140  1  0.56395326  0.56287144  0.31152505  1
  Zn  Zn141  1  0.56217478  0.56764208  0.80006285  1
  Zn  Zn142  1  0.43508351  0.18869532  0.43958609  1
  Zn  Zn143  1  0.44166605  0.17996121  0.93429318  1
  Zn  Zn144  1  0.43647145  0.68203234  0.42878825  1
  Zn  Zn145  1  0.45465009  0.70041521  0.94651917  1
  Zn  Zn146  1  0.93948659  0.18944817  0.43979457  1
  Zn  Zn147  1  0.93186398  0.18779971  0.93390291  1
  Zn  Zn148  1  0.93230811  0.68830552  0.43962974  1
  Zn  Zn149  1  0.94015126  0.68178400  0.93011028  1
  Zn  Zn150  1  0.06445577  0.30729583  0.06043737  1
  Zn  Zn151  1  0.06250089  0.31360440  0.56780134  1
  Zn  Zn152  1  -0.06041610  0.81934898  0.05396606  1
  Zn  Zn153  1  0.05968212  0.81337285  0.55812917  1
  Zn  Zn154  1  0.55547048  0.32418096  0.07490104  1
  Zn  Zn155  1  0.56117870  0.31143308  0.56471659  1
  Zn  Zn156  1  0.62588346  0.80248336  0.07467142  1
  Zn  Zn157  1  0.56275367  0.80884279  0.55955376  1
  O  O158  1  0.11081284  0.14331412  0.10997419  1
  O  O159  1  0.13504750  0.11087253  0.61879936  1
  O  O160  1  0.10892675  0.61491205  0.11303646  1
  O  O161  1  0.12301323  0.61391697  0.61480562  1
  O  O162  1  0.61206272  0.11403386  0.13158908  1
  O  O163  1  0.60960917  0.12703686  0.61635146  1
  O  O164  1  0.62097296  0.60999088  0.13654630  1
  O  O165  1  0.61670723  0.61647359  0.62543605  1
  O  O166  1  0.38531461  0.37019127  0.38808000  1
  O  O167  1  0.38870756  0.37782416  0.89879374  1
  O  O168  1  0.38329305  0.88254096  0.37649020  1
  O  O169  1  0.39557800  0.87040821  0.89119788  1
  O  O170  1  0.88104442  0.37869879  0.38223268  1
  O  O171  1  0.88544949  0.37440941  0.88909327  1
  O  O172  1  0.87692380  0.87474120  0.38496040  1
  O  O173  1  0.89287268  0.87842412  0.86165757  1
  O  O174  1  0.26284270  0.00549515  0.37965569  1
  O  O175  1  0.23823657  0.01451370  0.87641841  1
  O  O176  1  0.24264093  0.52169995  0.36365349  1
  O  O177  1  0.24562709  0.50532120  0.86090127  1
  O  O178  1  0.75149243  0.00934953  0.36444772  1
  O  O179  1  0.75324271  -0.00241438  0.86051419  1
  O  O180  1  0.75980809  0.50404166  0.37086592  1
  O  O181  1  0.75073638  0.49794634  0.85778580  1
  O  O182  1  0.23193935  0.48633102  0.12043658  1
  O  O183  1  0.24407330  0.49478776  0.63766406  1
  O  O184  1  0.24853082  1.04711960  0.13308039  1
  O  O185  1  0.24387377  0.98454133  0.61631236  1
  O  O186  1  0.74253973  0.50430657  0.14068280  1
  O  O187  1  0.74283480  0.49509314  0.63044065  1
  O  O188  1  0.74020764  1.00789074  0.13554765  1
  O  O189  1  0.75080636  0.98487430  0.63623813  1
  O  O190  1  0.00516813  0.36828160  0.25880905  1
  O  O191  1  -0.00568250  0.37029907  0.76620607  1
  O  O192  1  0.00341351  0.87817064  0.26857197  1
  O  O193  1  0.01076452  0.86676538  0.75313926  1
  O  O194  1  0.50598362  0.37031404  0.25808231  1
  O  O195  1  0.50464200  0.36424490  0.73824655  1
  O  O196  1  0.49730000  0.85977640  0.26176708  1
  O  O197  1  0.50608828  0.87381080  0.75202527  1
  O  O198  1  0.49940544  0.13478734  0.24589474  1
  O  O199  1  0.50751336  0.13687562  0.73514183  1
  O  O200  1  0.49279155  0.63158330  0.25414524  1
  O  O201  1  0.50096170  0.63884685  0.72991690  1
  O  O202  1  0.99495915  0.13238783  0.24522738  1
  O  O203  1  1.00015156  0.13441043  0.75636789  1
  O  O204  1  0.99610651  0.62033151  0.23773213  1
  O  O205  1  0.99061628  0.63407207  0.75672642  1
  O  O206  1  0.36587652  0.24615614  -0.00204570  1
  O  O207  1  0.37774055  0.26341656  0.51016951  1
  O  O208  1  0.37892087  0.76441627  0.00275380  1
  O  O209  1  0.37576673  0.75193005  0.50051971  1
  O  O210  1  0.88474945  0.26423426  0.01031656  1
  O  O211  1  0.87053044  0.25729390  0.50787440  1
  O  O212  1  0.87986829  0.75835182  -0.01763573  1
  O  O213  1  0.87591157  0.75830005  0.51352537  1
  O  O214  1  0.11784480  0.24484203  0.49094662  1
  O  O215  1  0.13173737  0.24287328  0.98779652  1
  O  O216  1  0.11683735  0.72797374  0.51211470  1
  O  O217  1  0.11837253  0.73637186  0.98805625  1
  O  O218  1  0.63217027  0.23956481  0.50174207  1
  O  O219  1  0.58167829  0.28266046  0.97615130  1
  O  O220  1  0.62092713  0.74670597  0.48363047  1
  O  O221  1  0.60583834  0.75034824  0.97483613  1
  O  O222  1  0.50731573  0.23860678  0.13603010  1
  O  O223  1  0.49014136  0.24030876  0.62826485  1
  O  O224  1  0.52156294  0.73661483  0.14131441  1
  O  O225  1  0.48637993  0.74856104  0.62359160  1
  O  O226  1  0.99275758  0.24651156  0.13565337  1
  O  O227  1  0.99521969  0.25317841  0.64094249  1
  O  O228  1  0.99404970  0.73111736  0.11603183  1
  O  O229  1  0.98680615  0.75963769  0.63828539  1
  O  O230  1  0.00518282  0.25947055  0.36785162  1
  O  O231  1  0.00645969  0.25342271  0.86579057  1
  O  O232  1  -0.01046677  0.76212136  0.37547906  1
  O  O233  1  0.01123528  0.75722761  0.86252681  1
  O  O234  1  0.50159942  0.25941743  0.36959860  1
  O  O235  1  0.48665929  0.24509408  0.85028136  1
  O  O236  1  0.50803388  0.75710434  0.37219469  1
  O  O237  1  0.50636016  0.75936794  0.86046154  1
  O  O238  1  0.23637313  0.12283104  0.48825675  1
  O  O239  1  0.24391192  0.13364279  0.98882603  1
  O  O240  1  0.25923160  0.62552703  0.49040870  1
  O  O241  1  0.23322808  0.63357064  1.01412619  1
  O  O242  1  0.74297398  0.12527230  0.49440862  1
  O  O243  1  0.74581133  0.13066980  0.99917359  1
  O  O244  1  0.76333818  0.62034692  0.48634234  1
  O  O245  1  0.75518951  0.63223008  0.99836583  1
  O  O246  1  0.25940489  0.36921127  0.00473458  1
  O  O247  1  0.26457899  0.38470197  0.49086107  1
  O  O248  1  0.27076569  0.88143673  -0.00387080  1
  O  O249  1  0.24277102  0.86974644  0.50633118  1
  O  O250  1  0.76616312  0.37606571  -0.00267300  1
  O  O251  1  0.75763525  0.36811964  0.50437185  1
  O  O252  1  0.72712310  0.85966870  0.01458770  1
  O  O253  1  0.75674157  0.87967813  0.50877948  1
  O  O254  1  0.11427851  0.48782530  0.24190397  1
  O  O255  1  0.13341746  0.50517735  0.73463215  1
  O  O256  1  0.13456181  0.99492563  0.24941025  1
  O  O257  1  0.12327339  0.99115416  0.73461280  1
  O  O258  1  0.63685934  0.49104222  0.25676186  1
  O  O259  1  0.62886684  0.49535351  0.73778898  1
  O  O260  1  0.63931498  1.00750761  0.24704141  1
  O  O261  1  0.63310961  0.98708595  0.75156214  1
  O  O262  1  0.37470907  0.00102314  0.26563485  1
  O  O263  1  0.35124022  -0.04681208  0.76980381  1
  O  O264  1  0.38792578  0.50893785  0.25357283  1
  O  O265  1  0.36725637  0.50669797  0.74445168  1
  O  O266  1  0.86548141  0.01694496  0.24854232  1
  O  O267  1  0.86201667  -0.00355134  0.74751515  1
  O  O268  1  0.86912823  0.50024269  0.26083396  1
  O  O269  1  0.86579527  0.50539487  0.74580781  1
  O  O270  1  0.11932328  0.37381965  0.37200825  1
  O  O271  1  0.11737817  0.36329438  0.88390012  1
  O  O272  1  0.10811150  0.86933481  0.38671626  1
  O  O273  1  0.11846082  0.86932471  0.86374856  1
  O  O274  1  0.61587218  0.37229381  0.36927090  1
  O  O275  1  0.61056140  0.38699073  0.85647462  1
  O  O276  1  0.61803784  0.86483001  0.37336171  1
  O  O277  1  0.61544716  0.86818923  0.86343969  1
  O  O278  1  0.39854590  0.12029959  0.12972371  1
  O  O279  1  0.38209828  0.13910849  0.61301854  1
  O  O280  1  0.40350453  0.61969955  0.13517712  1
  O  O281  1  0.38128669  0.64194921  0.61706743  1
  O  O282  1  0.88448580  0.13536020  0.13296804  1
  O  O283  1  0.87288443  0.13698177  0.61632612  1
  O  O284  1  0.88996364  0.60882367  0.13524245  1
  O  O285  1  0.87017639  0.63494621  0.63703198  1
  O  O286  1  0.24295043  0.25687718  0.11175879  1
  O  O287  1  0.26150992  0.25181981  0.62936986  1
  O  O288  1  0.22991417  0.76843387  0.11652265  1
  O  O289  1  0.26204550  0.75661213  0.61975063  1
  O  O290  1  0.76484498  0.24558746  0.13424644  1
  O  O291  1  0.75816929  0.25420162  0.62354375  1
  O  O292  1  0.72370948  0.75824646  0.12598116  1
  O  O293  1  0.76034023  0.76114226  0.63512698  1
  O  O294  1  0.23864855  0.24813858  0.37734059  1
  O  O295  1  0.24587686  0.24919356  0.88009353  1
  O  O296  1  0.23905808  0.71746478  0.34063116  1
  O  O297  1  0.23695231  0.76472585  0.87682213  1
  O  O298  1  0.75016329  0.23930315  0.38275910  1
  O  O299  1  0.74806685  0.25255006  0.88103417  1
  O  O300  1  0.73695437  0.74084472  0.36862556  1
  O  O301  1  0.73208210  0.75459497  0.87073994  1
  O  O302  1  0.00590921  0.12403140  0.00320937  1
  O  O303  1  0.01496176  0.12410398  0.49567652  1
  O  O304  1  0.00280931  0.61198004  0.00694850  1
  O  O305  1  -0.00213190  0.61819634  0.50071840  1
  O  O306  1  0.50080238  0.11544843  0.01041427  1
  O  O307  1  0.50663227  0.12591351  0.50943502  1
  O  O308  1  0.50822543  0.62891694  0.01780890  1
  O  O309  1  0.49340133  0.61354149  0.50654134  1
  O  O310  1  0.49624892  0.38079392  0.49353279  1
  O  O311  1  0.47351077  0.39581201  1.02502345  1
  O  O312  1  0.50508517  0.87572634  0.48377016  1
  O  O313  1  0.49935580  0.89037770  0.99303857  1
  O  O314  1  0.98889715  0.36607747  0.48938343  1
  O  O315  1  1.00001450  0.38144241  0.99254183  1
  O  O316  1  0.98642925  0.87592481  0.49288716  1
  O  O317  1  1.00903432  0.88964224  0.98685941  1
  O  O318  1  0.50712711  0.49041280  0.38584382  1
  O  O319  1  0.47238554  0.54016547  0.87665782  1
  O  O320  1  0.49613947  0.98410640  0.36876453  1
  O  O321  1  0.51464758  0.99950637  0.88624505  1
  O  O322  1  0.98989800  0.48824881  0.36839153  1
  O  O323  1  1.00219160  0.49227642  0.88298334  1
  O  O324  1  0.99500302  0.98956578  0.37988996  1
  O  O325  1  0.99988107  0.99534155  0.87793679  1
  O  O326  1  -0.00174941  0.01684403  0.11654603  1
  O  O327  1  0.01534719  -0.00611219  0.62148138  1
  O  O328  1  0.01007033  0.49725532  0.11520148  1
  O  O329  1  0.01271081  0.49400294  0.63027189  1
  O  O330  1  0.51052913  0.00994321  0.12070994  1
  O  O331  1  0.48389600  0.01638650  0.62759022  1
  O  O332  1  0.51827439  0.51049485  0.13270809  1
  O  O333  1  0.50594134  0.50828511  0.61902903  1
  O  O334  1  0.23728300  0.36609121  0.24214328  1
  O  O335  1  0.25560014  0.39140257  0.75564683  1
  O  O336  1  0.24569917  0.87059961  0.25860779  1
  O  O337  1  0.23080791  0.86159654  0.73087239  1
  O  O338  1  0.74241992  0.38231429  0.26100317  1
  O  O339  1  0.74218753  0.38045528  0.74517192  1
  O  O340  1  0.75894774  0.89484671  0.24947720  1
  O  O341  1  0.74207274  0.88135946  0.74213374  1
  O  O342  1  0.25472916  0.13581287  0.27093387  1
  O  O343  1  0.24917281  0.12968333  0.76519930  1
  O  O344  1  0.27958486  0.61942021  0.21241876  1
  O  O345  1  0.24983640  0.61551678  0.74623315  1
  O  O346  1  0.75643992  0.12275281  0.25842367  1
  O  O347  1  0.74322326  0.10654214  0.73905166  1
  O  O348  1  0.75971935  0.61219153  0.26237204  1
  O  O349  1  0.75614809  0.61625218  0.74913406  1
  O  O350  1  0.36866014  0.11930454  0.37620406  1
  O  O351  1  0.36235293  0.11944081  0.87949017  1
  O  O352  1  0.36206722  0.62536534  0.36090197  1
  O  O353  1  0.41980826  0.59548320  0.88021988  1
  O  O354  1  0.86713787  0.12746415  0.36819979  1
  O  O355  1  0.85110375  0.12970980  0.87562553  1
  O  O356  1  0.87260348  0.61568139  0.36751446  1
  O  O357  1  0.87004837  0.61790302  0.86029568  1
  O  O358  1  0.12914834  0.37716202  0.13221683  1
  O  O359  1  0.13096650  0.38939506  0.61250091  1
  O  O360  1  0.15769514  0.80637204  0.12366505  1
  O  O361  1  0.13159521  0.88311313  0.62357374  1
  O  O362  1  0.62066376  0.38977642  0.14306014  1
  O  O363  1  0.62949725  0.38460291  0.63096304  1
  O  O364  1  0.61524668  0.89850583  0.13928693  1
  O  O365  1  0.63268962  0.86648626  0.63023624  1
  O  O366  1  0.11402115  0.26101196  0.26237699  1
  O  O367  1  0.11131597  0.24757329  0.75708430  1
  O  O368  1  0.12271364  0.78046454  0.19468146  1
  O  O369  1  0.11787642  0.75108227  0.75134808  1
  O  O370  1  0.61763194  0.26036554  0.25295580  1
  O  O371  1  0.61026623  0.26164825  0.73991670  1
  O  O372  1  0.60935691  0.73997489  0.26988578  1
  O  O373  1  0.61346291  0.76192865  0.75194485  1
  O  O374  1  0.38742995  0.25369778  0.25297961  1
  O  O375  1  0.38643569  0.26067324  0.73086654  1
  O  O376  1  0.39491566  0.73927947  0.25335097  1
  O  O377  1  0.38579798  0.76363798  0.74612141  1
  O  O378  1  0.88444014  0.24508632  0.24677481  1
  O  O379  1  0.88831594  0.25263327  0.74304581  1
  O  O380  1  0.86604502  0.73305581  0.25001407  1
  O  O381  1  0.88067315  0.74267247  0.74577129  1
  O  O382  1  0.38771848  0.48518060  0.51106662  1
  O  O383  1  0.35536899  0.50542203  1.00512278  1
  O  O384  1  0.38313921  1.00530780  0.48232581  1
  O  O385  1  0.39532400  0.99306412  1.00016379  1
  O  O386  1  0.87019834  0.48628525  0.49122756  1
  O  O387  1  0.88522614  0.48678416  1.00115314  1
  O  O388  1  0.87503730  0.98788221  0.50042174  1
  O  O389  1  0.89028779  1.01040498  0.99361986  1
  O  O390  1  0.11451619  0.01624916  -0.00675181  1
  O  O391  1  0.12300762  0.00801385  0.51057812  1
  O  O392  1  0.11945780  0.50718778  0.00429934  1
  O  O393  1  0.12753059  0.51390384  0.51458779  1
  O  O394  1  0.61823272  -0.00259627  0.01287889  1
  O  O395  1  0.61909181  0.01130836  0.49494457  1
  O  O396  1  0.63346179  0.49326005  0.01848096  1
  O  O397  1  0.61584461  0.49247779  0.51051446  1
  O  O398  1  0.35695355  0.38632806  0.11969746  1
  O  O399  1  0.37317993  0.36463810  0.61136661  1
  O  O400  1  0.38481997  0.88232918  0.11283656  1
  O  O401  1  0.36263292  0.86532944  0.61599183  1
  O  O402  1  0.88061618  0.37015625  0.11416868  1
  O  O403  1  0.86992300  0.36802679  0.61689911  1
  O  O404  1  0.88333578  0.88645336  0.12302076  1
  O  O405  1  0.86669529  0.86778349  0.61912523  1
  O  O406  1  0.13082421  0.13478381  0.38153551  1
  O  O407  1  0.13202268  0.13753713  0.88051752  1
  O  O408  1  0.12833258  0.61866375  0.39638569  1
  O  O409  1  0.12047928  0.63101702  0.88831754  1
  O  O410  1  0.63347587  0.12694764  0.38253063  1
  O  O411  1  0.65050483  0.12523228  0.86959460  1
  O  O412  1  0.63495750  0.62933425  0.37737047  1
  O  O413  1  0.62547033  0.64080003  0.85999188  1
