# generated using pymatgen
data_V79Zn79O256
_symmetry_space_group_name_H-M   'P 1'
_cell_length_a   16.88853793
_cell_length_b   16.89933183
_cell_length_c   16.89757515
_cell_angle_alpha   90.01390963
_cell_angle_beta   89.90209049
_cell_angle_gamma   89.99421412
_symmetry_Int_Tables_number   1
_chemical_formula_structural   V79Zn79O256
_chemical_formula_sum   'V79 Zn79 O256'
_cell_volume   4822.64534038
_cell_formula_units_Z   1
loop_
 _symmetry_equiv_pos_site_id
 _symmetry_equiv_pos_as_xyz
  1  'x, y, z'
loop_
 _atom_site_type_symbol
 _atom_site_label
 _atom_site_symmetry_multiplicity
 _atom_site_fract_x
 _atom_site_fract_y
 _atom_site_fract_z
 _atom_site_occupancy
  V  V0  1  -0.00360448  0.74636914  0.24540724  1
  V  V1  1  0.75626867  0.49774976  0.24367873  1
  V  V2  1  0.50019163  0.87463837  0.38822699  1
  V  V3  1  0.75474347  0.37214300  0.61746535  1
  V  V4  1  0.37719236  0.48165931  0.88063237  1
  V  V5  1  0.49697979  0.62475923  0.12727802  1
  V  V6  1  0.87867912  0.11880541  0.75591034  1
  V  V7  1  -0.00411582  0.25307561  0.24978591  1
  V  V8  1  0.62796640  0.62618929  -0.01303913  1
  V  V9  1  0.12353613  0.50303547  0.61494562  1
  V  V10  1  0.00080376  0.25459557  0.75572932  1
  V  V11  1  -0.00312316  -0.00784289  0.50224212  1
  V  V12  1  0.87001498  -0.00544490  0.37577856  1
  V  V13  1  0.62563744  0.50037131  0.61850808  1
  V  V14  1  0.87844905  0.25580969  0.62065332  1
  V  V15  1  0.50121948  0.75086401  0.24894507  1
  V  V16  1  0.12959850  -0.00483345  0.62554945  1
  V  V17  1  0.24613989  0.87583839  0.11648724  1
  V  V18  1  0.62775640  0.23365776  0.37940126  1
  V  V19  1  -0.00136890  0.86665436  0.37358116  1
  V  V20  1  0.61771466  0.37040788  0.75240830  1
  V  V21  1  0.38486063  0.00678676  0.87657768  1
  V  V22  1  0.12603119  0.37687077  0.23873404  1
  V  V23  1  0.74996528  0.49828645  0.75330283  1
  V  V24  1  0.62793797  0.13278544  0.00431083  1
  V  V25  1  0.37168240  0.37035545  0.49609395  1
  V  V26  1  0.25041808  0.50289884  0.75760043  1
  V  V27  1  0.48519986  0.24420016  0.74703298  1
  V  V28  1  0.37567580  0.75191207  0.11790236  1
  V  V29  1  0.87520161  0.49313206  0.87609612  1
  V  V30  1  0.01006290  0.49566829  -0.00281376  1
  V  V31  1  -0.00429288  0.37834380  0.38721634  1
  V  V32  1  0.73282495  0.00758154  0.73772544  1
  V  V33  1  0.12549414  0.87645035  0.24642457  1
  V  V34  1  0.12645404  0.24524151  0.37491629  1
  V  V35  1  0.24996698  0.51526937  0.24811656  1
  V  V36  1  0.49755486  0.48019834  -0.00137329  1
  V  V37  1  0.49493981  0.13174263  0.12590324  1
  V  V38  1  0.74760401  -0.00372993  0.25085520  1
  V  V39  1  0.74756189  0.87071728  0.62462165  1
  V  V40  1  -0.01611511  0.88004931  0.87663814  1
  V  V41  1  0.62583557  0.87262340  0.25314862  1
  V  V42  1  0.00302186  0.61873046  0.11872473  1
  V  V43  1  0.12660603  0.00294751  0.13041332  1
  V  V44  1  0.26411776  0.25734284  0.00651712  1
  V  V45  1  0.86118753  0.37136244  0.00638045  1
  V  V46  1  0.00473947  0.74920485  0.75280493  1
  V  V47  1  0.87169977  0.49881271  0.39174083  1
  V  V48  1  0.51630492  0.01369969  0.50018758  1
  V  V49  1  0.62088286  -0.00348698  0.11978496  1
  V  V50  1  0.26877676  0.37187527  0.12617534  1
  V  V51  1  0.25714584  0.86029916  0.62403545  1
  V  V52  1  0.37991769  0.62780616  0.75823655  1
  V  V53  1  0.87190783  0.63059349  0.75381681  1
  V  V54  1  -0.00405800  0.12684474  0.12575136  1
  V  V55  1  0.25032242  0.12463731  0.87009709  1
  V  V56  1  0.50108039  0.61835387  0.62274835  1
  V  V57  1  0.36408949  0.11696245  0.25593692  1
  V  V58  1  0.24846294  0.24209432  0.50349505  1
  V  V59  1  0.38461651  0.74913841  0.61606881  1
  V  V60  1  0.36256502  -0.00149255  0.38366028  1
  V  V61  1  0.39888133  0.88926999  0.00502657  1
  V  V62  1  -0.00102506  0.62425104  0.61763207  1
  V  V63  1  0.12262364  0.12700427  0.00142986  1
  V  V64  1  0.49009210  0.25349430  0.25855783  1
  V  V65  1  0.50035574  0.48924886  0.49162868  1
  V  V66  1  0.75186269  0.12245932  0.87734921  1
  V  V67  1  0.37268984  0.51471585  0.37131388  1
  V  V68  1  0.62223906  0.37465938  0.26026030  1
  V  V69  1  0.50061595  0.12593971  0.63035496  1
  V  V70  1  0.00417836  0.12420121  0.62392731  1
  V  V71  1  0.12163818  0.26046555  0.87871024  1
  V  V72  1  0.62454181  0.49236995  0.12424235  1
  V  V73  1  0.85889585  0.75019790  0.11369148  1
  V  V74  1  0.73533649  0.73669623  0.48195746  1
  V  V75  1  0.13390250  0.87396540  0.76073342  1
  V  V76  1  0.86883048  0.12459006  0.25494306  1
  V  V77  1  0.62298578  0.24926442  0.87460594  1
  V  V78  1  0.12144279  0.37904287  0.75380144  1
  Zn  Zn79  1  -0.01251976  0.00317552  -0.00756410  1
  Zn  Zn80  1  0.21590132  0.74453339  -0.04689309  1
  Zn  Zn81  1  0.73693452  0.23740120  0.50089592  1
  Zn  Zn82  1  0.13037721  0.62283635  0.48731576  1
  Zn  Zn83  1  0.88634896  0.84167920  0.52633989  1
  Zn  Zn84  1  0.26910313  0.00605132  0.74523761  1
  Zn  Zn85  1  0.86350844  0.62928767  0.25235392  1
  Zn  Zn86  1  0.14676724  0.72885280  0.35913255  1
  Zn  Zn87  1  0.85323133  0.25385481  0.12675961  1
  Zn  Zn88  1  0.56114315  0.82774081  0.80648884  1
  Zn  Zn89  1  0.83843875  0.89697733  0.00954605  1
  Zn  Zn90  1  0.74127484  0.74603266  -0.03430118  1
  Zn  Zn91  1  0.13367769  0.11161183  0.48744791  1
  Zn  Zn92  1  0.25791761  0.73171736  0.48419769  1
  Zn  Zn93  1  0.25261692  0.37290088  0.62791231  1
  Zn  Zn94  1  0.18631992  0.19203331  0.18822288  1
  Zn  Zn95  1  0.18767127  0.18788708  0.68648727  1
  Zn  Zn96  1  0.18822703  0.68096448  0.10126299  1
  Zn  Zn97  1  0.20065824  0.69422005  0.79231206  1
  Zn  Zn98  1  0.68199086  0.18242736  0.20077385  1
  Zn  Zn99  1  0.68323527  0.18484768  0.68419740  1
  Zn  Zn100  1  0.68185886  0.67861469  0.19099756  1
  Zn  Zn101  1  0.68270102  0.68690056  0.69734172  1
  Zn  Zn102  1  0.31123028  0.31555324  0.31835491  1
  Zn  Zn103  1  0.30416774  0.31196769  0.81604067  1
  Zn  Zn104  1  0.32019583  0.81529031  0.30248516  1
  Zn  Zn105  1  0.37093095  0.79527501  0.83767508  1
  Zn  Zn106  1  0.80795779  0.31750882  0.31383430  1
  Zn  Zn107  1  0.80973841  0.31093835  0.81226296  1
  Zn  Zn108  1  0.81031985  0.80915212  0.31302330  1
  Zn  Zn109  1  0.80856864  0.82011122  0.79455033  1
  Zn  Zn110  1  0.19067674  0.43477022  0.42850592  1
  Zn  Zn111  1  0.18903768  0.56657617  0.93933557  1
  Zn  Zn112  1  0.20568761  0.89153400  0.42205457  1
  Zn  Zn113  1  0.18940397  0.94347655  0.93878064  1
  Zn  Zn114  1  0.69125769  0.43442236  0.43560262  1
  Zn  Zn115  1  0.68393575  0.44052345  0.93331325  1
  Zn  Zn116  1  0.68997406  0.92342978  0.44553840  1
  Zn  Zn117  1  0.67849859  0.92888446  0.92406515  1
  Zn  Zn118  1  0.31049304  0.06667987  0.06513182  1
  Zn  Zn119  1  0.32060824  0.06118128  0.56384036  1
  Zn  Zn120  1  0.31743232  0.55865565  0.06423452  1
  Zn  Zn121  1  0.31037108  0.56198753  0.56461387  1
  Zn  Zn122  1  0.80681366  0.06823217  0.06731127  1
  Zn  Zn123  1  0.80969636  0.06789703  0.56093962  1
  Zn  Zn124  1  0.81177688  0.56580676  0.06080354  1
  Zn  Zn125  1  0.80887405  0.57417927  0.56497861  1
  Zn  Zn126  1  0.43876207  0.43760013  0.19031836  1
  Zn  Zn127  1  0.43482991  0.43205307  0.68445186  1
  Zn  Zn128  1  0.43827567  0.94104297  0.19198815  1
  Zn  Zn129  1  0.45130935  0.93477592  0.68784961  1
  Zn  Zn130  1  0.93781880  0.43393724  0.18187439  1
  Zn  Zn131  1  0.93862230  0.44013781  0.68606206  1
  Zn  Zn132  1  0.93342808  0.93480518  0.18086694  1
  Zn  Zn133  1  0.93731523  0.93554189  0.69124107  1
  Zn  Zn134  1  0.05603657  0.05983964  0.31401592  1
  Zn  Zn135  1  0.06419409  0.06161782  0.81295747  1
  Zn  Zn136  1  0.05795175  0.55908800  0.30396267  1
  Zn  Zn137  1  0.05891463  0.56465556  0.81509769  1
  Zn  Zn138  1  0.55733277  0.06042875  0.31238476  1
  Zn  Zn139  1  0.57358157  0.03588912  0.82672832  1
  Zn  Zn140  1  0.56999488  0.56252514  0.31345964  1
  Zn  Zn141  1  0.55647382  0.55330371  0.81035834  1
  Zn  Zn142  1  0.43470755  0.18514211  0.43543446  1
  Zn  Zn143  1  0.44318507  0.18658711  0.93604420  1
  Zn  Zn144  1  0.49002872  0.67146620  0.42418059  1
  Zn  Zn145  1  0.46006259  0.69028132  0.93731623  1
  Zn  Zn146  1  0.90652767  0.16966598  0.45413673  1
  Zn  Zn147  1  0.93415782  0.19114882  0.93851748  1
  Zn  Zn148  1  0.92729669  0.68271418  0.43540740  1
  Zn  Zn149  1  0.93989354  0.68756923  0.93562774  1
  Zn  Zn150  1  0.05923129  0.31786093  0.05989404  1
  Zn  Zn151  1  0.06640017  0.31249821  0.56471774  1
  Zn  Zn152  1  0.05320839  0.81215345  0.05888566  1
  Zn  Zn153  1  0.07410273  0.80193657  0.56199693  1
  Zn  Zn154  1  0.68139918  0.31142937  0.06621207  1
  Zn  Zn155  1  0.55974659  0.30917861  0.56534255  1
  Zn  Zn156  1  0.57206256  0.81087340  0.06212761  1
  Zn  Zn157  1  0.57057787  0.82157049  0.59254401  1
  O  O158  1  0.11709176  0.12248781  0.12132594  1
  O  O159  1  0.11680244  0.11456589  0.62634534  1
  O  O160  1  0.10132615  0.61710574  0.13460227  1
  O  O161  1  0.11285935  0.60930871  0.62502694  1
  O  O162  1  0.61514397  0.11931211  0.12404653  1
  O  O163  1  0.60477077  0.13934643  0.61567527  1
  O  O164  1  0.61593338  0.61168449  0.11710839  1
  O  O165  1  0.61586267  0.60975665  0.63888028  1
  O  O166  1  0.37005231  0.38537788  0.38907971  1
  O  O167  1  0.37159762  0.38316374  0.87673183  1
  O  O168  1  0.39081776  0.89196892  0.36377087  1
  O  O169  1  0.37936100  0.89595349  0.89723648  1
  O  O170  1  0.88711983  0.38008455  0.37376580  1
  O  O171  1  0.86855957  0.38397034  0.88443842  1
  O  O172  1  0.88606625  0.88324917  0.36863781  1
  O  O173  1  0.88317191  0.87353672  0.86750268  1
  O  O174  1  0.26309449  -0.01289062  0.38652873  1
  O  O175  1  0.25643106  0.01086731  0.87275367  1
  O  O176  1  0.26025431  0.50039970  0.36096894  1
  O  O177  1  0.26552234  0.50333315  0.86789571  1
  O  O178  1  0.76287604  -0.00989983  0.36955804  1
  O  O179  1  0.74250798  0.01702898  0.85653704  1
  O  O180  1  0.76592982  0.48794578  0.36505570  1
  O  O181  1  0.75479497  0.49824035  0.85969856  1
  O  O182  1  0.26288069  0.48323718  0.13856386  1
  O  O183  1  0.23636808  0.49852851  0.63796186  1
  O  O184  1  0.23388102  0.99532740  0.12064037  1
  O  O185  1  0.24453037  0.99833093  0.62883104  1
  O  O186  1  0.73898036  0.50308741  0.13472717  1
  O  O187  1  0.74364114  0.49227393  0.63160698  1
  O  O188  1  0.73345518  1.00864202  0.13984879  1
  O  O189  1  0.76268806  1.00488485  0.63689848  1
  O  O190  1  0.00674686  0.36780057  0.24664365  1
  O  O191  1  0.00851282  0.36520030  0.74737724  1
  O  O192  1  0.00240342  0.86839750  0.25192007  1
  O  O193  1  0.00877556  0.86873038  0.75732005  1
  O  O194  1  0.50347054  0.35906296  0.24644158  1
  O  O195  1  0.50935580  0.36205211  0.74236089  1
  O  O196  1  0.50957614  0.87102694  0.25337665  1
  O  O197  1  0.52830059  0.85451423  0.69947070  1
  O  O198  1  0.48980884  0.13174313  0.24784190  1
  O  O199  1  0.50037951  0.13455311  0.73943397  1
  O  O200  1  0.50724475  0.63557551  0.23556431  1
  O  O201  1  0.48732105  0.60782700  0.73570229  1
  O  O202  1  0.99347234  0.13332212  0.24203280  1
  O  O203  1  0.99914603  0.13340496  0.74511700  1
  O  O204  1  0.98943589  0.62966351  0.23701598  1
  O  O205  1  0.99096448  0.63068208  0.74597503  1
  O  O206  1  0.36185723  0.24544592  -0.00320696  1
  O  O207  1  0.36067104  0.25924556  0.48834296  1
  O  O208  1  0.38680213  0.77337447  0.01054748  1
  O  O209  1  0.37166945  0.74552507  0.51700432  1
  O  O210  1  0.87822027  0.26846341  0.00034338  1
  O  O211  1  0.89864922  0.26221194  0.52231929  1
  O  O212  1  0.86064513  0.74070448  0.00571881  1
  O  O213  1  0.85164605  0.73785068  0.49916501  1
  O  O214  1  0.13318061  0.24810761  0.49284250  1
  O  O215  1  0.12506976  0.24439485  0.99494044  1
  O  O216  1  0.13587842  0.74516894  0.48822169  1
  O  O217  1  0.13105263  0.74381324  1.02176477  1
  O  O218  1  0.61899403  0.25409334  0.48354572  1
  O  O219  1  0.62393036  0.24271531  0.98915048  1
  O  O220  1  0.64051737  0.76543866  0.51325765  1
  O  O221  1  0.62047758  0.73141287  0.99789008  1
  O  O222  1  0.50247240  0.23354364  0.14702035  1
  O  O223  1  0.49590444  0.24518912  0.63831670  1
  O  O224  1  0.49746562  0.74467580  0.12852798  1
  O  O225  1  0.49177977  0.73187756  0.61308193  1
  O  O226  1  0.99976969  0.24229808  0.13499131  1
  O  O227  1  1.00289902  0.24330901  0.63747684  1
  O  O228  1  0.98700314  0.73774276  0.12682657  1
  O  O229  1  1.00745841  0.73475933  0.63782633  1
  O  O230  1  0.00359433  0.26324749  0.36275544  1
  O  O231  1  0.00964983  0.24309382  0.86505039  1
  O  O232  1  -0.01308400  0.75736806  0.36271642  1
  O  O233  1  -0.00308764  0.76105136  0.86251941  1
  O  O234  1  0.50961723  0.24370253  0.36517032  1
  O  O235  1  0.51227743  0.23936320  0.86007180  1
  O  O236  1  0.48642935  0.76975507  0.36472382  1
  O  O237  1  0.48002410  0.76800702  0.86166086  1
  O  O238  1  0.25021125  0.13759473  0.50219784  1
  O  O239  1  0.23830843  0.13678269  0.99932527  1
  O  O240  1  0.24592585  0.61947167  0.49593149  1
  O  O241  1  0.24729895  0.62988699  1.01280495  1
  O  O242  1  0.79589546  0.14402137  0.48428385  1
  O  O243  1  0.73883315  0.12348309  0.99152081  1
  O  O244  1  0.73640329  0.63609690  0.50671860  1
  O  O245  1  0.73276115  0.62325990  0.99745009  1
  O  O246  1  0.25298964  0.36306701  0.01668684  1
  O  O247  1  0.25591696  0.36644071  0.50014190  1
  O  O248  1  0.24820414  0.87505408  0.01175738  1
  O  O249  1  0.25106832  0.87768660  0.52536703  1
  O  O250  1  0.75528421  0.37698018  -0.00025073  1
  O  O251  1  0.74569515  0.36772287  0.51479691  1
  O  O252  1  0.73786349  0.85895383  -0.01625836  1
  O  O253  1  0.76383508  0.86358491  0.51052416  1
  O  O254  1  0.14121880  0.48782902  0.25515976  1
  O  O255  1  0.13078723  0.49252282  0.75115253  1
  O  O256  1  0.11383526  0.99177921  0.24000452  1
  O  O257  1  0.12011706  0.98890698  0.73831135  1
  O  O258  1  0.62642794  0.49247007  0.24381580  1
  O  O259  1  0.63027429  0.48953996  0.74294071  1
  O  O260  1  0.63099796  0.99420192  0.24763110  1
  O  O261  1  0.63548460  1.02572371  0.73012215  1
  O  O262  1  0.37565210  0.01043903  0.26154301  1
  O  O263  1  0.38384477  -0.01100177  0.77031105  1
  O  O264  1  0.36776653  0.49703760  0.26235631  1
  O  O265  1  0.36999790  0.49867350  0.75913349  1
  O  O266  1  0.86732311  0.00280635  0.25257961  1
  O  O267  1  0.88034889  0.01778024  0.75201622  1
  O  O268  1  0.86043018  0.49473437  0.24394865  1
  O  O269  1  0.86986601  0.50209881  0.75847081  1
  O  O270  1  0.11398551  0.36848720  0.36321547  1
  O  O271  1  0.12664972  0.36321996  0.86701104  1
  O  O272  1  0.10823680  0.87829939  0.36133092  1
  O  O273  1  0.12336574  0.88176900  0.86300519  1
  O  O274  1  0.61964517  0.37673186  0.36303968  1
  O  O275  1  0.63061380  0.36436222  0.86284382  1
  O  O276  1  0.61008012  0.88066887  0.36527087  1
  O  O277  1  0.59363226  0.92501350  0.85558553  1
  O  O278  1  0.38747298  0.11563425  0.13834266  1
  O  O279  1  0.39644067  0.12633008  0.61656526  1
  O  O280  1  0.38782902  0.63805386  0.11595453  1
  O  O281  1  0.38241627  0.62839332  0.63079710  1
  O  O282  1  0.88140305  0.12990846  0.13707062  1
  O  O283  1  0.88959487  0.13573726  0.63667448  1
  O  O284  1  0.87786873  0.63462715  0.12787921  1
  O  O285  1  0.89112853  0.60996926  0.64000776  1
  O  O286  1  0.24855794  0.25544685  0.11450235  1
  O  O287  1  0.24012464  0.25409506  0.60883163  1
  O  O288  1  0.26712561  0.76246566  0.12974813  1
  O  O289  1  0.26045871  0.75823297  0.62969043  1
  O  O290  1  0.74203802  0.24192208  0.12865321  1
  O  O291  1  0.76136822  0.25479678  0.62588647  1
  O  O292  1  0.75997353  0.74285496  0.13214419  1
  O  O293  1  0.73943761  0.77026764  0.64408878  1
  O  O294  1  0.23513155  0.25605944  0.38532325  1
  O  O295  1  0.24061132  0.24515986  0.88870516  1
  O  O296  1  0.24612334  0.78543259  0.38014145  1
  O  O297  1  0.26581206  0.76091822  0.85839393  1
  O  O298  1  0.73081933  0.25823455  0.37411428  1
  O  O299  1  0.73461774  0.23573692  0.86253044  1
  O  O300  1  0.73985022  0.75110144  0.38036443  1
  O  O301  1  0.72709529  0.75075535  0.84265096  1
  O  O302  1  0.00579475  0.13045701  0.00926907  1
  O  O303  1  -0.00060144  0.11433544  0.51290341  1
  O  O304  1  -0.00747983  0.61368763  0.00915583  1
  O  O305  1  -0.00309523  0.63004875  0.51688278  1
  O  O306  1  0.50820967  0.13449178  0.01904706  1
  O  O307  1  0.50262205  0.11717320  0.49939460  1
  O  O308  1  0.50938397  0.61663310  0.00973805  1
  O  O309  1  0.49362288  0.60140001  0.51491543  1
  O  O310  1  0.48452697  0.37836743  0.50511690  1
  O  O311  1  0.50340446  0.38467079  1.00617830  1
  O  O312  1  0.50441533  0.88256727  0.48957628  1
  O  O313  1  0.49719305  0.88937826  1.01425576  1
  O  O314  1  1.00880613  0.37479389  0.48527653  1
  O  O315  1  0.98674558  0.39070086  1.00623626  1
  O  O316  1  0.99790664  0.87432634  0.49459761  1
  O  O317  1  0.99661274  0.87395049  0.98103841  1
  O  O318  1  0.48804843  0.49704879  0.38288403  1
  O  O319  1  0.48600172  0.49432195  0.88158689  1
  O  O320  1  0.49509889  0.99339001  0.38403485  1
  O  O321  1  0.47935937  1.03300164  0.88965842  1
  O  O322  1  0.98848694  0.48373979  0.36534821  1
  O  O323  1  0.98838681  0.50478032  0.88812752  1
  O  O324  1  0.99447859  0.98770211  0.38338465  1
  O  O325  1  1.00194880  0.98538261  0.87259256  1
  O  O326  1  0.00661633  0.01343706  0.12449944  1
  O  O327  1  0.00606251  0.00350359  0.62114043  1
  O  O328  1  -0.01152957  0.51031840  0.11219322  1
  O  O329  1  0.01296779  0.50766769  0.63215921  1
  O  O330  1  0.51440227  0.01470483  0.13928106  1
  O  O331  1  0.49953749  0.01017130  0.60865789  1
  O  O332  1  0.50203931  0.50545323  0.11950667  1
  O  O333  1  0.50852969  0.49764812  0.61793097  1
  O  O334  1  0.24373325  0.36708532  0.23847038  1
  O  O335  1  0.23959792  0.38198864  0.74959892  1
  O  O336  1  0.23297645  0.87278517  0.23500081  1
  O  O337  1  0.23733631  0.88310872  0.74111975  1
  O  O338  1  0.73670576  0.38667636  0.24948722  1
  O  O339  1  0.74113501  0.38082503  0.74166863  1
  O  O340  1  0.73838395  0.88435803  0.25463601  1
  O  O341  1  0.74683459  0.90057321  0.74209054  1
  O  O342  1  0.26587065  0.13153247  0.24280391  1
  O  O343  1  0.24359634  0.12536126  0.76432354  1
  O  O344  1  0.24586687  0.61042797  0.23510824  1
  O  O345  1  0.26918292  0.61137115  0.74393629  1
  O  O346  1  0.76098618  0.11346976  0.25516159  1
  O  O347  1  0.76031674  0.12206163  0.75169016  1
  O  O348  1  0.74389316  0.60347461  0.25454683  1
  O  O349  1  0.76596882  0.61203131  0.73713316  1
  O  O350  1  0.37408079  0.11199630  0.36597321  1
  O  O351  1  0.35861362  0.11840843  0.88881450  1
  O  O352  1  0.38441832  0.61266790  0.37973041  1
  O  O353  1  0.38634323  0.62073313  0.85978182  1
  O  O354  1  0.89502319  0.10687893  0.35888380  1
  O  O355  1  0.86408961  0.13627151  0.86769151  1
  O  O356  1  0.88417425  0.60058762  0.36653737  1
  O  O357  1  0.87743213  0.61450002  0.86018924  1
  O  O358  1  0.13162421  0.36976801  0.13496136  1
  O  O359  1  0.12353522  0.38567971  0.63690890  1
  O  O360  1  0.12404411  0.88525894  0.12780232  1
  O  O361  1  0.13342072  0.87895652  0.63293794  1
  O  O362  1  0.62126757  0.38721490  0.13376397  1
  O  O363  1  0.63259716  0.37911538  0.63354413  1
  O  O364  1  0.61915986  0.89098297  0.13360636  1
  O  O365  1  0.65290468  0.90197312  0.61058793  1
  O  O366  1  0.11584564  0.25556103  0.25583237  1
  O  O367  1  0.12092607  0.25757965  0.75740478  1
  O  O368  1  0.10598926  0.76170462  0.24652323  1
  O  O369  1  0.11894269  0.76711859  0.74775607  1
  O  O370  1  0.61404041  0.25545255  0.26228962  1
  O  O371  1  0.61758497  0.25506721  0.75466536  1
  O  O372  1  0.61413766  0.76201873  0.23813498  1
  O  O373  1  0.65410333  0.74363935  0.79808403  1
  O  O374  1  0.38497410  0.23889625  0.26567471  1
  O  O375  1  0.38668198  0.25451958  0.75995870  1
  O  O376  1  0.39201318  0.76224001  0.23213979  1
  O  O377  1  0.37693589  0.72994688  0.73643748  1
  O  O378  1  0.88023786  0.24339898  0.25298413  1
  O  O379  1  0.88598379  0.24527886  0.74637548  1
  O  O380  1  0.88039703  0.75020106  0.23926600  1
  O  O381  1  0.88115470  0.73482225  0.75183465  1
  O  O382  1  0.37781903  0.49102323  0.48923692  1
  O  O383  1  0.38163165  0.50084134  0.98702007  1
  O  O384  1  0.38752905  1.00347193  0.48620669  1
  O  O385  1  0.37113941  0.99425122  0.99945285  1
  O  O386  1  0.86769410  0.50211710  0.49068930  1
  O  O387  1  0.87207737  0.49149565  0.99162123  1
  O  O388  1  0.88846125  0.99903443  0.49246858  1
  O  O389  1  0.87628484  1.00104976  1.01141556  1
  O  O390  1  0.11846345  0.01457587  0.00722434  1
  O  O391  1  0.11190429  -0.00325025  0.51137445  1
  O  O392  1  0.10863387  0.49646614  -0.00686000  1
  O  O393  1  0.13090210  0.49357237  0.51387506  1
  O  O394  1  0.62798262  0.01128283  0.01736369  1
  O  O395  1  0.61480061  0.00229065  0.48748558  1
  O  O396  1  0.61721531  0.50333787  0.00600608  1
  O  O397  1  0.61702400  0.48621656  0.51086397  1
  O  O398  1  0.36715133  0.36525998  0.13334083  1
  O  O399  1  0.36748422  0.38378327  0.60519706  1
  O  O400  1  0.36796811  0.87968633  0.11793762  1
  O  O401  1  0.36815959  0.85943428  0.63736916  1
  O  O402  1  0.86942169  0.37414132  0.11125580  1
  O  O403  1  0.86472747  0.36820091  0.63842707  1
  O  O404  1  0.87986686  0.85574290  0.11619796  1
  O  O405  1  0.86270023  0.87713370  0.63290505  1
  O  O406  1  0.11241633  0.13853847  0.37497346  1
  O  O407  1  0.12964601  0.13216311  0.88424609  1
  O  O408  1  0.10796745  0.62563717  0.37562845  1
  O  O409  1  0.13522903  0.63070644  0.86302738  1
  O  O410  1  0.62785592  0.13443591  0.36793841  1
  O  O411  1  0.62889166  0.12819753  0.88709120  1
  O  O412  1  0.59155311  0.64108824  0.38500596  1
  O  O413  1  0.61525662  0.61187055  0.88821555  1
