# generated using pymatgen
data_V79Zn79O256
_symmetry_space_group_name_H-M   'P 1'
_cell_length_a   16.89847919
_cell_length_b   16.91805968
_cell_length_c   16.92060638
_cell_angle_alpha   90.04539383
_cell_angle_beta   90.13922323
_cell_angle_gamma   90.17924834
_symmetry_Int_Tables_number   1
_chemical_formula_structural   V79Zn79O256
_chemical_formula_sum   'V79 Zn79 O256'
_cell_volume   4837.38384944
_cell_formula_units_Z   1
loop_
 _symmetry_equiv_pos_site_id
 _symmetry_equiv_pos_as_xyz
  1  'x, y, z'
loop_
 _atom_site_type_symbol
 _atom_site_label
 _atom_site_symmetry_multiplicity
 _atom_site_fract_x
 _atom_site_fract_y
 _atom_site_fract_z
 _atom_site_occupancy
  V  V0  1  0.12492087  0.75002907  0.87158471  1
  V  V1  1  0.74955533  0.75485209  0.01328216  1
  V  V2  1  0.00463099  0.13484984  0.11358285  1
  V  V3  1  0.62081580  0.51741606  0.62112362  1
  V  V4  1  0.50248186  0.75645951  0.75149253  1
  V  V5  1  0.12262715  0.37017695  0.74958303  1
  V  V6  1  0.74502346  0.63904145  0.38245508  1
  V  V7  1  0.88032998  -0.00355042  0.87911421  1
  V  V8  1  -0.00979489  0.87838745  0.36494185  1
  V  V9  1  0.10998560  0.48698093  0.60562945  1
  V  V10  1  0.62708853  0.75533514  0.87408825  1
  V  V11  1  0.00191878  0.63708918  0.12393433  1
  V  V12  1  0.37942731  0.49447622  0.87630435  1
  V  V13  1  0.51398110  0.35514919  0.87384950  1
  V  V14  1  0.74145073  0.12790392  0.86946457  1
  V  V15  1  0.11543401  0.38068203  0.26787112  1
  V  V16  1  0.74523195  0.37760520  0.12442133  1
  V  V17  1  0.37870288  0.25034049  0.62059877  1
  V  V18  1  0.12232493  0.24765090  0.87042179  1
  V  V19  1  0.61406878  0.87940926  0.23636369  1
  V  V20  1  0.25097312  0.63881636  0.38132915  1
  V  V21  1  0.88156716  0.49242896  0.38520663  1
  V  V22  1  0.86905495  0.25400029  0.12951335  1
  V  V23  1  0.51147708  -0.00216929  0.00967143  1
  V  V24  1  0.38190706  0.12884504  0.74036663  1
  V  V25  1  0.75264893  0.09025786  0.36982340  1
  V  V26  1  0.62991285  0.12871282  0.01310176  1
  V  V27  1  0.74211480  -0.01006420  0.74714013  1
  V  V28  1  0.25082419  0.62143487  0.87500557  1
  V  V29  1  0.25312071  -0.00289880  0.74648951  1
  V  V30  1  0.62168998  -0.02144048  0.62300090  1
  V  V31  1  0.88672487  0.26475547  0.60906636  1
  V  V32  1  0.25059703  0.49625852  0.74565329  1
  V  V33  1  0.87630020  0.10795499  0.25366734  1
  V  V34  1  0.24823366  0.86767929  0.61783874  1
  V  V35  1  0.49989388  0.49948072  0.00172288  1
  V  V36  1  0.11734980  0.12086842  0.50813718  1
  V  V37  1  0.25167831  0.12753875  0.87290398  1
  V  V38  1  0.12752206  0.63789835  0.50591579  1
  V  V39  1  0.11439423  0.00070240  0.62810772  1
  V  V40  1  0.25054504  0.24112211  0.50151673  1
  V  V41  1  0.24979332  0.24747017  0.00319014  1
  V  V42  1  0.62647353  0.50043301  0.12948986  1
  V  V43  1  0.11987992  0.24106098  0.37714422  1
  V  V44  1  0.35769245  0.00634352  0.37846101  1
  V  V45  1  0.62700126  0.62897421  -0.00203871  1
  V  V46  1  0.25207289  0.75184453  0.00052032  1
  V  V47  1  0.88012176  0.63877132  0.24492586  1
  V  V48  1  0.37565831  0.74500360  0.62486324  1
  V  V49  1  0.50173698  0.63296487  0.12929722  1
  V  V50  1  0.37241455  0.36922362  0.00984042  1
  V  V51  1  0.37590715  0.87558646  -0.00245774  1
  V  V52  1  0.75378949  0.89911193  0.13072513  1
  V  V53  1  0.86883151  0.86444874  0.50976113  1
  V  V54  1  0.37237556  0.86526097  0.49738090  1
  V  V55  1  0.12114998  0.87064141  0.74940164  1
  V  V56  1  0.00146630  0.37713538  0.87709500  1
  V  V57  1  0.37496627  0.75533452  0.12698402  1
  V  V58  1  -0.01538730  0.62858055  0.62263259  1
  V  V59  1  0.11948980  0.48982745  0.11901053  1
  V  V60  1  0.37477708  0.50476896  0.38945039  1
  V  V61  1  0.75422272  0.50235771  0.24796139  1
  V  V62  1  0.89283623  0.12132861  0.74186119  1
  V  V63  1  0.88212508  0.37730400  -0.00127435  1
  V  V64  1  0.38259896  -0.00004502  0.87014082  1
  V  V65  1  0.24961200  0.50512211  0.24767297  1
  V  V66  1  -0.01203533  0.74541151  0.75135244  1
  V  V67  1  0.62825809  0.27359650  0.36848479  1
  V  V68  1  0.49003430  0.38130923  0.37579806  1
  V  V69  1  0.55897350  0.18699968  0.67118768  1
  V  V70  1  0.50099927  0.86515176  0.36421313  1
  V  V71  1  0.75449118  0.48631954  0.75214099  1
  V  V72  1  0.11529162  0.75430715  0.36019700  1
  V  V73  1  0.37828466  0.63063272  0.24889243  1
  V  V74  1  0.50015118  -0.00146075  0.49741024  1
  V  V75  1  0.88536670  0.88041379  0.00469466  1
  V  V76  1  0.38459558  0.62297672  0.74712774  1
  V  V77  1  0.25739194  0.37208692  0.61705183  1
  V  V78  1  0.62659044  0.12259067  0.48840758  1
  Zn  Zn79  1  0.76382895  0.25524762  0.49353436  1
  Zn  Zn80  1  0.78251808  0.62498988  0.85806242  1
  Zn  Zn81  1  -0.01180692  0.00062646  0.49367813  1
  Zn  Zn82  1  0.12235913  0.61868178  -0.00154215  1
  Zn  Zn83  1  0.74154742  0.26197310  -0.01532930  1
  Zn  Zn84  1  0.27959676  0.32434308  0.16447913  1
  Zn  Zn85  1  -0.00952380  0.25771104  0.25982448  1
  Zn  Zn86  1  0.75163191  0.86064522  0.62636045  1
  Zn  Zn87  1  0.47831269  0.13554367  0.12591199  1
  Zn  Zn88  1  0.37599738  0.11261808  0.25382218  1
  Zn  Zn89  1  0.18395431  0.93997754  0.19679124  1
  Zn  Zn90  1  0.51198512  0.88085091  0.86871322  1
  Zn  Zn91  1  0.50455869  0.25271705  0.24146587  1
  Zn  Zn92  1  -0.05337812  0.54261545  -0.06110203  1
  Zn  Zn93  1  0.10167505  0.00081803  0.05969179  1
  Zn  Zn94  1  0.19642841  0.11621000  0.18426243  1
  Zn  Zn95  1  0.18880888  0.18392479  0.68920459  1
  Zn  Zn96  1  0.18829789  0.68832419  0.18679038  1
  Zn  Zn97  1  0.18829335  0.68334446  0.68680559  1
  Zn  Zn98  1  0.69210739  0.18408831  0.19484757  1
  Zn  Zn99  1  0.73400299  0.21227668  0.69991963  1
  Zn  Zn100  1  0.68765509  0.69624770  0.19887015  1
  Zn  Zn101  1  0.67736787  0.66727676  0.69679857  1
  Zn  Zn102  1  0.29918668  0.32425550  0.33079696  1
  Zn  Zn103  1  0.31787709  0.31150057  0.81056542  1
  Zn  Zn104  1  0.30375860  0.82394472  0.30820650  1
  Zn  Zn105  1  0.31256484  0.81216666  0.81018683  1
  Zn  Zn106  1  0.81153012  0.31897846  0.31049416  1
  Zn  Zn107  1  0.82190157  0.31337375  0.80538216  1
  Zn  Zn108  1  0.81316900  0.82022576  0.31045513  1
  Zn  Zn109  1  0.80542228  0.81285397  0.82172787  1
  Zn  Zn110  1  0.05207910  0.44508583  0.44365027  1
  Zn  Zn111  1  0.19022286  0.43197379  0.93758976  1
  Zn  Zn112  1  0.17698412  0.93386733  0.43860729  1
  Zn  Zn113  1  0.19332173  0.93547452  0.93365948  1
  Zn  Zn114  1  0.68413823  0.45520750  0.43706563  1
  Zn  Zn115  1  0.69259558  0.44313114  0.93435622  1
  Zn  Zn116  1  0.68403650  0.92332019  0.43841830  1
  Zn  Zn117  1  0.69503586  0.93890475  0.93937598  1
  Zn  Zn118  1  0.30588715  0.05380748  0.05931011  1
  Zn  Zn119  1  0.30889962  0.05891467  0.56022594  1
  Zn  Zn120  1  0.31104695  0.56183310  0.06376650  1
  Zn  Zn121  1  0.30445406  0.56364562  0.56358785  1
  Zn  Zn122  1  0.81816158  0.06810874  0.06097172  1
  Zn  Zn123  1  0.81141423  0.05515601  0.56096005  1
  Zn  Zn124  1  0.81856022  0.57130953  0.05291787  1
  Zn  Zn125  1  0.80269079  0.55687603  0.56474003  1
  Zn  Zn126  1  0.44020685  0.43964594  0.19098114  1
  Zn  Zn127  1  0.44425660  0.43195710  0.69572510  1
  Zn  Zn128  1  0.41756162  0.95649045  0.18033630  1
  Zn  Zn129  1  0.43921282  0.93452140  0.68211849  1
  Zn  Zn130  1  0.93631168  0.44341560  0.18633002  1
  Zn  Zn131  1  0.93746465  0.43980604  0.68686693  1
  Zn  Zn132  1  0.97531181  0.92726155  0.16838163  1
  Zn  Zn133  1  0.93031172  0.93287197  0.69048125  1
  Zn  Zn134  1  0.06035619  0.06039841  0.30492259  1
  Zn  Zn135  1  0.07409729  0.04541497  0.84398873  1
  Zn  Zn136  1  0.06216910  0.57140848  0.31023845  1
  Zn  Zn137  1  0.06486433  0.56060775  0.79831586  1
  Zn  Zn138  1  0.55715260  0.05534327  0.30423444  1
  Zn  Zn139  1  0.56704995  0.06187431  0.81028164  1
  Zn  Zn140  1  0.56313390  0.56645705  0.31532153  1
  Zn  Zn141  1  0.57261205  0.55543938  0.81172180  1
  Zn  Zn142  1  0.44382764  0.18955171  0.43450392  1
  Zn  Zn143  1  0.43747772  0.18336239  0.94282663  1
  Zn  Zn144  1  0.44798041  0.68581068  0.43676600  1
  Zn  Zn145  1  0.44155127  0.68613375  0.93597856  1
  Zn  Zn146  1  0.93705415  0.18467054  0.43593273  1
  Zn  Zn147  1  0.92996874  0.19391423  0.93128154  1
  Zn  Zn148  1  0.93289526  0.68455508  0.43734410  1
  Zn  Zn149  1  0.94123372  0.70758629  0.94814576  1
  Zn  Zn150  1  0.06620446  0.30463878  0.06396086  1
  Zn  Zn151  1  0.06049733  0.30486247  0.56994607  1
  Zn  Zn152  1  0.07373467  0.81484501  0.06370036  1
  Zn  Zn153  1  0.05178580  0.81135145  0.55956152  1
  Zn  Zn154  1  0.55927370  0.30993188  0.06151883  1
  Zn  Zn155  1  0.55161424  0.35711565  0.57183797  1
  Zn  Zn156  1  0.56397090  0.81757544  0.06373645  1
  Zn  Zn157  1  0.55868200  0.78831850  0.54888186  1
  O  O158  1  0.10134470  0.15840686  0.12924518  1
  O  O159  1  0.12902750  0.11300891  0.62137468  1
  O  O160  1  0.11487070  0.61545584  0.12755678  1
  O  O161  1  0.12710967  0.61553769  0.61822894  1
  O  O162  1  0.63568720  0.12140033  0.11284729  1
  O  O163  1  0.61546104  0.12634278  0.60881450  1
  O  O164  1  0.61630504  0.62416943  0.12174646  1
  O  O165  1  0.59819563  0.61484909  0.63154118  1
  O  O166  1  0.37507075  0.39577030  0.37631941  1
  O  O167  1  0.38009103  0.38270816  0.88412958  1
  O  O168  1  0.37370104  0.88132816  0.38469070  1
  O  O169  1  0.37575859  0.88446427  0.87998401  1
  O  O170  1  0.87633282  0.39278727  0.36804690  1
  O  O171  1  0.89045302  0.36414435  0.88376651  1
  O  O172  1  0.88588891  0.87041465  0.38416508  1
  O  O173  1  0.85934877  0.88922710  0.89072703  1
  O  O174  1  0.25905996  -0.00152606  0.39400663  1
  O  O175  1  0.26664825  0.00732200  0.86673799  1
  O  O176  1  0.26656663  0.51729285  0.36356535  1
  O  O177  1  0.25875238  0.50346195  0.87003402  1
  O  O178  1  0.75584514  -0.00728432  0.37225300  1
  O  O179  1  0.75246548  0.00770091  0.86583826  1
  O  O180  1  0.75968887  0.50624763  0.36340889  1
  O  O181  1  0.74314388  0.50961185  0.86020306  1
  O  O182  1  0.23667645  0.51359723  0.13949762  1
  O  O183  1  0.24475090  0.48833741  0.62677402  1
  O  O184  1  0.20901550  1.02398825  0.10662558  1
  O  O185  1  0.24282192  0.98811496  0.62961474  1
  O  O186  1  0.74500198  0.49782203  0.12721483  1
  O  O187  1  0.73339011  0.50544922  0.63688901  1
  O  O188  1  0.74986142  0.99762206  0.12319120  1
  O  O189  1  0.73563957  0.99779572  0.63183701  1
  O  O190  1  0.01344338  0.37754331  0.24734160  1
  O  O191  1  0.01500732  0.37822248  0.75740740  1
  O  O192  1  -0.01404546  0.86946422  0.26558384  1
  O  O193  1  0.01343084  0.86008050  0.74380218  1
  O  O194  1  0.48338626  0.36692417  0.26440434  1
  O  O195  1  0.49682071  0.37029789  0.77586979  1
  O  O196  1  0.50376847  0.88606139  0.25308151  1
  O  O197  1  0.49411736  0.86265523  0.75352424  1
  O  O198  1  0.49239161  0.13123545  0.24923684  1
  O  O199  1  0.50066004  0.12867012  0.73896968  1
  O  O200  1  0.49162419  0.62129042  0.23910226  1
  O  O201  1  0.48747587  0.63108450  0.76018446  1
  O  O202  1  0.98453523  0.13530080  0.24896983  1
  O  O203  1  0.98846802  0.11589955  0.76605897  1
  O  O204  1  0.98976612  0.62364765  0.23785436  1
  O  O205  1  0.99997971  0.63846546  0.74356668  1
  O  O206  1  0.36403169  0.25733520  -0.00406227  1
  O  O207  1  0.36765347  0.23775544  0.51174956  1
  O  O208  1  0.37107226  0.75606811  0.00241363  1
  O  O209  1  0.37756460  0.75767338  0.50954604  1
  O  O210  1  0.86493488  0.25955958  0.01077479  1
  O  O211  1  0.88358256  0.26062793  0.50031285  1
  O  O212  1  0.86159388  0.77358521  -0.00278234  1
  O  O213  1  0.88050460  0.76350435  0.49940536  1
  O  O214  1  0.12813081  0.24068566  0.49888770  1
  O  O215  1  0.14051563  0.25547836  0.98395289  1
  O  O216  1  0.12412617  0.74176932  0.49672714  1
  O  O217  1  0.13621385  0.74992123  0.98981451  1
  O  O218  1  0.62055871  0.22901428  0.47121635  1
  O  O219  1  0.62783743  0.23273209  1.00192281  1
  O  O220  1  0.68012119  0.74239003  0.53939226  1
  O  O221  1  0.62906660  0.74706430  0.99628288  1
  O  O222  1  0.49517989  0.24741287  0.12758484  1
  O  O223  1  0.49958108  0.25554424  0.61773634  1
  O  O224  1  0.48906510  0.74274702  0.11696898  1
  O  O225  1  0.48294600  0.75602450  0.63846472  1
  O  O226  1  0.98234242  0.25314425  0.13166684  1
  O  O227  1  0.98535931  0.23958638  0.62318438  1
  O  O228  1  1.00868987  0.73574432  0.12199922  1
  O  O229  1  1.00310511  0.73969375  0.64036056  1
  O  O230  1  0.01532335  0.25431061  0.37977812  1
  O  O231  1  0.01435258  0.25764628  0.87617357  1
  O  O232  1  0.01082623  0.75352591  0.37699991  1
  O  O233  1  0.01507866  0.74288457  0.86510385  1
  O  O234  1  0.50650021  0.26324891  0.36928555  1
  O  O235  1  0.50117764  0.25571215  0.88441517  1
  O  O236  1  0.47767352  0.76901024  0.35877643  1
  O  O237  1  0.50659869  0.75421914  0.87011504  1
  O  O238  1  0.23664371  0.13351888  0.50668808  1
  O  O239  1  0.26571292  0.13614166  0.98075648  1
  O  O240  1  0.24389605  0.62733514  0.48913766  1
  O  O241  1  0.25081667  0.63103372  0.98820035  1
  O  O242  1  0.74533160  0.11717838  0.47947707  1
  O  O243  1  0.74010617  0.11993060  0.98805147  1
  O  O244  1  0.76286806  0.62443079  0.48012268  1
  O  O245  1  0.73369933  0.63708373  1.01281344  1
  O  O246  1  0.25895782  0.35943555  -0.00454381  1
  O  O247  1  0.25020604  0.36029403  0.51664959  1
  O  O248  1  0.26226621  0.86401029  -0.00791475  1
  O  O249  1  0.25613012  0.87594905  0.51107500  1
  O  O250  1  0.75839928  0.37686752  0.00742497  1
  O  O251  1  0.71132129  0.36273294  0.51552762  1
  O  O252  1  0.75182456  0.87430110  0.01566921  1
  O  O253  1  0.76226954  0.87276660  0.50195840  1
  O  O254  1  0.12935666  0.49487567  0.24736696  1
  O  O255  1  0.13365759  0.48890772  0.73714521  1
  O  O256  1  0.15527112  1.03397081  0.25531873  1
  O  O257  1  0.13229505  0.98816771  0.74856417  1
  O  O258  1  0.63543548  0.50966963  0.23548840  1
  O  O259  1  0.63483844  0.50079490  0.73818832  1
  O  O260  1  0.63035678  0.97800586  0.26229718  1
  O  O261  1  0.62888988  1.00014099  0.73599712  1
  O  O262  1  0.36589296  -0.00873985  0.27653790  1
  O  O263  1  0.37656255  0.00675084  0.75179722  1
  O  O264  1  0.36696635  0.51597051  0.24749876  1
  O  O265  1  0.37288988  0.50425916  0.75669664  1
  O  O266  1  0.88429501  0.01238689  0.24354912  1
  O  O267  1  0.86449346  0.00298065  0.76056033  1
  O  O268  1  0.86718609  0.50901909  0.25247388  1
  O  O269  1  0.85712496  0.49516092  0.74403059  1
  O  O270  1  0.11873870  0.38239795  0.37031515  1
  O  O271  1  0.12306314  0.36750438  0.86773606  1
  O  O272  1  0.11581833  0.85973864  0.37765487  1
  O  O273  1  0.13914236  0.85896598  0.86022426  1
  O  O274  1  0.61185080  0.37795182  0.37186234  1
  O  O275  1  0.61190617  0.37346946  0.89324642  1
  O  O276  1  0.60425139  0.86890637  0.37489834  1
  O  O277  1  0.62981545  0.86074538  0.88057860  1
  O  O278  1  0.38265936  0.07156292  0.14029279  1
  O  O279  1  0.37367798  0.13043756  0.63184187  1
  O  O280  1  0.38250381  0.63277603  0.12852803  1
  O  O281  1  0.36540063  0.63179090  0.63682369  1
  O  O282  1  0.87435082  0.13589345  0.13697817  1
  O  O283  1  0.88363521  0.10174365  0.64283011  1
  O  O284  1  0.89025454  0.61961973  0.13204366  1
  O  O285  1  0.88696353  0.62180700  0.61855373  1
  O  O286  1  0.24119589  0.23577793  0.10262235  1
  O  O287  1  0.25913145  0.25244800  0.62114154  1
  O  O288  1  0.26095992  0.73719725  0.10806356  1
  O  O289  1  0.26157501  0.75808693  0.63396842  1
  O  O290  1  0.75273595  0.26251054  0.12861715  1
  O  O291  1  0.78251167  0.22282761  0.60255711  1
  O  O292  1  0.74656839  0.75936236  0.11565665  1
  O  O293  1  0.72121959  0.74174484  0.60546693  1
  O  O294  1  0.23198802  0.26159314  0.39554062  1
  O  O295  1  0.24738191  0.24362693  0.87636416  1
  O  O296  1  0.23940683  0.74401803  0.36997012  1
  O  O297  1  0.24775147  0.73965044  0.87987858  1
  O  O298  1  0.73539713  0.26792499  0.38018819  1
  O  O299  1  0.75947302  0.23133346  0.87081453  1
  O  O300  1  0.75575443  0.73805071  0.36616417  1
  O  O301  1  0.74110766  0.74381859  0.88807270  1
  O  O302  1  -0.00945550  0.14336459  0.01382780  1
  O  O303  1  0.01315663  0.11748381  0.49359687  1
  O  O304  1  0.00487021  0.62429343  0.01192656  1
  O  O305  1  0.00781992  0.63252655  0.51733808  1
  O  O306  1  0.51063370  0.11322800  0.00379879  1
  O  O307  1  0.51294056  0.10850428  0.48439927  1
  O  O308  1  0.50504715  0.62070057  0.01112720  1
  O  O309  1  0.53981991  0.69079904  0.49515555  1
  O  O310  1  0.49346306  0.37208040  0.47586694  1
  O  O311  1  0.48906784  0.38023476  0.99432704  1
  O  O312  1  0.49035485  0.87623007  0.48740092  1
  O  O313  1  0.49650981  0.88564938  0.99101947  1
  O  O314  1  1.03522826  0.41294076  0.54909510  1
  O  O315  1  0.99562159  0.36700461  0.99108037  1
  O  O316  1  0.98990603  0.87767740  0.49246767  1
  O  O317  1  0.98380612  0.86845939  1.00196029  1
  O  O318  1  0.48541799  0.49568370  0.36548985  1
  O  O319  1  0.49103396  0.49990562  0.88285525  1
  O  O320  1  0.48859130  0.98693995  0.38408818  1
  O  O321  1  0.49337137  1.00173785  0.87707453  1
  O  O322  1  0.98867476  0.50998144  0.37513604  1
  O  O323  1  1.01481226  0.48566305  0.87244175  1
  O  O324  1  1.01087294  0.98241045  0.37402233  1
  O  O325  1  0.97737957  0.98957107  0.86620029  1
  O  O326  1  0.00168256  0.03077323  0.12188984  1
  O  O327  1  0.01427735  -0.01133845  0.63096159  1
  O  O328  1  0.01605469  0.50476229  0.12651882  1
  O  O329  1  0.00958806  0.52259401  0.64424779  1
  O  O330  1  0.51082903  -0.01008662  0.10816845  1
  O  O331  1  0.50684805  -0.00934107  0.60843261  1
  O  O332  1  0.50750326  0.50844591  0.12162438  1
  O  O333  1  0.52922363  0.45658348  0.62702301  1
  O  O334  1  0.23736273  0.38966452  0.25281629  1
  O  O335  1  0.24696447  0.37988166  0.74616997  1
  O  O336  1  0.25685571  0.86114396  0.21753499  1
  O  O337  1  0.24489452  0.87739753  0.73971157  1
  O  O338  1  0.75327580  0.39011933  0.23491802  1
  O  O339  1  0.74708577  0.38297984  0.75678405  1
  O  O340  1  0.75071014  0.87729693  0.23224441  1
  O  O341  1  0.75431896  0.88476491  0.74590853  1
  O  O342  1  0.27731905  0.17280179  0.25683968  1
  O  O343  1  0.26391762  0.11759959  0.75408044  1
  O  O344  1  0.25778573  0.62385916  0.25938560  1
  O  O345  1  0.25918895  0.61763072  0.75952390  1
  O  O346  1  0.76141042  0.12011295  0.26222321  1
  O  O347  1  0.75531753  0.11166373  0.76090186  1
  O  O348  1  0.76321729  0.61941797  0.24620604  1
  O  O349  1  0.75874536  0.61765329  0.74982088  1
  O  O350  1  0.37664776  0.10876047  0.38311071  1
  O  O351  1  0.37540105  0.11854352  0.86183241  1
  O  O352  1  0.37482328  0.62393467  0.36924245  1
  O  O353  1  0.36876096  0.61511319  0.87050508  1
  O  O354  1  0.86398396  0.12350398  0.36538553  1
  O  O355  1  0.86553299  0.11307176  0.87107689  1
  O  O356  1  0.87118121  0.61818482  0.35885157  1
  O  O357  1  0.86804535  0.62192362  0.92939108  1
  O  O358  1  0.12627227  0.38486281  0.13444266  1
  O  O359  1  0.14088561  0.37317132  0.63670698  1
  O  O360  1  0.08963977  0.90327010  0.12875247  1
  O  O361  1  0.13193822  0.87703294  0.63100425  1
  O  O362  1  0.63346921  0.38863316  0.11349809  1
  O  O363  1  0.66844826  0.35822821  0.58432023  1
  O  O364  1  0.63500265  0.88252697  0.12953173  1
  O  O365  1  0.62471717  0.87688002  0.61108856  1
  O  O366  1  0.12859287  0.26880752  0.27118211  1
  O  O367  1  0.13599301  0.26095096  0.75691960  1
  O  O368  1  0.12125814  0.74438966  0.26098486  1
  O  O369  1  0.12376297  0.75259417  0.75557006  1
  O  O370  1  0.62729045  0.24592005  0.26873276  1
  O  O371  1  0.62579368  0.23755738  0.72566449  1
  O  O372  1  0.62659939  0.77633692  0.24757745  1
  O  O373  1  0.61261507  0.74094515  0.76199355  1
  O  O374  1  0.32595372  0.24642157  0.24429574  1
  O  O375  1  0.37456459  0.23789067  0.73850385  1
  O  O376  1  0.36851063  0.73933157  0.23720507  1
  O  O377  1  0.38074120  0.74104099  0.74787902  1
  O  O378  1  0.87099874  0.24963951  0.24216684  1
  O  O379  1  0.86375046  0.22889207  0.73473801  1
  O  O380  1  0.87246932  0.73647109  0.24678448  1
  O  O381  1  0.89051004  0.75800580  0.76460792  1
  O  O382  1  0.37680730  0.51469095  0.48759997  1
  O  O383  1  0.37667951  0.49323773  0.99414090  1
  O  O384  1  0.38112122  0.98844936  0.49861138  1
  O  O385  1  0.38720459  0.99406311  0.98908815  1
  O  O386  1  0.86807841  0.50073175  0.48375108  1
  O  O387  1  0.87807931  0.48066633  1.01072282  1
  O  O388  1  0.87682869  0.98155120  0.50571780  1
  O  O389  1  0.87165551  0.99567099  0.98875952  1
  O  O390  1  0.11454646  0.00982677  -0.05031219  1
  O  O391  1  0.12383007  0.00573696  0.51267826  1
  O  O392  1  0.13615651  0.49818195  0.01545520  1
  O  O393  1  0.12842258  0.52010091  0.50546606  1
  O  O394  1  0.61501199  0.00872347  -0.01049193  1
  O  O395  1  0.62062832  0.00281850  0.50522318  1
  O  O396  1  0.62134990  0.51232081  0.01026668  1
  O  O397  1  0.63044054  0.50768074  0.51858192  1
  O  O398  1  0.36802618  0.38339757  0.11513711  1
  O  O399  1  0.37026950  0.36030101  0.63554513  1
  O  O400  1  0.38506919  0.86815305  0.10722372  1
  O  O401  1  0.36690937  0.86731646  0.61746466  1
  O  O402  1  0.86737946  0.37082886  0.12045018  1
  O  O403  1  0.87822447  0.36243776  0.62747607  1
  O  O404  1  0.86840608  0.89117273  0.11255863  1
  O  O405  1  0.87073489  0.86749931  0.61842327  1
  O  O406  1  0.12352038  0.13928532  0.38354402  1
  O  O407  1  0.14317767  0.13747497  0.85619351  1
  O  O408  1  0.13036447  0.63613834  0.38185844  1
  O  O409  1  0.13633991  0.62924843  0.87221394  1
  O  O410  1  0.64304583  0.10934802  0.37355475  1
  O  O411  1  0.63781796  0.12310506  0.87823976  1
  O  O412  1  0.64540033  0.62018120  0.36631891  1
  O  O413  1  0.61601740  0.63496596  0.89092940  1
