# generated using pymatgen
data_V79Zn79O256
_symmetry_space_group_name_H-M   'P 1'
_cell_length_a   16.85918934
_cell_length_b   16.84791862
_cell_length_c   16.86272320
_cell_angle_alpha   89.97173757
_cell_angle_beta   89.94074385
_cell_angle_gamma   89.99355958
_symmetry_Int_Tables_number   1
_chemical_formula_structural   V79Zn79O256
_chemical_formula_sum   'V79 Zn79 O256'
_cell_volume   4789.72266525
_cell_formula_units_Z   1
loop_
 _symmetry_equiv_pos_site_id
 _symmetry_equiv_pos_as_xyz
  1  'x, y, z'
loop_
 _atom_site_type_symbol
 _atom_site_label
 _atom_site_symmetry_multiplicity
 _atom_site_fract_x
 _atom_site_fract_y
 _atom_site_fract_z
 _atom_site_occupancy
  V  V0  1  0.37144711  0.37750754  0.51597480  1
  V  V1  1  0.37642613  0.00161483  0.36916306  1
  V  V2  1  0.00277832  0.38805179  0.37212656  1
  V  V3  1  0.87025313  0.87890271  0.00292923  1
  V  V4  1  -0.01029967  0.00170983  0.50647604  1
  V  V5  1  0.86920538  0.63270209  0.76166033  1
  V  V6  1  -0.01403900  0.88405282  0.38047370  1
  V  V7  1  0.38099359  0.75146490  0.65241459  1
  V  V8  1  0.62517692  0.86532138  0.25005570  1
  V  V9  1  0.50879616  0.50208991  0.50428434  1
  V  V10  1  0.12640799  0.12735977  0.50057804  1
  V  V11  1  0.85692407  0.00731983  0.87491856  1
  V  V12  1  0.49709377  0.62200271  0.10371067  1
  V  V13  1  -0.00153382  0.62567035  0.12914583  1
  V  V14  1  0.50245620  0.86898594  0.37411859  1
  V  V15  1  0.74372978  0.73716082  -0.01586800  1
  V  V16  1  0.87674202  0.38019620  0.49292557  1
  V  V17  1  0.50584478  0.85787777  0.86959837  1
  V  V18  1  0.74542898  0.37513325  0.12462694  1
  V  V19  1  0.75245911  0.11786293  0.37338172  1
  V  V20  1  0.00260903  0.49949859  0.00094017  1
  V  V21  1  0.62762221  0.00417094  0.63703485  1
  V  V22  1  0.87280242  0.75338421  0.61127999  1
  V  V23  1  0.25482275  -0.00406980  0.24350881  1
  V  V24  1  0.87314367  0.50802857  0.87758689  1
  V  V25  1  0.62688713  0.25472693  0.87006588  1
  V  V26  1  0.24848218  0.49315672  0.73747312  1
  V  V27  1  0.24978887  0.37060475  0.12113227  1
  V  V28  1  0.24354091  0.61534897  0.87516692  1
  V  V29  1  -0.00279289  0.88868792  0.87688226  1
  V  V30  1  0.25315669  0.13574703  0.36639125  1
  V  V31  1  0.62597383  0.64159434  0.50254336  1
  V  V32  1  0.11419273  0.38793432  0.72667390  1
  V  V33  1  0.13057862  0.87374153  0.24885829  1
  V  V34  1  0.50465609  -0.00090777  0.49975292  1
  V  V35  1  0.62947235  -0.00892335  0.12418717  1
  V  V36  1  0.74252682  0.49388113  0.26139201  1
  V  V37  1  0.63212442  0.12648073  -0.00103365  1
  V  V38  1  -0.00014033  0.75791636  0.74954169  1
  V  V39  1  0.75249786  0.87639102  0.61310432  1
  V  V40  1  0.38653535  0.01183993  0.85510501  1
  V  V41  1  0.37355226  0.24247815  0.12924205  1
  V  V42  1  0.84868195  0.12500859  0.74818924  1
  V  V43  1  0.49339850  0.13615224  0.62727212  1
  V  V44  1  0.49911305  -0.00708779  -0.00397643  1
  V  V45  1  0.37295979  0.49830757  0.88426418  1
  V  V46  1  -0.00175296  0.75121667  0.25377489  1
  V  V47  1  0.14212883  -0.00088338  0.62373656  1
  V  V48  1  0.25447535  0.75782714  0.50859430  1
  V  V49  1  0.00177050  0.49869002  0.51529651  1
  V  V50  1  0.87983020  0.11661829  0.25222065  1
  V  V51  1  0.12388953  0.62350185  0.51197338  1
  V  V52  1  0.74453045  0.64087767  0.37899660  1
  V  V53  1  0.50574161  0.24915375  0.25015454  1
  V  V54  1  0.12786479  0.63210533  0.00550787  1
  V  V55  1  0.25336998  0.25363787  0.51915397  1
  V  V56  1  0.75124263  0.24908523  0.49456675  1
  V  V57  1  0.49774985  0.36891180  0.85929482  1
  V  V58  1  0.63098623  0.85118256  0.75318357  1
  V  V59  1  0.12003804  0.00192330  0.11818319  1
  V  V60  1  0.86460209  0.75452197  0.12713714  1
  V  V61  1  0.12548763  0.75229815  0.38126809  1
  V  V62  1  0.75322972  -0.00855481  0.24869294  1
  V  V63  1  0.62321340  0.50302271  0.11351910  1
  V  V64  1  0.38972373  0.37111610  0.00614490  1
  V  V65  1  0.00574727  0.24008179  0.74807269  1
  V  V66  1  0.49102615  0.73697229  0.25050956  1
  V  V67  1  0.36713243  0.50036428  0.36272616  1
  V  V68  1  0.87803926  0.24336374  0.61959963  1
  V  V69  1  0.87526610  0.25026934  0.12564503  1
  V  V70  1  0.13162307  0.75747267  0.88074427  1
  V  V71  1  0.14027750  0.88084203  0.74460567  1
  V  V72  1  0.49713092  0.11956094  0.13208280  1
  V  V73  1  0.00436972  0.37550714  0.87160461  1
  V  V74  1  0.12918021  0.49604601  0.12814164  1
  V  V75  1  0.00467186  0.24604694  0.25882655  1
  V  V76  1  0.87474238  0.61824959  0.25787922  1
  V  V77  1  0.50383143  0.37327387  0.36909383  1
  V  V78  1  0.12987692  0.36847046  0.25244634  1
  Zn  Zn79  1  0.50531806  0.63413525  0.64517160  1
  Zn  Zn80  1  0.75262855  0.24914332  -0.00466355  1
  Zn  Zn81  1  0.25596164  0.62294376  0.37135118  1
  Zn  Zn82  1  0.33232088  0.86797568  0.01140419  1
  Zn  Zn83  1  0.00057928  0.61765623  0.63392902  1
  Zn  Zn84  1  0.73398315  0.38986058  0.62578525  1
  Zn  Zn85  1  0.63051148  0.25339386  0.36704454  1
  Zn  Zn86  1  0.35236938  0.74859916  0.11924742  1
  Zn  Zn87  1  0.20987840  0.16892415  0.90267629  1
  Zn  Zn88  1  0.00476812  0.12463074  0.11180983  1
  Zn  Zn89  1  0.37155897  0.87696138  0.50819813  1
  Zn  Zn90  1  0.37327469  0.14385938  0.74673275  1
  Zn  Zn91  1  0.62424104  0.12655335  0.49661983  1
  Zn  Zn92  1  0.87584170  0.37524698  -0.00065004  1
  Zn  Zn93  1  0.74129392  0.50345551  0.74048554  1
  Zn  Zn94  1  0.18962273  0.18382549  0.18160699  1
  Zn  Zn95  1  0.18466029  0.18077844  0.69208392  1
  Zn  Zn96  1  0.19721897  0.67557670  0.20200722  1
  Zn  Zn97  1  0.19432117  0.68889513  0.69242821  1
  Zn  Zn98  1  0.68799026  0.18209400  0.18634366  1
  Zn  Zn99  1  0.66179615  0.22003042  0.66634492  1
  Zn  Zn100  1  0.68390191  0.68237207  0.18622753  1
  Zn  Zn101  1  0.69310938  0.68271146  0.68045694  1
  Zn  Zn102  1  0.31973303  0.31784716  0.30934652  1
  Zn  Zn103  1  0.28662727  0.28537964  0.79247952  1
  Zn  Zn104  1  0.31541408  0.81103042  0.31380192  1
  Zn  Zn105  1  0.30654218  0.82649879  0.84268146  1
  Zn  Zn106  1  0.81807286  0.31089764  0.31090098  1
  Zn  Zn107  1  0.81160498  0.31959941  0.81163614  1
  Zn  Zn108  1  0.81273638  0.81240650  0.31504779  1
  Zn  Zn109  1  0.80847017  0.81837004  0.81187653  1
  Zn  Zn110  1  0.18418449  0.43481977  0.44196329  1
  Zn  Zn111  1  0.20987988  0.38950733  0.91285071  1
  Zn  Zn112  1  0.18685569  0.94011498  0.43461045  1
  Zn  Zn113  1  0.19115748  0.97262914  0.92045622  1
  Zn  Zn114  1  0.68907592  0.43666645  0.43857729  1
  Zn  Zn115  1  0.66386309  0.46706204  0.91050809  1
  Zn  Zn116  1  0.68726198  0.93455301  0.43537500  1
  Zn  Zn117  1  0.68519417  0.92869766  0.93892448  1
  Zn  Zn118  1  0.31175612  0.06026775  0.05423346  1
  Zn  Zn119  1  0.31736524  0.06404554  0.55683402  1
  Zn  Zn120  1  0.30995741  0.56224868  0.06560419  1
  Zn  Zn121  1  0.31925290  0.57234440  0.55742189  1
  Zn  Zn122  1  0.81472568  0.06072014  0.06465507  1
  Zn  Zn123  1  0.80937891  0.06395152  0.56634267  1
  Zn  Zn124  1  0.81118502  0.56313084  0.06631855  1
  Zn  Zn125  1  0.81458560  0.56403632  0.56184438  1
  Zn  Zn126  1  0.44210791  0.43846691  0.18736107  1
  Zn  Zn127  1  0.45040862  0.47380895  0.70789559  1
  Zn  Zn128  1  0.43577172  0.92892893  0.18286298  1
  Zn  Zn129  1  0.44295324  0.92975665  0.68606119  1
  Zn  Zn130  1  0.93738453  0.43638874  0.19033160  1
  Zn  Zn131  1  0.90783098  0.42892007  0.69374130  1
  Zn  Zn132  1  0.94347819  0.93604183  0.18606892  1
  Zn  Zn133  1  0.93463277  0.94525215  0.68757023  1
  Zn  Zn134  1  0.06888279  0.06125459  0.31486311  1
  Zn  Zn135  1  0.06663789  0.06186598  0.81547415  1
  Zn  Zn136  1  0.08215173  0.56735496  0.31077260  1
  Zn  Zn137  1  0.06162903  0.56459445  0.81182469  1
  Zn  Zn138  1  0.56699298  0.06021879  0.31222361  1
  Zn  Zn139  1  0.56245718  0.07284604  0.81202070  1
  Zn  Zn140  1  0.56441445  0.55818040  0.31805303  1
  Zn  Zn141  1  0.53855802  0.59144822  0.82578387  1
  Zn  Zn142  1  0.43432404  0.18940591  0.44044448  1
  Zn  Zn143  1  0.44018910  0.18696845  0.94445175  1
  Zn  Zn144  1  0.43702909  0.68348950  0.43509402  1
  Zn  Zn145  1  0.42678601  0.69057226  0.93869851  1
  Zn  Zn146  1  0.94042040  0.18349541  0.43310655  1
  Zn  Zn147  1  0.93502669  0.18961299  0.93016953  1
  Zn  Zn148  1  0.94300000  0.68116578  0.43571049  1
  Zn  Zn149  1  0.94183078  0.69645830  0.94193428  1
  Zn  Zn150  1  0.06099605  0.30579055  0.06052050  1
  Zn  Zn151  1  0.05884283  0.30648126  0.55826558  1
  Zn  Zn152  1  0.05906840  0.81718999  0.06397776  1
  Zn  Zn153  1  0.06150200  0.81799400  0.56377481  1
  Zn  Zn154  1  0.56767466  0.31237038  0.06749968  1
  Zn  Zn155  1  0.56178955  0.32307106  0.56172141  1
  Zn  Zn156  1  0.55991321  0.80557275  0.06131334  1
  Zn  Zn157  1  0.55759237  0.81434119  0.56982644  1
  O  O158  1  0.12505705  0.10781852  0.12858299  1
  O  O159  1  0.13020808  0.11126182  0.61632387  1
  O  O160  1  0.11691213  0.61464530  0.12123417  1
  O  O161  1  0.12001412  0.63723589  0.61665950  1
  O  O162  1  0.61795780  0.11257007  0.12050636  1
  O  O163  1  0.61750526  0.11955400  0.61695979  1
  O  O164  1  0.61567987  0.61180159  0.12769861  1
  O  O165  1  0.62204530  0.62843201  0.60785880  1
  O  O166  1  0.38499092  0.38219786  0.38155655  1
  O  O167  1  0.38384771  0.37461973  0.89407586  1
  O  O168  1  0.38661743  0.88336653  0.37670793  1
  O  O169  1  0.40376226  0.89009278  0.86304973  1
  O  O170  1  0.88845165  0.36947306  0.38298768  1
  O  O171  1  0.88906605  0.38641150  0.87793423  1
  O  O172  1  0.88647284  0.87739137  0.37415436  1
  O  O173  1  0.87761208  0.88890111  0.87773685  1
  O  O174  1  0.25970503  0.00483256  0.36840126  1
  O  O175  1  0.28886521  0.00676780  0.86631083  1
  O  O176  1  0.26581990  0.49086359  0.38254981  1
  O  O177  1  0.25083716  0.49744631  0.87405020  1
  O  O178  1  0.74620515  0.00620141  0.36317036  1
  O  O179  1  0.75813174  -0.00268681  0.87365177  1
  O  O180  1  0.74918433  0.50335569  0.36397415  1
  O  O181  1  0.77424735  0.49249481  0.88329416  1
  O  O182  1  0.23624141  0.49107443  0.12362322  1
  O  O183  1  0.26326941  0.50743033  0.64039364  1
  O  O184  1  0.24685652  1.00441379  0.13824031  1
  O  O185  1  0.24173447  0.99852307  0.61873580  1
  O  O186  1  0.74070961  0.49709407  0.13524349  1
  O  O187  1  0.74435329  0.50423197  0.62456354  1
  O  O188  1  0.74038806  1.00192369  0.13542657  1
  O  O189  1  0.74190356  0.98692947  0.61948178  1
  O  O190  1  0.00383152  0.36580862  0.25633266  1
  O  O191  1  0.00190701  0.37460758  0.75015755  1
  O  O192  1  0.00624813  0.87356829  0.26470557  1
  O  O193  1  -0.00295528  0.87057783  0.75693037  1
  O  O194  1  0.49699795  0.36408513  0.25813067  1
  O  O195  1  0.49433180  0.37730416  0.76064176  1
  O  O196  1  0.50649521  0.86522599  0.25541537  1
  O  O197  1  0.52061315  0.87538213  0.75818376  1
  O  O198  1  0.50413723  0.12751215  0.23970392  1
  O  O199  1  0.50600906  0.13184131  0.72918096  1
  O  O200  1  0.50473826  0.63676005  0.25666504  1
  O  O201  1  0.47455691  0.58427586  0.74045580  1
  O  O202  1  0.99480244  0.12879271  0.25499715  1
  O  O203  1  1.00780796  0.13933975  0.75472999  1
  O  O204  1  0.99274191  0.62933078  0.25104032  1
  O  O205  1  0.99831442  0.64318241  0.74957672  1
  O  O206  1  0.38418986  0.26216856  0.01457860  1
  O  O207  1  0.36351161  0.26299622  0.49848040  1
  O  O208  1  0.36275845  0.75438617  0.00050792  1
  O  O209  1  0.35833126  0.75059601  0.48894994  1
  O  O210  1  0.87307183  0.24897079  0.01164158  1
  O  O211  1  0.87367709  0.25099515  0.50056119  1
  O  O212  1  0.86773171  0.75639849  0.00847155  1
  O  O213  1  0.88181384  0.74727535  0.51307937  1
  O  O214  1  0.13893358  0.24092353  0.50573309  1
  O  O215  1  0.08728567  0.21460358  0.99150712  1
  O  O216  1  0.13451322  0.75026315  0.50070235  1
  O  O217  1  0.11642900  0.74392880  0.99195916  1
  O  O218  1  0.64269913  0.24870783  0.49256345  1
  O  O219  1  0.62757493  0.24183430  0.99963752  1
  O  O220  1  0.61610174  0.74042634  0.49776397  1
  O  O221  1  0.64620024  0.75585846  1.00613551  1
  O  O222  1  0.49670121  0.24037063  0.13134045  1
  O  O223  1  0.49990826  0.23290188  0.60208212  1
  O  O224  1  0.50414117  0.73155578  0.13412932  1
  O  O225  1  0.48935568  0.75063567  0.63658610  1
  O  O226  1  0.98999939  0.24834433  0.13760120  1
  O  O227  1  0.98826303  0.24885709  0.63374479  1
  O  O228  1  0.99264683  0.74466937  0.13376468  1
  O  O229  1  0.98621123  0.76188256  0.63440801  1
  O  O230  1  0.00053565  0.25726960  0.36409753  1
  O  O231  1  -0.01074772  0.26206310  0.85465350  1
  O  O232  1  0.00290632  0.76541510  0.37603819  1
  O  O233  1  0.01132574  0.76089238  0.86740989  1
  O  O234  1  0.49812779  0.25394400  0.36705495  1
  O  O235  1  0.50600595  0.26435423  0.88301933  1
  O  O236  1  0.49381093  0.75758534  0.36285885  1
  O  O237  1  0.49809080  0.75776918  0.87392000  1
  O  O238  1  0.24897286  0.13843994  0.49324612  1
  O  O239  1  0.26620079  0.14124768  0.99669007  1
  O  O240  1  0.23893775  0.63480907  0.49427713  1
  O  O241  1  0.23405990  0.61456255  0.99089962  1
  O  O242  1  0.75505668  0.12989584  0.48751917  1
  O  O243  1  0.73715082  0.12649895  1.00774107  1
  O  O244  1  0.74038159  0.62383442  0.48861247  1
  O  O245  1  0.75621675  0.63724718  1.00162933  1
  O  O246  1  0.25940857  0.37306651  0.01747383  1
  O  O247  1  0.25740686  0.36386057  0.50083943  1
  O  O248  1  0.24951185  0.87375853  -0.06177991  1
  O  O249  1  0.24855981  0.86198512  0.49623991  1
  O  O250  1  0.75624432  0.37500104  0.02019239  1
  O  O251  1  0.76147396  0.36537687  0.49352318  1
  O  O252  1  0.76507720  0.86511690  -0.00353614  1
  O  O253  1  0.74238770  0.87047745  0.51318675  1
  O  O254  1  0.10790214  0.47842218  0.23359053  1
  O  O255  1  0.12640367  0.49464290  0.74325424  1
  O  O256  1  0.13516918  0.99176643  0.24668916  1
  O  O257  1  0.11938354  0.99071100  0.73355874  1
  O  O258  1  0.63923809  0.50272897  0.24618778  1
  O  O259  1  0.64037713  0.51206949  0.79627703  1
  O  O260  1  0.63209364  0.99044339  0.24227592  1
  O  O261  1  0.62341791  1.00292945  0.73816578  1
  O  O262  1  0.36989553  -0.00694678  0.25914449  1
  O  O263  1  0.39485913  0.00928501  0.75230651  1
  O  O264  1  0.37533191  0.49301112  0.26268966  1
  O  O265  1  0.35085008  0.47814245  0.77181533  1
  O  O266  1  0.86669137  0.00598186  0.23992798  1
  O  O267  1  0.87248711  0.01523913  0.75859923  1
  O  O268  1  0.86337746  0.51215919  0.24310486  1
  O  O269  1  0.88942016  0.52578692  0.76035586  1
  O  O270  1  0.11904295  0.37644265  0.36252745  1
  O  O271  1  0.10631173  0.38679006  0.86020622  1
  O  O272  1  0.11770889  0.86849592  0.37011154  1
  O  O273  1  0.11396969  0.87598145  0.85837117  1
  O  O274  1  0.60905146  0.37270324  0.38134901  1
  O  O275  1  0.60521420  0.36942690  0.88409923  1
  O  O276  1  0.61281855  0.87982501  0.36363962  1
  O  O277  1  0.62274414  0.87142072  0.86061947  1
  O  O278  1  0.38787180  0.12999219  0.11910453  1
  O  O279  1  0.38884968  0.11821488  0.62583973  1
  O  O280  1  0.39347046  0.61860657  0.11964015  1
  O  O281  1  0.37960885  0.64833797  0.61812982  1
  O  O282  1  0.87991229  0.13099578  0.13311336  1
  O  O283  1  0.87337761  0.12696805  0.64043664  1
  O  O284  1  0.87985571  0.63345239  0.13704571  1
  O  O285  1  0.87755420  0.64220775  0.63667864  1
  O  O286  1  0.26356253  0.25540493  0.13248105  1
  O  O287  1  0.25265718  0.24763969  0.61685665  1
  O  O288  1  0.24113097  0.73611867  0.12663867  1
  O  O289  1  0.26003061  0.74786923  0.61418678  1
  O  O290  1  0.75925239  0.25714786  0.13264805  1
  O  O291  1  0.76681969  0.24049740  0.60738217  1
  O  O292  1  0.76254968  0.74650727  0.12760309  1
  O  O293  1  0.76367627  0.75971935  0.62563184  1
  O  O294  1  0.25755594  0.23733083  0.37142563  1
  O  O295  1  0.22811034  0.28043874  0.88615633  1
  O  O296  1  0.23843071  0.74855262  0.38180509  1
  O  O297  1  0.23461721  0.73068835  0.86231085  1
  O  O298  1  0.75360564  0.24005678  0.37721553  1
  O  O299  1  0.73380160  0.26971360  0.88023066  1
  O  O300  1  0.74483223  0.74017035  0.37276320  1
  O  O301  1  0.75434853  0.74783218  0.88386932  1
  O  O302  1  0.02604585  0.15581624  -0.00384165  1
  O  O303  1  0.01404051  0.11220614  0.48834213  1
  O  O304  1  0.00779487  0.62161325  0.00745939  1
  O  O305  1  0.00176463  0.61488034  0.51029098  1
  O  O306  1  0.51126985  0.11422355  0.01200552  1
  O  O307  1  0.49992152  0.11196606  0.50101895  1
  O  O308  1  0.50418425  0.62763830  0.00444474  1
  O  O309  1  0.51337055  0.61455683  0.49058752  1
  O  O310  1  0.48970857  0.38249329  0.49292679  1
  O  O311  1  0.49021648  0.38188363  1.01010349  1
  O  O312  1  0.50176151  0.88193668  0.49062942  1
  O  O313  1  0.51636940  0.88056145  0.98178364  1
  O  O314  1  0.99923515  0.38085065  0.49023409  1
  O  O315  1  1.00195282  0.38328009  0.99248854  1
  O  O316  1  1.00342178  0.88715560  0.48938955  1
  O  O317  1  0.98563923  0.86812536  0.98661665  1
  O  O318  1  0.49096784  0.49202094  0.38109194  1
  O  O319  1  0.47842898  0.48685745  0.87619625  1
  O  O320  1  0.49556996  0.99395351  0.37869343  1
  O  O321  1  0.50789626  0.99631832  0.88316203  1
  O  O322  1  1.00675059  0.49144200  0.37759287  1
  O  O323  1  0.99455147  0.49917277  0.88386182  1
  O  O324  1  1.00620588  0.98960844  0.38410596  1
  O  O325  1  0.98813086  0.99217390  0.86837147  1
  O  O326  1  0.01290209  0.00434807  0.12567824  1
  O  O327  1  0.00852048  -0.00672689  0.60978307  1
  O  O328  1  0.00312428  0.50361888  0.11855176  1
  O  O329  1  -0.01020641  0.49599415  0.61766262  1
  O  O330  1  0.50814185  0.00223843  0.11901922  1
  O  O331  1  0.50962281  0.00282285  0.61488164  1
  O  O332  1  0.51236393  0.50987798  0.13016762  1
  O  O333  1  0.49649691  0.50077025  0.60433693  1
  O  O334  1  0.23971603  0.36836029  0.23971519  1
  O  O335  1  0.22413700  0.38318632  0.74702655  1
  O  O336  1  0.24108799  0.88287227  0.25908210  1
  O  O337  1  0.23757844  0.87708821  0.75458163  1
  O  O338  1  0.75862014  0.38830406  0.24540879  1
  O  O339  1  0.79450610  0.39639611  0.73133775  1
  O  O340  1  0.74083519  0.88190655  0.25734249  1
  O  O341  1  0.73601789  0.87199336  0.73970662  1
  O  O342  1  0.24656203  0.11589376  0.26258034  1
  O  O343  1  0.25935909  0.16529357  0.77406198  1
  O  O344  1  0.19134780  0.60240196  0.28179437  1
  O  O345  1  0.23559478  0.60472051  0.76381544  1
  O  O346  1  0.75836572  0.11460039  0.25427975  1
  O  O347  1  0.75256726  0.13437077  0.74686633  1
  O  O348  1  0.75334722  0.61778906  0.26184532  1
  O  O349  1  0.76770771  0.62830000  0.75088027  1
  O  O350  1  0.36281264  0.11440161  0.38151613  1
  O  O351  1  0.40430218  0.11670433  0.86447147  1
  O  O352  1  0.37321301  0.60659764  0.37826368  1
  O  O353  1  0.36144360  0.60554119  0.88598359  1
  O  O354  1  0.86714314  0.12548219  0.36155682  1
  O  O355  1  0.87157919  0.11751119  0.86509419  1
  O  O356  1  0.86197684  0.63087713  0.36796156  1
  O  O357  1  0.88453912  0.62597398  0.86801326  1
  O  O358  1  0.13114839  0.37502370  0.12593313  1
  O  O359  1  0.11445636  0.38167859  0.62759087  1
  O  O360  1  0.11447228  0.88179069  0.14315814  1
  O  O361  1  0.12657875  0.88343789  0.63478141  1
  O  O362  1  0.63199929  0.38829507  0.12860933  1
  O  O363  1  0.63908624  0.33234907  0.63939760  1
  O  O364  1  0.61641881  0.88424043  0.13382238  1
  O  O365  1  0.63267092  0.87900575  0.63542214  1
  O  O366  1  0.11532716  0.25684803  0.23951193  1
  O  O367  1  0.10833481  0.26520408  0.73705254  1
  O  O368  1  0.11630394  0.75782580  0.26330564  1
  O  O369  1  0.11983548  0.76440998  0.75298354  1
  O  O370  1  0.61225739  0.24600940  0.24785230  1
  O  O371  1  0.62262908  0.24314653  0.77280411  1
  O  O372  1  0.61532395  0.75915196  0.24273519  1
  O  O373  1  0.62650677  0.75168523  0.74620887  1
  O  O374  1  0.38828641  0.25140867  0.23812379  1
  O  O375  1  0.38005474  0.26010117  0.74321674  1
  O  O376  1  0.38777894  0.75010051  0.24433391  1
  O  O377  1  0.36145818  0.75609208  0.75011694  1
  O  O378  1  0.88317069  0.23822427  0.24394219  1
  O  O379  1  0.88005889  0.23739597  0.74272124  1
  O  O380  1  0.87898337  0.74344488  0.24623058  1
  O  O381  1  0.88284585  0.74569301  0.75189616  1
  O  O382  1  0.38205968  0.49056071  0.49318780  1
  O  O383  1  0.36496024  0.48439424  0.99280555  1
  O  O384  1  0.38485436  0.99511073  0.48950084  1
  O  O385  1  0.39272633  0.99611624  0.99254516  1
  O  O386  1  0.88536483  0.49029591  0.49924197  1
  O  O387  1  0.88959706  0.50398272  0.99848952  1
  O  O388  1  0.89064053  1.00899882  0.50380061  1
  O  O389  1  0.87116913  0.99662400  0.98612746  1
  O  O390  1  0.13494340  -0.02069612  0.02327471  1
  O  O391  1  0.12378325  0.00500259  0.51016975  1
  O  O392  1  0.11239608  0.50917471  0.01008240  1
  O  O393  1  0.11584159  0.51103228  0.49726300  1
  O  O394  1  0.62288710  0.00316171  0.00684800  1
  O  O395  1  0.61687050  -0.00039767  0.50542888  1
  O  O396  1  0.62943035  0.49971855  0.01497044  1
  O  O397  1  0.61185587  0.50019391  0.49573028  1
  O  O398  1  0.37103187  0.37032056  0.12112112  1
  O  O399  1  0.38050905  0.38297680  0.61188349  1
  O  O400  1  0.37719209  0.86584847  0.11387847  1
  O  O401  1  0.37936064  0.85789769  0.62307325  1
  O  O402  1  0.86986733  0.36479410  0.12771501  1
  O  O403  1  0.87997986  0.35945819  0.60223289  1
  O  O404  1  0.88382271  0.86629638  0.11631342  1
  O  O405  1  0.86156576  0.86927134  0.63035014  1
  O  O406  1  0.14453336  0.11625311  0.38753430  1
  O  O407  1  0.14733464  0.07584277  0.88785108  1
  O  O408  1  0.10166984  0.64671357  0.39973441  1
  O  O409  1  0.12460681  0.63356228  0.88562539  1
  O  O410  1  0.63897476  0.12734213  0.37448350  1
  O  O411  1  0.61595633  0.14209167  0.88877937  1
  O  O412  1  0.63741604  0.62225108  0.38407291  1
  O  O413  1  0.64384027  0.58218285  0.85652901  1
