# generated using pymatgen
data_V79Zn79O256
_symmetry_space_group_name_H-M   'P 1'
_cell_length_a   16.91430753
_cell_length_b   16.90312538
_cell_length_c   16.90610600
_cell_angle_alpha   90.37412805
_cell_angle_beta   90.17024419
_cell_angle_gamma   90.02733552
_symmetry_Int_Tables_number   1
_chemical_formula_structural   V79Zn79O256
_chemical_formula_sum   'V79 Zn79 O256'
_cell_volume   4833.40952694
_cell_formula_units_Z   1
loop_
 _symmetry_equiv_pos_site_id
 _symmetry_equiv_pos_as_xyz
  1  'x, y, z'
loop_
 _atom_site_type_symbol
 _atom_site_label
 _atom_site_symmetry_multiplicity
 _atom_site_fract_x
 _atom_site_fract_y
 _atom_site_fract_z
 _atom_site_occupancy
  V  V0  1  0.12548642  0.60938949  0.49856361  1
  V  V1  1  0.18214258  0.54708887  0.68343416  1
  V  V2  1  0.13123071  0.13393824  0.50015179  1
  V  V3  1  0.12504420  0.35498363  0.76066507  1
  V  V4  1  0.25042021  -0.00488856  0.74653614  1
  V  V5  1  0.13668280  0.74740061  0.87295241  1
  V  V6  1  0.62338398  0.25441463  0.37784646  1
  V  V7  1  0.00201561  0.00156729  0.50541998  1
  V  V8  1  0.74776930  -0.00563036  0.24922249  1
  V  V9  1  0.50891260  0.25665808  0.75335133  1
  V  V10  1  0.49639548  0.50225334  0.00550515  1
  V  V11  1  0.50260789  0.11482688  0.62405771  1
  V  V12  1  0.88150878  0.50076767  0.37187719  1
  V  V13  1  0.38335645  0.50010704  0.37634834  1
  V  V14  1  0.37757646  0.61774692  0.23832712  1
  V  V15  1  0.61283832  0.12630673  0.00243088  1
  V  V16  1  -0.00035610  0.37474914  0.36040237  1
  V  V17  1  0.75191218  0.12543880  0.37816945  1
  V  V18  1  0.12352997  0.74888275  0.37193163  1
  V  V19  1  0.61688003  0.63301000  0.00523572  1
  V  V20  1  0.00007164  0.61146249  0.62192154  1
  V  V21  1  0.36006831  0.50941927  0.86483278  1
  V  V22  1  0.88730692  0.38170797  0.51004675  1
  V  V23  1  0.38440933  0.75017930  0.63256416  1
  V  V24  1  0.87858660  0.87235338  0.50210776  1
  V  V25  1  0.38838146  0.88117123  0.49485450  1
  V  V26  1  -0.01076075  0.49229452  -0.00754979  1
  V  V27  1  0.76489775  0.87329271  0.12422760  1
  V  V28  1  0.00292922  0.87283353  0.36761557  1
  V  V29  1  0.00472120  0.63660334  0.12376643  1
  V  V30  1  0.25214511  0.61656466  0.37155291  1
  V  V31  1  0.50097696  0.61529094  0.63625396  1
  V  V32  1  0.75747188  0.25239543  0.50693658  1
  V  V33  1  0.37891357  0.37966664  0.50091803  1
  V  V34  1  0.87510779  0.75176919  0.62529451  1
  V  V35  1  0.72600491  0.49518581  0.75156746  1
  V  V36  1  0.13138365  -0.00372740  0.12563176  1
  V  V37  1  0.12485308  0.25116258  0.37075716  1
  V  V38  1  0.50743439  0.75475627  0.24469751  1
  V  V39  1  0.25054637  0.13019047  0.87679547  1
  V  V40  1  0.86874424  0.13572304  0.74255440  1
  V  V41  1  0.75099230  0.62139453  0.87607837  1
  V  V42  1  -0.00693428  0.75425439  0.75565192  1
  V  V43  1  0.73760124  0.00126499  0.75827783  1
  V  V44  1  0.37750223  0.88029878  0.00747596  1
  V  V45  1  0.36892811  0.24960249  0.61798654  1
  V  V46  1  0.74278775  0.14766966  0.87445307  1
  V  V47  1  0.73171966  0.37987822  0.62628353  1
  V  V48  1  0.38388096  -0.00102004  0.87635553  1
  V  V49  1  0.88396810  0.63831162  0.24742964  1
  V  V50  1  0.14164540  0.37461364  0.24166812  1
  V  V51  1  0.25544324  0.12605234  0.36730611  1
  V  V52  1  0.13870227  0.87542523  0.25156509  1
  V  V53  1  0.12780181  -0.00337790  0.62390828  1
  V  V54  1  0.62113182  0.11556783  0.50534964  1
  V  V55  1  0.73689522  0.88452118  0.62378105  1
  V  V56  1  0.49562029  0.23832744  0.24703962  1
  V  V57  1  0.25202848  0.75963617  0.50239107  1
  V  V58  1  0.11386606  0.88203247  0.75549771  1
  V  V59  1  0.37673774  0.24373063  0.12701932  1
  V  V60  1  0.74756763  0.74257585  0.49842751  1
  V  V61  1  0.12762402  0.11361041  0.00053191  1
  V  V62  1  -0.00470103  0.14186299  0.62492447  1
  V  V63  1  0.24435856  0.37053947  0.62485517  1
  V  V64  1  0.75894308  0.75177560  0.00533532  1
  V  V65  1  0.61647991  0.61119907  0.49855753  1
  V  V66  1  0.13321799  0.49435887  0.12761814  1
  V  V67  1  0.74313984  0.25645492  0.03088199  1
  V  V68  1  0.37541109  0.12753355  0.74878589  1
  V  V69  1  0.86497692  0.36746487  0.00419081  1
  V  V70  1  0.24626645  0.25419974  0.00542036  1
  V  V71  1  0.61597007  -0.00394053  0.11935418  1
  V  V72  1  0.88175520  0.13776750  0.24671618  1
  V  V73  1  0.24893226  0.75110206  0.01362825  1
  V  V74  1  0.87419212  0.61002830  0.75006801  1
  V  V75  1  0.87698799  0.00003607  0.37551964  1
  V  V76  1  0.50680500  0.37572878  0.87466518  1
  V  V77  1  0.63115718  0.49593209  0.12558466  1
  V  V78  1  0.50577571  0.86598624  0.86393201  1
  Zn  Zn79  1  0.76288538  0.49205844  0.23865987  1
  Zn  Zn80  1  0.62508987  0.75189689  0.37159282  1
  Zn  Zn81  1  -0.00285880  0.13143037  0.12616585  1
  Zn  Zn82  1  0.51949803  0.88547932  0.36976259  1
  Zn  Zn83  1  0.50300082  0.37942949  0.37540121  1
  Zn  Zn84  1  -0.00971831  0.25375207  0.79470358  1
  Zn  Zn85  1  -0.07987080  -0.07160116  -0.05068852  1
  Zn  Zn86  1  0.26338630  0.00169338  0.24611931  1
  Zn  Zn87  1  0.74756869  0.62232618  0.36631028  1
  Zn  Zn88  1  0.62737042  0.36751402  0.23879659  1
  Zn  Zn89  1  0.61691090  0.74575846  0.85123697  1
  Zn  Zn90  1  0.39032239  0.00877613  0.37178090  1
  Zn  Zn91  1  0.36735359  0.38014611  0.00457631  1
  Zn  Zn92  1  0.12701745  0.61322960  -0.00964230  1
  Zn  Zn93  1  0.37978285  0.75071024  0.12601479  1
  Zn  Zn94  1  0.18498651  0.19253839  0.18478043  1
  Zn  Zn95  1  0.18619219  0.18633167  0.68730493  1
  Zn  Zn96  1  0.18762530  0.68384444  0.19041950  1
  Zn  Zn97  1  0.19204386  0.71101635  0.68705304  1
  Zn  Zn98  1  0.68013922  0.17574305  0.19388106  1
  Zn  Zn99  1  0.68690781  0.19278283  0.68454584  1
  Zn  Zn100  1  0.69175351  0.68196929  0.18596170  1
  Zn  Zn101  1  0.68257356  0.68450629  0.68170215  1
  Zn  Zn102  1  0.31269300  0.30877829  0.31554303  1
  Zn  Zn103  1  0.31438461  0.32228746  0.81498312  1
  Zn  Zn104  1  0.31974048  0.80537240  0.31507681  1
  Zn  Zn105  1  0.31456910  0.81764295  0.81236750  1
  Zn  Zn106  1  0.80869947  0.31835141  0.31025647  1
  Zn  Zn107  1  0.81227392  0.32077435  0.81713372  1
  Zn  Zn108  1  0.81022173  0.81363718  0.31405217  1
  Zn  Zn109  1  0.78743886  0.80505465  0.80653534  1
  Zn  Zn110  1  0.19592899  0.43054017  0.43435069  1
  Zn  Zn111  1  0.18178787  0.43781801  0.93843193  1
  Zn  Zn112  1  0.19151528  0.94212712  0.43576680  1
  Zn  Zn113  1  0.19439507  0.93497852  0.93418223  1
  Zn  Zn114  1  0.69783923  0.43911239  0.43299976  1
  Zn  Zn115  1  0.68683935  0.43646097  0.93949792  1
  Zn  Zn116  1  0.68770705  0.93307100  0.43913432  1
  Zn  Zn117  1  0.68844488  0.93610871  0.94123765  1
  Zn  Zn118  1  0.31495973  0.06157220  0.06818469  1
  Zn  Zn119  1  0.31242708  0.06229376  0.55950054  1
  Zn  Zn120  1  0.30868701  0.56495812  0.05102735  1
  Zn  Zn121  1  0.31948954  0.56679360  0.55838780  1
  Zn  Zn122  1  0.80818628  0.06602723  0.06181069  1
  Zn  Zn123  1  0.81664801  0.06165397  0.56588152  1
  Zn  Zn124  1  0.81578123  0.56867305  0.06439437  1
  Zn  Zn125  1  0.80985820  0.55781817  0.56378573  1
  Zn  Zn126  1  0.43851363  0.42733897  0.18954426  1
  Zn  Zn127  1  0.43280495  0.43935745  0.68946442  1
  Zn  Zn128  1  0.43823644  0.93961781  0.19317797  1
  Zn  Zn129  1  0.43774754  0.93031091  0.68371081  1
  Zn  Zn130  1  0.94141053  0.43973837  0.17794444  1
  Zn  Zn131  1  0.94619796  0.42847585  0.69492378  1
  Zn  Zn132  1  0.94269607  0.94806795  0.18283453  1
  Zn  Zn133  1  0.91863727  0.94359052  0.78962305  1
  Zn  Zn134  1  0.06580185  0.05991473  0.31128096  1
  Zn  Zn135  1  0.05853571  0.06984010  0.81074567  1
  Zn  Zn136  1  0.06142612  0.55845534  0.31020330  1
  Zn  Zn137  1  0.05855867  0.56639908  0.81347678  1
  Zn  Zn138  1  0.56300790  0.05846484  0.31013660  1
  Zn  Zn139  1  0.56477921  0.06329640  0.81295840  1
  Zn  Zn140  1  0.56038073  0.57081426  0.30996471  1
  Zn  Zn141  1  0.55504446  0.56392022  0.81916164  1
  Zn  Zn142  1  0.44016551  0.18962072  0.43875680  1
  Zn  Zn143  1  0.43344812  0.19187895  0.93722820  1
  Zn  Zn144  1  0.44096617  0.69053323  0.43293248  1
  Zn  Zn145  1  0.43287587  0.69017386  0.93195962  1
  Zn  Zn146  1  0.94125252  0.19311552  0.43595079  1
  Zn  Zn147  1  0.93795437  0.10446016  0.92584285  1
  Zn  Zn148  1  0.94171913  0.68456873  0.43867361  1
  Zn  Zn149  1  0.95276256  0.74193749  0.95745373  1
  Zn  Zn150  1  0.01862233  0.26690641  -0.00504029  1
  Zn  Zn151  1  0.06697321  0.31915132  0.55863730  1
  Zn  Zn152  1  0.06310808  0.82398369  0.06381338  1
  Zn  Zn153  1  0.06213253  0.80979829  0.56447666  1
  Zn  Zn154  1  0.55688971  0.31288433  0.06176408  1
  Zn  Zn155  1  0.55828100  0.30617845  0.56141721  1
  Zn  Zn156  1  0.56024982  0.81853380  0.06514037  1
  Zn  Zn157  1  0.56176143  0.80490624  0.56051105  1
  O  O158  1  0.13509559  0.11423934  0.11494300  1
  O  O159  1  0.11786887  0.11998366  0.61819652  1
  O  O160  1  0.11652408  0.61140516  0.13467709  1
  O  O161  1  0.12382536  0.61805483  0.62199710  1
  O  O162  1  0.63071082  0.11222302  0.11180209  1
  O  O163  1  0.61880391  0.13180462  0.61240384  1
  O  O164  1  0.62557162  0.61722216  0.10894567  1
  O  O165  1  0.61272532  0.62779428  0.61186742  1
  O  O166  1  0.37189693  0.38259959  0.38348323  1
  O  O167  1  0.38258057  0.38574392  0.88213751  1
  O  O168  1  0.37381192  0.87373231  0.39042356  1
  O  O169  1  0.38460692  0.88171281  0.87819711  1
  O  O170  1  0.88367201  0.38165097  0.37940612  1
  O  O171  1  0.85126000  0.38445303  0.90139198  1
  O  O172  1  0.88415452  0.87894236  0.38094448  1
  O  O173  1  0.86759162  0.86803920  0.85941781  1
  O  O174  1  0.24819311  0.01782166  0.37303197  1
  O  O175  1  0.26315706  0.00725735  0.86556309  1
  O  O176  1  0.26016054  0.51020358  0.37582249  1
  O  O177  1  0.26121102  0.50064292  0.88781268  1
  O  O178  1  0.75505780  0.00716344  0.37041667  1
  O  O179  1  0.74215026  -0.00017521  0.86022771  1
  O  O180  1  0.76926903  0.50607203  0.37391778  1
  O  O181  1  0.73911756  0.50551814  0.86066097  1
  O  O182  1  0.23155363  0.50571178  0.11416357  1
  O  O183  1  0.25039580  0.49334581  0.62563237  1
  O  O184  1  0.23981958  1.00229876  0.13153955  1
  O  O185  1  0.23811437  1.01116670  0.63457532  1
  O  O186  1  0.73458626  0.50616961  0.11968481  1
  O  O187  1  0.74958992  0.48833744  0.63589394  1
  O  O188  1  0.74895018  0.98936226  0.13054213  1
  O  O189  1  0.74688885  0.98689936  0.61627454  1
  O  O190  1  0.00502045  0.37704417  0.25748612  1
  O  O191  1  0.01618116  0.35975183  0.74740253  1
  O  O192  1  0.00950487  0.88413824  0.26448069  1
  O  O193  1  0.00520335  0.86743841  0.74599000  1
  O  O194  1  0.50986355  0.36176527  0.25650648  1
  O  O195  1  0.49288820  0.36391523  0.75753308  1
  O  O196  1  0.49802922  0.85884183  0.25084097  1
  O  O197  1  0.49839429  0.87789342  0.76401989  1
  O  O198  1  0.50254521  0.13911484  0.25405063  1
  O  O199  1  0.49264388  0.13494297  0.74704516  1
  O  O200  1  0.48208630  0.63407245  0.25129510  1
  O  O201  1  0.51237785  0.62906252  0.73577408  1
  O  O202  1  0.98443928  0.12096077  0.25693846  1
  O  O203  1  0.98836917  0.13321591  0.73986000  1
  O  O204  1  0.99311720  0.62182950  0.24112692  1
  O  O205  1  0.99242359  0.63214089  0.74176525  1
  O  O206  1  0.36615986  0.25004589  0.00957743  1
  O  O207  1  0.37806017  0.25639119  0.51300212  1
  O  O208  1  0.36294015  0.75393359  0.00334181  1
  O  O209  1  0.36482227  0.75697591  0.49996152  1
  O  O210  1  0.85296045  0.26224771  0.01135261  1
  O  O211  1  0.86443903  0.26602789  0.49091273  1
  O  O212  1  0.85486217  0.72909020  0.01196879  1
  O  O213  1  0.87145582  0.74992809  0.50719250  1
  O  O214  1  0.12211210  0.24176584  0.48929894  1
  O  O215  1  0.14292739  0.22880569  1.00106337  1
  O  O216  1  0.13724129  0.74531535  0.49564102  1
  O  O217  1  0.13858618  0.76397425  0.98446680  1
  O  O218  1  0.63573961  0.24179756  0.49600213  1
  O  O219  1  0.63186457  0.23745943  1.01198375  1
  O  O220  1  0.63703449  0.73969038  0.49913837  1
  O  O221  1  0.62687638  0.73767091  1.00597304  1
  O  O222  1  0.49445838  0.24932528  0.13784557  1
  O  O223  1  0.48990655  0.24396423  0.63762430  1
  O  O224  1  0.49815164  0.75218200  0.13643489  1
  O  O225  1  0.48954058  0.74339480  0.62481368  1
  O  O226  1  1.01255946  0.24067486  0.10434575  1
  O  O227  1  1.00497564  0.24049149  0.61657118  1
  O  O228  1  1.01877872  0.73516024  0.12820302  1
  O  O229  1  0.99415413  0.74228250  0.63449859  1
  O  O230  1  0.01318191  0.26103463  0.37689662  1
  O  O231  1  -0.01420120  0.21572257  0.89972674  1
  O  O232  1  0.01316017  0.76167027  0.38602659  1
  O  O233  1  0.01076789  0.74491807  0.85873817  1
  O  O234  1  0.50704039  0.25000707  0.36731173  1
  O  O235  1  0.49135405  0.26157795  0.86323479  1
  O  O236  1  0.50118670  0.75349758  0.35981641  1
  O  O237  1  0.50102758  0.75971777  0.87065564  1
  O  O238  1  0.23583673  0.12120059  0.49357872  1
  O  O239  1  0.25140910  0.12776003  0.99234647  1
  O  O240  1  0.24377888  0.63232065  0.49123243  1
  O  O241  1  0.24128267  0.64578671  1.00092098  1
  O  O242  1  0.74584357  0.13267688  0.49745129  1
  O  O243  1  0.74521397  0.14446862  0.99087998  1
  O  O244  1  0.74105883  0.62998099  0.50406856  1
  O  O245  1  0.73777899  0.62786599  0.99558987  1
  O  O246  1  0.24478734  0.35559406  -0.00562624  1
  O  O247  1  0.26099302  0.37673552  0.51341396  1
  O  O248  1  0.26604266  0.86096998  -0.01214362  1
  O  O249  1  0.25234059  0.86262565  0.49668054  1
  O  O250  1  0.74126021  0.36016464  0.00613761  1
  O  O251  1  0.75819389  0.37252365  0.51293149  1
  O  O252  1  0.75322477  0.86264281  0.00908743  1
  O  O253  1  0.75894856  0.86587589  0.50814033  1
  O  O254  1  0.12299451  0.48784423  0.24059275  1
  O  O255  1  0.12204050  0.49219117  0.74565236  1
  O  O256  1  0.13461773  0.99312881  0.24504331  1
  O  O257  1  0.12957964  0.99930355  0.74353957  1
  O  O258  1  0.61831617  0.51136010  0.22860099  1
  O  O259  1  0.62832102  0.49872854  0.74771608  1
  O  O260  1  0.64074485  1.01400118  0.23399766  1
  O  O261  1  0.63831161  1.01274244  0.74122596  1
  O  O262  1  0.37364351  -0.00144135  0.25884977  1
  O  O263  1  0.36883696  0.00835394  0.75189048  1
  O  O264  1  0.37939830  0.51143720  0.25499132  1
  O  O265  1  0.36815237  0.49365489  0.76463147  1
  O  O266  1  0.86578936  0.00701059  0.25770403  1
  O  O267  1  0.85048547  0.02424211  0.73930846  1
  O  O268  1  0.88033851  0.50531246  0.25786107  1
  O  O269  1  0.87986723  0.50856518  0.74866086  1
  O  O270  1  0.12131931  0.37154886  0.36551976  1
  O  O271  1  0.13136469  0.37372877  0.85860324  1
  O  O272  1  0.12127081  0.86958149  0.37149449  1
  O  O273  1  0.12689076  0.86972418  0.86200924  1
  O  O274  1  0.62440278  0.36009914  0.38886940  1
  O  O275  1  0.60641920  0.37948032  0.87486339  1
  O  O276  1  0.63254100  0.86579281  0.37214728  1
  O  O277  1  0.60679483  0.87534369  0.88618847  1
  O  O278  1  0.37736716  0.14195469  0.12072389  1
  O  O279  1  0.38049894  0.13043089  0.62940607  1
  O  O280  1  0.36470263  0.62389570  0.13676391  1
  O  O281  1  0.38915683  0.63856752  0.61575532  1
  O  O282  1  0.87223177  0.12357494  0.14450494  1
  O  O283  1  0.88266530  0.13036910  0.62714585  1
  O  O284  1  0.89082542  0.62321309  0.13710375  1
  O  O285  1  0.88056135  0.63011285  0.62876565  1
  O  O286  1  0.26088478  0.24667687  0.11448510  1
  O  O287  1  0.26037807  0.25427203  0.62876648  1
  O  O288  1  0.24446743  0.75565695  0.11530196  1
  O  O289  1  0.26261665  0.74425691  0.60766933  1
  O  O290  1  0.74303146  0.24956827  0.12939812  1
  O  O291  1  0.74776107  0.26600926  0.61819391  1
  O  O292  1  0.74204053  0.76447602  0.11972585  1
  O  O293  1  0.75872084  0.75407119  0.61473790  1
  O  O294  1  0.23683564  0.24102612  0.37454942  1
  O  O295  1  0.26373429  0.23667703  0.88627899  1
  O  O296  1  0.24333594  0.74057486  0.38642068  1
  O  O297  1  0.23862106  0.75144502  0.86818320  1
  O  O298  1  0.74343882  0.24203982  0.38511619  1
  O  O299  1  0.73448283  0.24657510  0.86876178  1
  O  O300  1  0.75617922  0.74316848  0.38808917  1
  O  O301  1  0.74262651  0.74190151  0.90030289  1
  O  O302  1  0.02806188  0.11273265  0.00413017  1
  O  O303  1  0.00701491  0.11942520  0.50230561  1
  O  O304  1  0.00735610  0.62638961  0.01447549  1
  O  O305  1  0.01492491  0.63343730  0.51175516  1
  O  O306  1  0.51409517  0.13086827  -0.00711276  1
  O  O307  1  0.51367986  0.13119740  0.50799642  1
  O  O308  1  0.51140970  0.61830339  -0.00964775  1
  O  O309  1  0.51298708  0.62842918  0.50196560  1
  O  O310  1  0.48415547  0.36893006  0.49903399  1
  O  O311  1  0.49849068  0.38123198  0.98734271  1
  O  O312  1  0.49043080  0.86833971  0.49496802  1
  O  O313  1  0.48170225  0.86634972  0.98874384  1
  O  O314  1  0.98954322  0.37285727  0.49163068  1
  O  O315  1  0.97993412  0.38357636  0.99632611  1
  O  O316  1  0.99878413  0.88306914  0.49517359  1
  O  O317  1  0.98246494  0.84625951  0.99353599  1
  O  O318  1  0.48785092  0.49936771  0.36992085  1
  O  O319  1  0.49208091  0.48960132  0.88087196  1
  O  O320  1  0.50328823  0.99824346  0.37895970  1
  O  O321  1  0.48845964  0.99520318  0.87001449  1
  O  O322  1  0.99292027  0.48963046  0.37499081  1
  O  O323  1  1.01040735  0.50816871  0.89527600  1
  O  O324  1  0.99969325  0.99280979  0.38702131  1
  O  O325  1  0.98184807  1.00803819  0.86434609  1
  O  O326  1  0.02337377  0.01225818  0.13358389  1
  O  O327  1  0.01058547  0.01315687  0.61219523  1
  O  O328  1  0.01085755  0.50728772  0.11208869  1
  O  O329  1  -0.00295596  0.51249306  0.62817186  1
  O  O330  1  0.51748011  -0.00694213  0.12796750  1
  O  O331  1  0.49503366  0.01617028  0.63248493  1
  O  O332  1  0.50405321  0.49634345  0.10968902  1
  O  O333  1  0.48936588  0.51558809  0.62662806  1
  O  O334  1  0.24058489  0.37527197  0.25260716  1
  O  O335  1  0.23852051  0.36834558  0.73953568  1
  O  O336  1  0.24044526  0.87342053  0.26068212  1
  O  O337  1  0.24015832  0.89055764  0.75234009  1
  O  O338  1  0.73504013  0.38529680  0.26342228  1
  O  O339  1  0.75119375  0.38534057  0.73803141  1
  O  O340  1  0.75424029  0.88300867  0.23901567  1
  O  O341  1  0.75396111  0.89508314  0.73204636  1
  O  O342  1  0.24529333  0.12930446  0.26475076  1
  O  O343  1  0.25774397  0.11846012  0.75664826  1
  O  O344  1  0.26370651  0.63394598  0.26307939  1
  O  O345  1  0.23294459  0.61370444  0.73767925  1
  O  O346  1  0.75867314  0.11810908  0.26302809  1
  O  O347  1  0.74509341  0.12563470  0.75590526  1
  O  O348  1  0.76963229  0.61891738  0.24597238  1
  O  O349  1  0.75349010  0.60475045  0.74893637  1
  O  O350  1  0.35774055  0.12951130  0.38755205  1
  O  O351  1  0.37220595  0.11809634  0.86666295  1
  O  O352  1  0.36903570  0.61715662  0.37206026  1
  O  O353  1  0.38056779  0.60906595  0.87528288  1
  O  O354  1  0.86705254  0.12055664  0.37548153  1
  O  O355  1  0.84422541  0.12853657  0.86120548  1
  O  O356  1  0.88527080  0.61749116  0.36372126  1
  O  O357  1  0.85374095  0.63324875  0.86042700  1
  O  O358  1  0.12606821  0.38417711  0.13735860  1
  O  O359  1  0.13650499  0.36914744  0.63334842  1
  O  O360  1  0.12294966  0.88652869  0.13741083  1
  O  O361  1  0.11923888  0.88857874  0.63453633  1
  O  O362  1  0.61977301  0.39195862  0.12031376  1
  O  O363  1  0.63331428  0.37620788  0.61919849  1
  O  O364  1  0.63809128  0.89132463  0.11445675  1
  O  O365  1  0.63896872  0.86925266  0.61739583  1
  O  O366  1  0.12647615  0.26428209  0.25556441  1
  O  O367  1  0.12447578  0.25128916  0.75873476  1
  O  O368  1  0.13132787  0.75635467  0.26568816  1
  O  O369  1  0.11722055  0.76168362  0.75491388  1
  O  O370  1  0.61654584  0.24530413  0.26149642  1
  O  O371  1  0.60715181  0.24880394  0.74748131  1
  O  O372  1  0.61081848  0.73314046  0.24892692  1
  O  O373  1  0.68495010  0.75789704  0.76398539  1
  O  O374  1  0.38540913  0.25330967  0.24235109  1
  O  O375  1  0.37774535  0.23900381  0.74336969  1
  O  O376  1  0.38163328  0.73930772  0.24556437  1
  O  O377  1  0.36427221  0.75624661  0.73024609  1
  O  O378  1  0.87093054  0.23610050  0.26223993  1
  O  O379  1  0.87157822  0.24201091  0.75573253  1
  O  O380  1  0.87708144  0.73751178  0.25679540  1
  O  O381  1  0.87766286  0.73816739  0.73993558  1
  O  O382  1  0.37302220  0.49189707  0.48973417  1
  O  O383  1  0.38374481  0.50033694  0.99474062  1
  O  O384  1  0.37016972  0.98403194  0.50031000  1
  O  O385  1  0.36732387  0.98768679  0.99078066  1
  O  O386  1  0.87203788  0.48733711  0.49190227  1
  O  O387  1  0.88841952  0.51051577  0.99747832  1
  O  O388  1  0.88459291  0.99472826  0.49592600  1
  O  O389  1  0.88511443  1.02523843  0.99463440  1
  O  O390  1  0.13990616  0.00118418  0.01301065  1
  O  O391  1  0.12007112  0.00687693  0.50576649  1
  O  O392  1  0.11466393  0.49655986  0.01136035  1
  O  O393  1  0.13110342  0.51034072  0.49273598  1
  O  O394  1  0.63309528  0.01318691  0.00967479  1
  O  O395  1  0.63304103  0.01784879  0.49696246  1
  O  O396  1  0.61722302  0.50892248  0.00513879  1
  O  O397  1  0.63011377  0.51216600  0.49341274  1
  O  O398  1  0.38061011  0.35686571  0.11916490  1
  O  O399  1  0.36742329  0.36800592  0.62157203  1
  O  O400  1  0.37792890  0.87766078  0.10930543  1
  O  O401  1  0.38091532  0.86112882  0.60951267  1
  O  O402  1  0.86368910  0.39869821  0.10384488  1
  O  O403  1  0.87845450  0.38053020  0.61142236  1
  O  O404  1  0.86467780  0.88029455  0.12739152  1
  O  O405  1  0.86815846  0.85900717  0.61961196  1
  O  O406  1  0.12942492  0.13242980  0.38059634  1
  O  O407  1  0.14118806  0.10885949  0.88762359  1
  O  O408  1  0.12952185  0.63005113  0.37917526  1
  O  O409  1  0.12330404  0.64406969  0.87437587  1
  O  O410  1  0.63476098  0.13267093  0.38630779  1
  O  O411  1  0.63486616  0.11810997  0.88987569  1
  O  O412  1  0.62841314  0.62878357  0.38578538  1
  O  O413  1  0.63203825  0.62687161  0.88446005  1
