# generated using pymatgen
data_V79Zn79O256
_symmetry_space_group_name_H-M   'P 1'
_cell_length_a   16.90661851
_cell_length_b   16.92976275
_cell_length_c   16.90788605
_cell_angle_alpha   90.04777973
_cell_angle_beta   89.91259487
_cell_angle_gamma   89.94313047
_symmetry_Int_Tables_number   1
_chemical_formula_structural   V79Zn79O256
_chemical_formula_sum   'V79 Zn79 O256'
_cell_volume   4839.45066176
_cell_formula_units_Z   1
loop_
 _symmetry_equiv_pos_site_id
 _symmetry_equiv_pos_as_xyz
  1  'x, y, z'
loop_
 _atom_site_type_symbol
 _atom_site_label
 _atom_site_symmetry_multiplicity
 _atom_site_fract_x
 _atom_site_fract_y
 _atom_site_fract_z
 _atom_site_occupancy
  V  V0  1  0.12538207  0.62156446  0.51627917  1
  V  V1  1  0.12278358  0.87410492  0.76331716  1
  V  V2  1  0.86824252  -0.00410805  0.37077421  1
  V  V3  1  0.25160621  0.87425779  0.62802560  1
  V  V4  1  0.50219626  0.50902164  0.49947040  1
  V  V5  1  0.23956132  0.26268789  0.00499726  1
  V  V6  1  0.49811483  0.74916983  0.24482495  1
  V  V7  1  0.74800288  0.62658844  0.87902669  1
  V  V8  1  0.11821749  0.25655338  0.87149307  1
  V  V9  1  0.12000456  -0.00197832  0.12826268  1
  V  V10  1  0.47961388  0.12368690  0.61686352  1
  V  V11  1  0.63155581  0.25226635  0.85744738  1
  V  V12  1  0.37622318  0.74935662  0.11817763  1
  V  V13  1  0.35135852  0.24848564  0.13827722  1
  V  V14  1  0.25039107  0.12543822  0.37118215  1
  V  V15  1  -0.00033766  -0.00537839  0.50136743  1
  V  V16  1  0.50092289  0.37553087  0.37474818  1
  V  V17  1  0.26852071  0.61666065  0.87575748  1
  V  V18  1  0.61578289  0.50367308  0.12883992  1
  V  V19  1  0.11787042  0.25018098  0.37273292  1
  V  V20  1  0.62302625  0.74420063  0.37664525  1
  V  V21  1  -0.00584751  -0.00157059  -0.01019236  1
  V  V22  1  0.87500083  0.62265650  0.24632908  1
  V  V23  1  0.12877906  0.37679887  0.23764814  1
  V  V24  1  0.49865163  0.62631943  0.63215940  1
  V  V25  1  0.50357504  0.76082086  0.75220196  1
  V  V26  1  0.37553567  0.74676029  0.63193418  1
  V  V27  1  0.87731418  0.50121970  0.37206985  1
  V  V28  1  0.87574050  0.88015380  -0.01106517  1
  V  V29  1  0.12622256  -0.00209367  0.63445855  1
  V  V30  1  -0.01323092  0.25338981  0.75121626  1
  V  V31  1  0.37462859  0.00197908  0.37108588  1
  V  V32  1  0.01428594  0.61979504  0.12043488  1
  V  V33  1  0.49882308  0.87946389  0.37138231  1
  V  V34  1  0.75096939  0.36576504  0.62149152  1
  V  V35  1  0.74907145  0.61996499  0.37235486  1
  V  V36  1  0.24832296  0.49443438  0.23475719  1
  V  V37  1  0.76104927  0.11989552  0.86096158  1
  V  V38  1  0.23887676  0.62646477  0.37244014  1
  V  V39  1  0.48064261  0.24878650  0.73824899  1
  V  V40  1  0.36588179  0.37322494  0.51005234  1
  V  V41  1  0.12068291  0.12566502  0.50082290  1
  V  V42  1  0.50006975  0.49223901  -0.02016997  1
  V  V43  1  0.37831686  0.62290737  0.24215094  1
  V  V44  1  0.63143580  0.24605424  0.39127763  1
  V  V45  1  0.01327408  0.86479040  0.36842617  1
  V  V46  1  -0.00309874  0.24925452  0.24338104  1
  V  V47  1  0.25649495  0.49803614  0.73768445  1
  V  V48  1  0.24247781  -0.00432346  0.24978900  1
  V  V49  1  0.87412549  0.75542972  0.12734557  1
  V  V50  1  0.87589466  0.37616911  -0.00968768  1
  V  V51  1  0.62587726  0.00904314  0.62573950  1
  V  V52  1  0.74576346  0.24679924  0.00481234  1
  V  V53  1  0.00915403  0.50231120  -0.00426339  1
  V  V54  1  0.12108664  0.73574050  0.88250842  1
  V  V55  1  0.64136343  0.88335341  0.24183847  1
  V  V56  1  0.37814177  0.89313492  -0.00466001  1
  V  V57  1  0.62430828  0.75873894  0.87239007  1
  V  V58  1  0.00315876  0.74661089  0.74522065  1
  V  V59  1  0.24546920  0.74770568  0.49617181  1
  V  V60  1  0.37248388  0.50093076  0.37257443  1
  V  V61  1  0.12532649  0.12164372  -0.00812982  1
  V  V62  1  0.74968251  0.50201605  0.75069843  1
  V  V63  1  0.37825964  0.87690480  0.49789442  1
  V  V64  1  0.88139874  0.62582452  0.74464210  1
  V  V65  1  -0.01314642  0.12242629  0.63802236  1
  V  V66  1  0.74653813  0.74191711  0.49971466  1
  V  V67  1  0.26167285  0.00806870  0.76130631  1
  V  V68  1  0.00486747  0.50619660  0.51614664  1
  V  V69  1  0.74781604  0.75796882  0.00593874  1
  V  V70  1  0.24333812  0.87300170  0.12663978  1
  V  V71  1  0.87618220  0.36986274  0.50498219  1
  V  V72  1  0.62747180  0.50824838  0.61920208  1
  V  V73  1  0.62905613  0.37831703  0.24944997  1
  V  V74  1  0.73885563  0.87177962  0.63707689  1
  V  V75  1  0.50058071  0.23662872  0.24624198  1
  V  V76  1  0.87370638  0.86830470  0.50048843  1
  V  V77  1  0.86869565  0.12457869  0.25258153  1
  V  V78  1  0.75943893  0.38265513  0.13125868  1
  Zn  Zn79  1  0.13044986  0.37909437  0.73287360  1
  Zn  Zn80  1  0.37646395  0.37917637  -0.00115044  1
  Zn  Zn81  1  0.73921543  0.11626534  0.39072153  1
  Zn  Zn82  1  0.61208311  0.38334764  0.75531134  1
  Zn  Zn83  1  0.88001798  0.74466033  0.62263404  1
  Zn  Zn84  1  0.24733298  0.25616342  0.50959438  1
  Zn  Zn85  1  0.02076274  0.74819524  0.24922655  1
  Zn  Zn86  1  0.24603430  0.74459373  -0.00098241  1
  Zn  Zn87  1  0.88010714  0.50212226  0.87438329  1
  Zn  Zn88  1  0.00176757  0.37820317  0.37516726  1
  Zn  Zn89  1  0.56072936  0.05990035  0.44538216  1
  Zn  Zn90  1  -0.00889500  0.12572588  0.12423264  1
  Zn  Zn91  1  0.61725546  0.63078609  0.01279671  1
  Zn  Zn92  1  0.49700098  0.88777806  0.87617803  1
  Zn  Zn93  1  0.28157554  0.12308625  0.88531255  1
  Zn  Zn94  1  0.17845581  0.17855538  0.18902428  1
  Zn  Zn95  1  0.18342662  0.18115933  0.69382995  1
  Zn  Zn96  1  0.19019701  0.68633572  0.18760280  1
  Zn  Zn97  1  0.19318935  0.68424825  0.69557886  1
  Zn  Zn98  1  0.69651810  0.19721138  0.19820744  1
  Zn  Zn99  1  0.69795803  0.18017383  0.68209577  1
  Zn  Zn100  1  0.68872080  0.68996087  0.19179733  1
  Zn  Zn101  1  0.68593690  0.68753718  0.68876636  1
  Zn  Zn102  1  0.30948443  0.31282084  0.31698852  1
  Zn  Zn103  1  0.31476569  0.32839988  0.81860316  1
  Zn  Zn104  1  0.30722474  0.81087506  0.30948663  1
  Zn  Zn105  1  0.30871405  0.81233703  0.81687674  1
  Zn  Zn106  1  0.81461127  0.31068304  0.31778650  1
  Zn  Zn107  1  0.80643557  0.31457473  0.81239294  1
  Zn  Zn108  1  0.81843017  0.80777169  0.31288643  1
  Zn  Zn109  1  0.81653331  0.81230050  0.81406214  1
  Zn  Zn110  1  0.18380372  0.43982931  0.43322157  1
  Zn  Zn111  1  0.18457178  0.44248805  0.92855696  1
  Zn  Zn112  1  0.18944210  0.93670476  0.44078911  1
  Zn  Zn113  1  0.19141064  0.93726045  0.94116364  1
  Zn  Zn114  1  0.68922837  0.43566140  0.43889591  1
  Zn  Zn115  1  0.68264513  0.43442384  0.94285886  1
  Zn  Zn116  1  0.68534223  0.92906575  0.43948810  1
  Zn  Zn117  1  0.68490565  0.94363858  0.93693109  1
  Zn  Zn118  1  0.43983214  0.09110510  0.03284325  1
  Zn  Zn119  1  0.30652033  0.06002405  0.55852862  1
  Zn  Zn120  1  0.31694502  0.56202843  0.05273999  1
  Zn  Zn121  1  0.31373579  0.56187275  0.56272047  1
  Zn  Zn122  1  0.80716759  0.06312679  0.06495637  1
  Zn  Zn123  1  0.80410381  0.05424490  0.56601691  1
  Zn  Zn124  1  0.81228707  0.56218994  0.06311929  1
  Zn  Zn125  1  0.81610120  0.56004116  0.56069311  1
  Zn  Zn126  1  0.43603555  0.42642920  0.18207766  1
  Zn  Zn127  1  0.43313868  0.43848759  0.69396385  1
  Zn  Zn128  1  0.42979196  0.94653803  0.17813718  1
  Zn  Zn129  1  0.44264726  0.94194940  0.68430306  1
  Zn  Zn130  1  0.94407136  0.43805469  0.18708622  1
  Zn  Zn131  1  0.93691389  0.43504412  0.69243544  1
  Zn  Zn132  1  0.93711204  0.93698856  0.18898431  1
  Zn  Zn133  1  0.93699838  0.92686841  0.68859030  1
  Zn  Zn134  1  0.05501214  0.06045254  0.31410192  1
  Zn  Zn135  1  -0.07434636  0.05693236  0.81071886  1
  Zn  Zn136  1  0.06221082  0.56028535  0.30999137  1
  Zn  Zn137  1  0.06818138  0.55798484  0.80825729  1
  Zn  Zn138  1  0.56441207  0.05451738  0.18831504  1
  Zn  Zn139  1  0.57282742  0.07661499  0.80206897  1
  Zn  Zn140  1  0.56257532  0.56231584  0.30916866  1
  Zn  Zn141  1  0.56303993  0.56931224  0.81197343  1
  Zn  Zn142  1  0.43382398  0.19326961  0.43745380  1
  Zn  Zn143  1  0.43142036  0.22518261  0.91911641  1
  Zn  Zn144  1  0.43339031  0.68913285  0.43590166  1
  Zn  Zn145  1  0.44473659  0.68014280  0.93827199  1
  Zn  Zn146  1  0.89550787  0.16430679  0.46597212  1
  Zn  Zn147  1  0.93689636  0.19128506  0.94362501  1
  Zn  Zn148  1  0.94093410  0.68431124  0.43789482  1
  Zn  Zn149  1  0.93742813  0.68867918  0.93610246  1
  Zn  Zn150  1  0.05594767  0.31593657  0.06226238  1
  Zn  Zn151  1  0.05362607  0.30705974  0.56325404  1
  Zn  Zn152  1  0.05648816  0.81163119  0.06182275  1
  Zn  Zn153  1  0.06568253  0.80965647  0.56507712  1
  Zn  Zn154  1  0.54378557  0.28533379  0.04034309  1
  Zn  Zn155  1  0.55605675  0.31909628  0.57105074  1
  Zn  Zn156  1  0.56169599  0.82158468  0.06208281  1
  Zn  Zn157  1  0.56234549  0.81342441  0.55985276  1
  O  O158  1  0.11875807  0.11114712  0.11715415  1
  O  O159  1  0.11700561  0.11405143  0.61907562  1
  O  O160  1  0.11282804  0.62596528  0.12151197  1
  O  O161  1  0.13166483  0.62580838  0.61505901  1
  O  O162  1  0.65787646  0.10431297  0.13201316  1
  O  O163  1  0.63727868  0.11044707  0.61559003  1
  O  O164  1  0.63436714  0.60785467  0.13214814  1
  O  O165  1  0.61566987  0.61700848  0.62427737  1
  O  O166  1  0.38340344  0.38583378  0.37699825  1
  O  O167  1  0.39037467  0.32974129  0.89757206  1
  O  O168  1  0.37854393  0.87909242  0.37909326  1
  O  O169  1  0.37421638  0.87211010  0.89049360  1
  O  O170  1  0.87350377  0.38515627  0.38740449  1
  O  O171  1  0.86898197  0.38104590  0.88701618  1
  O  O172  1  0.88334924  0.87700394  0.38474286  1
  O  O173  1  0.87333427  0.87627014  0.88982453  1
  O  O174  1  0.25193907  0.00448307  0.36983819  1
  O  O175  1  0.24748342  0.00457069  0.86490621  1
  O  O176  1  0.25952887  0.50825285  0.36886052  1
  O  O177  1  0.25606873  0.51232083  0.87782845  1
  O  O178  1  0.76459507  -0.00450732  0.38361755  1
  O  O179  1  0.74593060  0.02291004  0.88726488  1
  O  O180  1  0.76190668  0.51072026  0.38535189  1
  O  O181  1  0.74456771  0.50903056  0.86492628  1
  O  O182  1  0.25890184  0.50349341  0.13620715  1
  O  O183  1  0.25050693  0.50589645  0.63667528  1
  O  O184  1  0.23826146  0.98961076  0.13621671  1
  O  O185  1  0.24242651  0.99489488  0.63181243  1
  O  O186  1  0.74186441  0.48679422  0.12135290  1
  O  O187  1  0.74249157  0.50294320  0.63110838  1
  O  O188  1  0.70741810  1.03905494  0.12119815  1
  O  O189  1  0.73953644  0.97976419  0.61973091  1
  O  O190  1  0.00744244  0.36823639  0.25388593  1
  O  O191  1  0.01080596  0.35633621  0.73164810  1
  O  O192  1  -0.00210596  0.87266782  0.26585853  1
  O  O193  1  0.01430905  0.86300155  0.74660950  1
  O  O194  1  0.50811253  0.37346840  0.26270902  1
  O  O195  1  0.50465370  0.35504147  0.72465829  1
  O  O196  1  0.49560515  0.86572823  0.25986150  1
  O  O197  1  0.49563672  0.86582545  0.75556590  1
  O  O198  1  0.51000393  0.13842563  0.25461667  1
  O  O199  1  0.50357742  0.13693677  0.72984734  1
  O  O200  1  0.48824400  0.63550997  0.25784163  1
  O  O201  1  0.50072855  0.63541120  0.73770390  1
  O  O202  1  0.99416583  0.13226947  0.24739085  1
  O  O203  1  0.99525813  0.13094238  0.74294247  1
  O  O204  1  0.99400602  0.62286906  0.23668363  1
  O  O205  1  0.98989934  0.62972837  0.75697846  1
  O  O206  1  0.34021022  0.24750456  0.01609326  1
  O  O207  1  0.36830646  0.26831506  0.49448634  1
  O  O208  1  0.37885363  0.74575568  0.01368583  1
  O  O209  1  0.36602527  0.75655218  0.50767955  1
  O  O210  1  0.86769075  0.26909105  -0.00071447  1
  O  O211  1  0.89226026  0.27281309  0.49847162  1
  O  O212  1  0.86928662  0.76106743  0.00500646  1
  O  O213  1  0.86769895  0.75239951  0.50045118  1
  O  O214  1  0.11671449  0.23714859  0.48956131  1
  O  O215  1  0.11942029  0.24148478  0.99882033  1
  O  O216  1  0.13918788  0.74131733  0.50536685  1
  O  O217  1  0.12327712  0.75597643  0.98472753  1
  O  O218  1  0.61610264  0.26732120  0.48770615  1
  O  O219  1  0.64408273  0.26098628  0.98252912  1
  O  O220  1  0.63194326  0.75343611  0.48603823  1
  O  O221  1  0.63188452  0.74919768  0.99661119  1
  O  O222  1  0.51680127  0.25670010  0.14961740  1
  O  O223  1  0.50103052  0.23555138  0.62753427  1
  O  O224  1  0.49109646  0.75577699  0.13741778  1
  O  O225  1  0.49635545  0.74611497  0.63067596  1
  O  O226  1  0.99954924  0.24884569  0.13903539  1
  O  O227  1  1.00285345  0.23022252  0.63632484  1
  O  O228  1  0.99167649  0.73543920  0.12287213  1
  O  O229  1  1.00140029  0.74824862  0.63862434  1
  O  O230  1  0.01212521  0.25014990  0.36488864  1
  O  O231  1  0.00569476  0.24514396  0.86251431  1
  O  O232  1  -0.00214490  0.76216420  0.37725554  1
  O  O233  1  0.01301360  0.74470281  0.86527736  1
  O  O234  1  0.50501522  0.25973205  0.36878035  1
  O  O235  1  0.52381336  0.24509985  0.84207427  1
  O  O236  1  0.50387804  0.75482886  0.36738926  1
  O  O237  1  0.50850713  0.74762618  0.86608200  1
  O  O238  1  0.23497146  0.12709750  0.49455419  1
  O  O239  1  0.22679762  0.13265291  1.00146628  1
  O  O240  1  0.24496365  0.62840556  0.49258273  1
  O  O241  1  0.25481768  0.62809196  0.98435416  1
  O  O242  1  0.78781313  0.13379781  0.49131361  1
  O  O243  1  0.76055018  0.14621154  0.99803488  1
  O  O244  1  0.75723282  0.63413511  0.48977753  1
  O  O245  1  0.75072473  0.63552616  0.99189436  1
  O  O246  1  0.23759829  0.36404356  0.00038345  1
  O  O247  1  0.26294603  0.38042026  0.49134159  1
  O  O248  1  0.26073263  0.87015771  0.00860965  1
  O  O249  1  0.25610340  0.86515190  0.50528111  1
  O  O250  1  0.76059948  0.37246562  0.01037487  1
  O  O251  1  0.76402618  0.38324795  0.51058922  1
  O  O252  1  0.75853334  0.86773977  -0.00103941  1
  O  O253  1  0.75826238  0.85909908  0.50109639  1
  O  O254  1  0.13614493  0.48957468  0.25628797  1
  O  O255  1  0.13946477  0.49162802  0.75622945  1
  O  O256  1  0.13004859  1.00239341  0.24257282  1
  O  O257  1  0.13373998  0.99069739  0.74068131  1
  O  O258  1  0.62507610  0.48995896  0.24496742  1
  O  O259  1  0.63289739  0.50110291  0.73900741  1
  O  O260  1  0.62077056  0.98110359  0.25806867  1
  O  O261  1  0.61950088  0.99966953  0.72692893  1
  O  O262  1  0.36105049  -0.00484759  0.26409776  1
  O  O263  1  0.35984930  -0.00845846  0.74734976  1
  O  O264  1  0.37211671  0.50281222  0.25505324  1
  O  O265  1  0.35964274  0.49796563  0.75217824  1
  O  O266  1  0.88081544  0.00848738  0.26011083  1
  O  O267  1  0.86950205  -0.01245154  0.74819636  1
  O  O268  1  0.88136019  0.50896965  0.26053741  1
  O  O269  1  0.86831718  0.50760798  0.75349709  1
  O  O270  1  0.12379018  0.36356346  0.36916220  1
  O  O271  1  0.12042551  0.35676691  0.88074172  1
  O  O272  1  0.11172777  0.87772730  0.38328517  1
  O  O273  1  0.13372259  0.86534526  0.86684857  1
  O  O274  1  0.61822595  0.37487957  0.36956843  1
  O  O275  1  0.64207620  0.36140452  0.86580925  1
  O  O276  1  0.61608517  0.86346023  0.36650562  1
  O  O277  1  0.62274699  0.86128926  0.88242105  1
  O  O278  1  0.38286677  0.15648634  0.12358710  1
  O  O279  1  0.37993898  0.12170251  0.62058269  1
  O  O280  1  0.36916504  0.63304071  0.13654580  1
  O  O281  1  0.38556449  0.63741514  0.61746043  1
  O  O282  1  0.87176758  0.11611697  0.14735925  1
  O  O283  1  0.88955093  0.11327156  0.62380101  1
  O  O284  1  0.87577408  0.63164038  0.13339999  1
  O  O285  1  0.86724506  0.62750363  0.63975508  1
  O  O286  1  0.24397114  0.24832517  0.12487584  1
  O  O287  1  0.21157263  0.27037031  0.62218904  1
  O  O288  1  0.25857002  0.75656884  0.12257431  1
  O  O289  1  0.25857561  0.75261604  0.62038246  1
  O  O290  1  0.74104460  0.26542851  0.11296346  1
  O  O291  1  0.75001637  0.26795885  0.62530867  1
  O  O292  1  0.75902045  0.74198227  0.11421945  1
  O  O293  1  0.74631314  0.75575494  0.61472023  1
  O  O294  1  0.23861594  0.23980243  0.37661105  1
  O  O295  1  0.23252019  0.24242132  0.89129111  1
  O  O296  1  0.26109632  0.73788274  0.38621125  1
  O  O297  1  0.23800342  0.73794061  0.87210417  1
  O  O298  1  0.73267093  0.25693723  0.37801882  1
  O  O299  1  0.75055546  0.24291242  0.88180960  1
  O  O300  1  0.74378797  0.74082334  0.38087866  1
  O  O301  1  0.74425277  0.74616678  0.88352718  1
  O  O302  1  0.00158587  0.11755061  0.00779638  1
  O  O303  1  0.00301200  0.11171443  0.50879480  1
  O  O304  1  -0.00911179  0.61536221  0.01146727  1
  O  O305  1  0.00895082  0.61464770  0.49942094  1
  O  O306  1  0.50065026  0.18618230  0.00209492  1
  O  O307  1  0.49533777  0.12977573  0.51060896  1
  O  O308  1  0.50620267  0.60366455  -0.00425483  1
  O  O309  1  0.49428475  0.61492133  0.50573375  1
  O  O310  1  0.48911859  0.38664873  0.49198287  1
  O  O311  1  0.51108374  0.39063621  1.00517691  1
  O  O312  1  0.48725985  0.86313704  0.48612113  1
  O  O313  1  0.48279650  0.87245217  0.99906827  1
  O  O314  1  0.99345305  0.38843862  0.50232533  1
  O  O315  1  0.98372752  0.38864228  1.00969371  1
  O  O316  1  0.99401438  0.87730606  0.49865290  1
  O  O317  1  0.98338325  0.88120512  1.00333993  1
  O  O318  1  0.49370027  0.49650948  0.38017747  1
  O  O319  1  0.51346881  0.49220064  0.87930734  1
  O  O320  1  0.48809191  0.98987529  0.37794894  1
  O  O321  1  0.53584854  1.00296643  0.89024215  1
  O  O322  1  0.99006449  0.49988514  0.38254832  1
  O  O323  1  0.99736632  0.51018354  0.89128974  1
  O  O324  1  0.99453237  0.98641572  0.38591842  1
  O  O325  1  0.99452160  1.00522099  0.89133009  1
  O  O326  1  0.00920247  -0.00483849  0.11865675  1
  O  O327  1  0.00777298  0.00287275  0.62073295  1
  O  O328  1  -0.00494620  0.51354498  0.11596141  1
  O  O329  1  -0.00291226  0.49985735  0.61467367  1
  O  O330  1  0.48716940  0.01930828  0.11646490  1
  O  O331  1  0.50714515  0.01594223  0.62265724  1
  O  O332  1  0.51430285  0.49726197  0.13120571  1
  O  O333  1  0.50597129  0.50798543  0.62004485  1
  O  O334  1  0.24279079  0.38330858  0.25537774  1
  O  O335  1  0.24723012  0.38897896  0.75745050  1
  O  O336  1  0.25216616  0.88251164  0.23951239  1
  O  O337  1  0.24199483  0.88229221  0.74618822  1
  O  O338  1  0.74561870  0.36594811  0.23918772  1
  O  O339  1  0.75896394  0.38958513  0.73417221  1
  O  O340  1  0.74068335  0.86850792  0.25582911  1
  O  O341  1  0.75000669  0.86162065  0.73498082  1
  O  O342  1  0.24291419  0.11380107  0.26339827  1
  O  O343  1  0.25095784  0.11187423  0.75433913  1
  O  O344  1  0.25925629  0.61485482  0.25645524  1
  O  O345  1  0.24481390  0.61130341  0.76448587  1
  O  O346  1  0.76651808  0.13468518  0.26945969  1
  O  O347  1  0.76087024  0.12587940  0.76026588  1
  O  O348  1  0.76257499  0.63053733  0.26206789  1
  O  O349  1  0.75612261  0.61961897  0.75696437  1
  O  O350  1  0.36065809  0.11483825  0.38771857  1
  O  O351  1  0.38945688  0.12068163  0.91525934  1
  O  O352  1  0.36840743  0.61600010  0.36661340  1
  O  O353  1  0.36658635  0.63404741  0.86809614  1
  O  O354  1  0.88935741  0.10722335  0.36505699  1
  O  O355  1  0.86716331  0.12972857  0.87827564  1
  O  O356  1  0.87099209  0.61981769  0.36748711  1
  O  O357  1  0.86217752  0.62732109  0.86660494  1
  O  O358  1  0.12160802  0.37198908  0.13850036  1
  O  O359  1  0.15113117  0.33305648  0.62307527  1
  O  O360  1  0.13397939  0.88284754  0.11313057  1
  O  O361  1  0.13205182  0.88114338  0.63088029  1
  O  O362  1  0.63539555  0.38707574  0.13753329  1
  O  O363  1  0.64002237  0.38769670  0.62357311  1
  O  O364  1  0.62415788  0.86990298  0.14253691  1
  O  O365  1  0.63452764  0.87528317  0.62298108  1
  O  O366  1  0.11881032  0.25489200  0.25533613  1
  O  O367  1  0.12057352  0.24667471  0.76640505  1
  O  O368  1  0.13119793  0.74540092  0.25810146  1
  O  O369  1  0.12143432  0.75404552  0.75906707  1
  O  O370  1  0.61801749  0.25971658  0.26499718  1
  O  O371  1  0.64467257  0.25757971  0.75279981  1
  O  O372  1  0.61628404  0.75569265  0.25795777  1
  O  O373  1  0.61550285  0.74680946  0.75880290  1
  O  O374  1  0.38573650  0.25604109  0.24594975  1
  O  O375  1  0.38277907  0.25048533  0.74986934  1
  O  O376  1  0.37884989  0.74254311  0.24305051  1
  O  O377  1  0.38158712  0.75745876  0.73708030  1
  O  O378  1  0.88563540  0.23639444  0.26439250  1
  O  O379  1  0.88825754  0.25833402  0.75310496  1
  O  O380  1  0.88292495  0.73856491  0.24410729  1
  O  O381  1  0.88594958  0.74362941  0.75062528  1
  O  O382  1  0.38110618  0.49531511  0.48976246  1
  O  O383  1  0.39431440  0.49462908  1.00262667  1
  O  O384  1  0.36276428  0.98419474  0.48849513  1
  O  O385  1  0.37259204  0.99015479  1.00418523  1
  O  O386  1  0.88872765  0.49793558  0.49372779  1
  O  O387  1  0.87622992  0.49060162  0.99756000  1
  O  O388  1  0.88492311  0.98614047  0.49582666  1
  O  O389  1  0.87642317  0.98589162  1.01380555  1
  O  O390  1  0.11676829  0.00711099  0.00369085  1
  O  O391  1  0.11819363  0.00457903  0.50927240  1
  O  O392  1  0.10739612  0.49184146  0.00035942  1
  O  O393  1  0.11179584  0.50466601  0.49791759  1
  O  O394  1  0.58310304  0.00720373  -0.04357348  1
  O  O395  1  0.62071301  -0.01099954  0.51017387  1
  O  O396  1  0.61970112  0.50108502  0.01456451  1
  O  O397  1  0.61393560  0.49473046  0.50747205  1
  O  O398  1  0.38371473  0.35071124  0.11545504  1
  O  O399  1  0.37611503  0.38297257  0.60757319  1
  O  O400  1  0.36517756  0.86809764  0.11646512  1
  O  O401  1  0.37354414  0.86826209  0.61533760  1
  O  O402  1  0.86286145  0.38164526  0.12336499  1
  O  O403  1  0.86487509  0.38473928  0.61361258  1
  O  O404  1  0.87836052  0.85897842  0.12565014  1
  O  O405  1  0.86383770  0.86846284  0.61259026  1
  O  O406  1  0.12845522  0.12677416  0.38296081  1
  O  O407  1  0.11631523  0.13477339  0.89218345  1
  O  O408  1  0.13650839  0.61767179  0.38364228  1
  O  O409  1  0.12865710  0.63458220  0.87684889  1
  O  O410  1  0.62363696  0.14042567  0.38652331  1
  O  O411  1  0.64412291  0.14390907  0.86601815  1
  O  O412  1  0.63448531  0.63362324  0.36606860  1
  O  O413  1  0.63697203  0.63674807  0.87566046  1
