# generated using pymatgen
data_V79Zn79O256
_symmetry_space_group_name_H-M   'P 1'
_cell_length_a   16.86218737
_cell_length_b   16.86045919
_cell_length_c   16.85794153
_cell_angle_alpha   90.01211844
_cell_angle_beta   90.01158552
_cell_angle_gamma   89.99064069
_symmetry_Int_Tables_number   1
_chemical_formula_structural   V79Zn79O256
_chemical_formula_sum   'V79 Zn79 O256'
_cell_volume   4792.78368281
_cell_formula_units_Z   1
loop_
 _symmetry_equiv_pos_site_id
 _symmetry_equiv_pos_as_xyz
  1  'x, y, z'
loop_
 _atom_site_type_symbol
 _atom_site_label
 _atom_site_symmetry_multiplicity
 _atom_site_fract_x
 _atom_site_fract_y
 _atom_site_fract_z
 _atom_site_occupancy
  V  V0  1  0.36877840  -0.00109586  0.87358602  1
  V  V1  1  0.62582433  0.25504486  0.87101296  1
  V  V2  1  0.00677613  0.37483372  0.86754461  1
  V  V3  1  0.62585066  0.62365122  -0.00193982  1
  V  V4  1  0.11854771  0.75180087  0.86295852  1
  V  V5  1  0.49801777  0.49483961  0.00349923  1
  V  V6  1  0.87549880  0.61422689  0.25297577  1
  V  V7  1  0.13168980  0.25133079  0.37278995  1
  V  V8  1  0.62556182  0.12374419  -0.00786534  1
  V  V9  1  0.49219120  0.37364868  0.87469491  1
  V  V10  1  0.00453848  0.50310038  -0.00238735  1
  V  V11  1  -0.00629786  -0.00493112  -0.00603624  1
  V  V12  1  0.86914292  0.38335803  0.49128229  1
  V  V13  1  0.00303535  0.25250701  0.74612327  1
  V  V14  1  0.36345448  0.12330836  0.75319801  1
  V  V15  1  0.62054003  0.13627504  0.49669787  1
  V  V16  1  0.62039728  -0.00100784  0.11738779  1
  V  V17  1  -0.00423072  0.62707204  0.12279119  1
  V  V18  1  0.38224724  0.87849479  0.00151156  1
  V  V19  1  0.62397302  0.87409006  0.24977608  1
  V  V20  1  0.75040261  -0.00150280  0.24538395  1
  V  V21  1  0.12868105  0.37480239  0.25029253  1
  V  V22  1  0.50606358  0.87584103  0.87829821  1
  V  V23  1  0.31296852  0.81174832  0.56533817  1
  V  V24  1  0.75273852  0.00898455  0.76464052  1
  V  V25  1  0.89208338  0.74528966  0.62521001  1
  V  V26  1  0.37657785  0.25959467  0.11315234  1
  V  V27  1  0.51418235  0.26356581  0.25797619  1
  V  V28  1  -0.00326789  0.12132478  0.12713173  1
  V  V29  1  0.62573288  0.62580105  0.50968076  1
  V  V30  1  0.74803532  0.63575595  0.87362929  1
  V  V31  1  0.50073235  0.12822736  0.12108263  1
  V  V32  1  0.50308265  0.24914671  0.74489212  1
  V  V33  1  0.74535314  0.13099943  0.38022960  1
  V  V34  1  0.87601939  -0.00306383  0.37304844  1
  V  V35  1  0.25585406  0.37977654  0.10276807  1
  V  V36  1  0.75189561  0.75012745  0.50228963  1
  V  V37  1  0.75294300  0.61382146  0.37860641  1
  V  V38  1  0.74403472  0.37134544  0.62627796  1
  V  V39  1  0.48743483  0.74761115  0.75472550  1
  V  V40  1  0.62374091  -0.00239712  0.61801274  1
  V  V41  1  0.87272008  0.24227260  0.61372094  1
  V  V42  1  0.87881802  0.87441010  0.50167475  1
  V  V43  1  0.12604839  0.50634040  0.11784025  1
  V  V44  1  0.36545649  0.24990131  0.61374250  1
  V  V45  1  0.36690854  0.11911634  0.24982237  1
  V  V46  1  0.13545628  0.73593473  0.37535107  1
  V  V47  1  -0.00762751  0.74960755  0.24820992  1
  V  V48  1  0.12302151  -0.00622915  0.63045258  1
  V  V49  1  0.25222392  0.50312390  0.26417293  1
  V  V50  1  0.37701639  0.74740168  0.12594670  1
  V  V51  1  -0.00155586  0.25341839  0.24253840  1
  V  V52  1  0.74250315  0.49496623  0.75195801  1
  V  V53  1  0.63329926  0.86679533  0.75656416  1
  V  V54  1  0.37973098  0.51305457  0.86278992  1
  V  V55  1  0.48717641  0.62833235  0.63347754  1
  V  V56  1  0.13349174  0.87582188  0.25506024  1
  V  V57  1  0.87370277  0.49729966  0.87641646  1
  V  V58  1  0.37093282  0.62222463  0.26329324  1
  V  V59  1  0.76353409  0.24462490  -0.00730548  1
  V  V60  1  0.87742928  0.86701435  0.00377548  1
  V  V61  1  0.73081398  0.50026151  0.23934081  1
  V  V62  1  0.75536433  0.74458387  0.01079920  1
  V  V63  1  0.88871128  0.62496631  0.74449211  1
  V  V64  1  0.12614581  0.13606709  0.50600747  1
  V  V65  1  0.74433584  0.36578062  0.12612336  1
  V  V66  1  0.48805485  0.49688387  0.49497147  1
  V  V67  1  0.21517633  0.41657152  0.63483211  1
  V  V68  1  0.50628310  0.61710031  0.12785108  1
  V  V69  1  -0.00319238  0.01246800  0.50385285  1
  V  V70  1  -0.00158666  0.50982890  0.50264238  1
  V  V71  1  0.87281838  0.13545578  0.24797480  1
  V  V72  1  0.49929188  0.74910945  0.25724662  1
  V  V73  1  0.49138376  0.89321394  0.38508673  1
  V  V74  1  0.13125770  -0.00181890  0.13083287  1
  V  V75  1  0.87369861  0.12752912  0.77188500  1
  V  V76  1  0.13033746  0.62469358  0.51428881  1
  V  V77  1  0.24812062  0.62350121  0.86527305  1
  V  V78  1  0.24366290  0.74239634  0.00419487  1
  Zn  Zn79  1  0.25136089  0.12252659  0.37260807  1
  Zn  Zn80  1  0.61699761  0.49130070  0.63319267  1
  Zn  Zn81  1  0.35769678  0.37928432  0.49549605  1
  Zn  Zn82  1  0.25720187  0.87881928  0.13085563  1
  Zn  Zn83  1  -0.01322161  0.38020211  0.36708170  1
  Zn  Zn84  1  0.49421798  0.11828452  0.61833210  1
  Zn  Zn85  1  0.00494355  0.87360271  0.37525612  1
  Zn  Zn86  1  0.00763428  0.87839421  0.85801190  1
  Zn  Zn87  1  0.15472719  0.24421303  0.88685476  1
  Zn  Zn88  1  0.62438524  0.75263332  0.38154587  1
  Zn  Zn89  1  0.75981512  0.86409537  0.13130429  1
  Zn  Zn90  1  0.23426646  -0.01771437  0.75186470  1
  Zn  Zn91  1  0.75339034  0.87609283  0.62951812  1
  Zn  Zn92  1  0.14522651  0.11899683  -0.01618124  1
  Zn  Zn93  1  0.87933094  0.36968614  0.00610019  1
  Zn  Zn94  1  0.20585040  0.17529333  0.14919892  1
  Zn  Zn95  1  0.18544719  0.18820743  0.68581286  1
  Zn  Zn96  1  0.18534671  0.68711237  0.19076319  1
  Zn  Zn97  1  0.19152745  0.69190607  0.68518109  1
  Zn  Zn98  1  0.68864681  0.18699613  0.18367896  1
  Zn  Zn99  1  0.68949599  0.18552567  0.68565613  1
  Zn  Zn100  1  0.68558878  0.68353897  0.18985331  1
  Zn  Zn101  1  0.69665842  0.68519247  0.68789212  1
  Zn  Zn102  1  0.32521525  0.30698972  0.30950560  1
  Zn  Zn103  1  0.30790762  0.32080940  0.80001061  1
  Zn  Zn104  1  0.31381090  0.81347280  0.32353376  1
  Zn  Zn105  1  0.30947489  0.81303542  0.81471361  1
  Zn  Zn106  1  0.75088325  0.33764854  0.33933834  1
  Zn  Zn107  1  0.81657317  0.31087823  0.81099869  1
  Zn  Zn108  1  0.81267762  0.80680768  0.31490746  1
  Zn  Zn109  1  0.84884522  0.83354846  0.79501840  1
  Zn  Zn110  1  0.18511123  0.43683092  0.44440252  1
  Zn  Zn111  1  0.18290271  0.44290545  0.90943415  1
  Zn  Zn112  1  0.18621098  0.93265741  0.44866680  1
  Zn  Zn113  1  0.18770681  0.93068897  0.94238948  1
  Zn  Zn114  1  0.67232507  0.43961013  0.44625675  1
  Zn  Zn115  1  0.68429515  0.43469244  0.94155928  1
  Zn  Zn116  1  0.68689378  0.93690421  0.43429593  1
  Zn  Zn117  1  0.69583464  0.93149331  0.93927523  1
  Zn  Zn118  1  0.31694605  0.06509165  0.05733106  1
  Zn  Zn119  1  0.30416400  0.06537660  0.56286313  1
  Zn  Zn120  1  0.31812836  0.56047905  0.06142099  1
  Zn  Zn121  1  0.30565967  0.56883377  0.57048852  1
  Zn  Zn122  1  0.81452939  0.06112258  0.05813040  1
  Zn  Zn123  1  0.80503415  0.05895296  0.56463049  1
  Zn  Zn124  1  0.81532163  0.56064320  0.06466519  1
  Zn  Zn125  1  0.81382456  0.55779179  0.56667427  1
  Zn  Zn126  1  0.43483262  0.43691065  0.19376914  1
  Zn  Zn127  1  0.43178384  0.43297606  0.68404361  1
  Zn  Zn128  1  0.43959936  0.93838772  0.19126823  1
  Zn  Zn129  1  0.43411979  0.93390640  0.68743881  1
  Zn  Zn130  1  0.93075857  0.43688989  0.18447102  1
  Zn  Zn131  1  0.93466548  0.43564924  0.68164973  1
  Zn  Zn132  1  0.94081491  0.93411737  0.18570316  1
  Zn  Zn133  1  0.94203062  0.94623995  0.68532912  1
  Zn  Zn134  1  0.06326577  0.06502451  0.31324570  1
  Zn  Zn135  1  0.05947656  0.07366209  0.81196237  1
  Zn  Zn136  1  0.05805136  0.55584585  0.31637382  1
  Zn  Zn137  1  0.07162566  0.56210499  0.80841044  1
  Zn  Zn138  1  0.55912396  0.06923768  0.30769470  1
  Zn  Zn139  1  0.55787626  0.06020174  0.80903163  1
  Zn  Zn140  1  0.56158464  0.56369710  0.32047320  1
  Zn  Zn141  1  0.56542948  0.56335358  0.81609836  1
  Zn  Zn142  1  0.44159279  0.18302326  0.43115901  1
  Zn  Zn143  1  0.43471900  0.18597311  0.93412480  1
  Zn  Zn144  1  0.43493627  0.68908516  0.44575584  1
  Zn  Zn145  1  0.44106191  0.68968416  0.93791120  1
  Zn  Zn146  1  0.93629241  0.19456823  0.42958205  1
  Zn  Zn147  1  0.97618043  0.19822622  0.94849618  1
  Zn  Zn148  1  0.93982313  0.68755924  0.43187236  1
  Zn  Zn149  1  0.93508968  0.68633549  0.93664729  1
  Zn  Zn150  1  0.06998481  0.31502502  0.05798144  1
  Zn  Zn151  1  0.05607729  0.32063225  0.56266218  1
  Zn  Zn152  1  0.06315568  0.81363294  0.06591879  1
  Zn  Zn153  1  0.07352348  0.81198364  0.55919296  1
  Zn  Zn154  1  0.56665672  0.31226381  0.06185931  1
  Zn  Zn155  1  0.55687376  0.31129342  0.55866335  1
  Zn  Zn156  1  0.56727774  0.80615739  0.06251783  1
  Zn  Zn157  1  0.55632464  0.81469829  0.56860308  1
  O  O158  1  0.10925070  0.10810379  0.13925934  1
  O  O159  1  0.11758903  0.12768374  0.60925248  1
  O  O160  1  0.11469552  0.61294159  0.13137247  1
  O  O161  1  0.11779386  0.64035725  0.61235386  1
  O  O162  1  0.62061161  0.11814834  0.11560851  1
  O  O163  1  0.63156204  0.11517070  0.61119079  1
  O  O164  1  0.61244364  0.62688036  0.11899612  1
  O  O165  1  0.62556537  0.62403734  0.61829464  1
  O  O166  1  0.35533233  0.37940573  0.38544574  1
  O  O167  1  0.38775132  0.38986618  0.87091231  1
  O  O168  1  0.39263632  0.87751397  0.36714610  1
  O  O169  1  0.38475242  0.87720064  0.88424694  1
  O  O170  1  0.85748838  0.36609984  0.39033871  1
  O  O171  1  0.88054696  0.38672026  0.87604322  1
  O  O172  1  0.87444205  0.88234925  0.38212806  1
  O  O173  1  0.88116676  0.86680505  0.90005624  1
  O  O174  1  0.27461114  0.00426059  0.40960290  1
  O  O175  1  0.26334146  -0.01069263  0.87238869  1
  O  O176  1  0.23877787  0.50281353  0.36159502  1
  O  O177  1  0.27255006  0.51593647  0.88932073  1
  O  O178  1  0.75736674  0.00352798  0.36391741  1
  O  O179  1  0.75138430  0.00073245  0.86421697  1
  O  O180  1  0.74200985  0.51012461  0.36524066  1
  O  O181  1  0.75722686  0.50265184  0.87155037  1
  O  O182  1  0.24353238  0.49475748  0.12462368  1
  O  O183  1  0.22892497  0.51782678  0.63920131  1
  O  O184  1  0.23415557  0.99712437  0.12347474  1
  O  O185  1  0.22638254  1.00855955  0.62642032  1
  O  O186  1  0.74391008  0.50316527  0.13566797  1
  O  O187  1  0.74843173  0.48992981  0.63558960  1
  O  O188  1  0.74320871  0.99971392  0.13524814  1
  O  O189  1  0.74003290  0.99777855  0.63660279  1
  O  O190  1  0.00738291  0.37136665  0.24396708  1
  O  O191  1  -0.01037828  0.36529812  0.75502910  1
  O  O192  1  0.00826919  0.86457019  0.25085324  1
  O  O193  1  -0.04401150  0.86753654  0.75982156  1
  O  O194  1  0.50179496  0.36404501  0.24443770  1
  O  O195  1  0.49503333  0.35915087  0.75653804  1
  O  O196  1  0.50755257  0.86770574  0.25562321  1
  O  O197  1  0.50952668  0.86198902  0.75555871  1
  O  O198  1  0.49446684  0.13431659  0.23680081  1
  O  O199  1  0.49120471  0.13477865  0.74870145  1
  O  O200  1  0.49365656  0.62970853  0.24598810  1
  O  O201  1  0.51194134  0.63800811  0.74447899  1
  O  O202  1  0.99094902  0.13085014  0.24693649  1
  O  O203  1  0.98211266  0.13862477  0.75081985  1
  O  O204  1  0.99283423  0.62748556  0.24498052  1
  O  O205  1  0.98768276  0.61690933  0.75491847  1
  O  O206  1  0.38369096  0.24915355  0.01353471  1
  O  O207  1  0.38027120  0.23312075  0.51336971  1
  O  O208  1  0.37287857  0.75585572  0.01029112  1
  O  O209  1  0.36537061  0.75515910  0.49821429  1
  O  O210  1  0.86579611  0.24522104  -0.00850643  1
  O  O211  1  0.87936780  0.26047140  0.50847870  1
  O  O212  1  0.86577370  0.74848783  0.00427183  1
  O  O213  1  0.87226784  0.75519945  0.50352242  1
  O  O214  1  0.10751423  0.24262841  0.48870280  1
  O  O215  1  0.08649394  0.22993717  0.98745122  1
  O  O216  1  0.11204260  0.73539720  0.48357208  1
  O  O217  1  0.14207335  0.75316080  1.00328844  1
  O  O218  1  0.62580932  0.23524100  0.50242768  1
  O  O219  1  0.63372253  0.24133248  0.99006388  1
  O  O220  1  0.63583857  0.74479551  0.50573432  1
  O  O221  1  0.63624324  0.73484643  1.00254726  1
  O  O222  1  0.49764240  0.24608960  0.12879076  1
  O  O223  1  0.49741783  0.24175849  0.63195860  1
  O  O224  1  0.49419668  0.74223571  0.13576348  1
  O  O225  1  0.50571585  0.74014268  0.64107816  1
  O  O226  1  1.00578399  0.23896740  0.13572103  1
  O  O227  1  0.98118886  0.25920976  0.63629477  1
  O  O228  1  1.01128076  0.73684058  0.13557556  1
  O  O229  1  0.99046868  0.75293045  0.61736723  1
  O  O230  1  0.00640755  0.25607636  0.35838053  1
  O  O231  1  -0.01833351  0.26242234  0.85494152  1
  O  O232  1  0.00803738  0.75139185  0.36236954  1
  O  O233  1  0.01733036  0.74550853  0.88470802  1
  O  O234  1  0.49951158  0.24661852  0.35690865  1
  O  O235  1  0.50421845  0.25645989  0.86941085  1
  O  O236  1  0.50201960  0.75152057  0.36384439  1
  O  O237  1  0.50311856  0.75824115  0.86464750  1
  O  O238  1  0.22868137  0.13139248  0.49636080  1
  O  O239  1  0.23772862  0.14026276  1.04202458  1
  O  O240  1  0.22950850  0.61934150  0.50038831  1
  O  O241  1  0.25896064  0.63921552  0.99818161  1
  O  O242  1  0.74227253  0.11767176  0.48564294  1
  O  O243  1  0.74342215  0.13796027  1.00677997  1
  O  O244  1  0.74671465  0.62823251  0.49763228  1
  O  O245  1  0.74615598  0.62580040  0.99499262  1
  O  O246  1  0.24081053  0.38666158  0.00516352  1
  O  O247  1  0.24553039  0.39487905  0.53245315  1
  O  O248  1  0.26478198  0.86098295  0.00435344  1
  O  O249  1  0.23545328  0.85823219  0.51578851  1
  O  O250  1  0.75277963  0.36187454  0.00483831  1
  O  O251  1  0.75884720  0.38769300  0.51590342  1
  O  O252  1  0.75620767  0.86112885  0.00583442  1
  O  O253  1  0.76020738  0.86640851  0.49727902  1
  O  O254  1  0.13196292  0.49443554  0.24033209  1
  O  O255  1  0.14940288  0.48585524  0.80561774  1
  O  O256  1  0.11762035  0.98880638  0.24300469  1
  O  O257  1  0.11517684  1.00965795  0.73456569  1
  O  O258  1  0.63170302  0.50768681  0.24911059  1
  O  O259  1  0.63751402  0.49927234  0.75256009  1
  O  O260  1  0.63252449  0.99391926  0.24166290  1
  O  O261  1  0.63916719  0.99732205  0.74610389  1
  O  O262  1  0.37649954  0.01862957  0.23904594  1
  O  O263  1  0.37496418  0.01216042  0.75365110  1
  O  O264  1  0.36039065  0.50683869  0.24890109  1
  O  O265  1  0.38362740  0.50424772  0.76342579  1
  O  O266  1  0.86873514  0.00345945  0.25612001  1
  O  O267  1  0.86403822  0.01944525  0.74268718  1
  O  O268  1  0.86614613  0.51038514  0.25117814  1
  O  O269  1  0.86765004  0.50810836  0.75552107  1
  O  O270  1  0.12469285  0.37043534  0.36399166  1
  O  O271  1  0.10667230  0.35646873  0.88320736  1
  O  O272  1  0.12444945  0.86797090  0.37016664  1
  O  O273  1  0.12532398  0.85860880  0.87756771  1
  O  O274  1  0.64769011  0.36189679  0.37486526  1
  O  O275  1  0.61449656  0.36320475  0.87681323  1
  O  O276  1  0.61847536  0.87424139  0.36251187  1
  O  O277  1  0.61764954  0.88406055  0.86800263  1
  O  O278  1  0.38566457  0.13442583  0.12791118  1
  O  O279  1  0.37621281  0.12478310  0.63433775  1
  O  O280  1  0.38465437  0.63301923  0.13238356  1
  O  O281  1  0.38939171  0.62631292  0.63140234  1
  O  O282  1  0.88445396  0.11514337  0.13711671  1
  O  O283  1  0.86683115  0.14089220  0.61633343  1
  O  O284  1  0.88748169  0.61963222  0.13564037  1
  O  O285  1  0.87429043  0.62789217  0.63671404  1
  O  O286  1  0.25811474  0.27609112  0.12757150  1
  O  O287  1  0.26521923  0.24438215  0.62478447  1
  O  O288  1  0.25943786  0.74809385  0.11882148  1
  O  O289  1  0.27254324  0.74387625  0.63023442  1
  O  O290  1  0.75057823  0.25846632  0.11398516  1
  O  O291  1  0.75912727  0.26190094  0.62946716  1
  O  O292  1  0.74859271  0.74465610  0.11696565  1
  O  O293  1  0.76286080  0.75060301  0.61336915  1
  O  O294  1  0.23381064  0.24906464  0.36491472  1
  O  O295  1  0.26356043  0.26295804  0.88032962  1
  O  O296  1  0.23463716  0.74713992  0.37084482  1
  O  O297  1  0.24856945  0.74173760  0.88749882  1
  O  O298  1  0.75559308  0.22781458  0.36865429  1
  O  O299  1  0.74294744  0.25624005  0.88551478  1
  O  O300  1  0.74861323  0.74030203  0.38757519  1
  O  O301  1  0.75791165  0.73597711  0.88498964  1
  O  O302  1  -0.00836936  0.10474754  0.01353505  1
  O  O303  1  0.00433870  0.11800159  0.48657525  1
  O  O304  1  -0.00616467  0.61392718  0.00955959  1
  O  O305  1  -0.00028535  0.61488485  0.49603280  1
  O  O306  1  0.51088094  0.12997525  0.01081151  1
  O  O307  1  0.51711835  0.12001317  0.49741306  1
  O  O308  1  0.50765853  0.62172386  0.00774370  1
  O  O309  1  0.50560650  0.62613282  0.51759647  1
  O  O310  1  0.50200297  0.39552001  0.50541987  1
  O  O311  1  0.50749385  0.38482065  0.99059864  1
  O  O312  1  0.50976679  0.87090581  0.48243652  1
  O  O313  1  0.49399823  0.86443442  0.99247201  1
  O  O314  1  0.98250843  0.38156444  0.49358549  1
  O  O315  1  0.99527925  0.38633478  0.99321261  1
  O  O316  1  0.99012713  0.88639994  0.49667159  1
  O  O317  1  0.99673862  0.88405885  1.00503247  1
  O  O318  1  0.49510166  0.51402410  0.39578165  1
  O  O319  1  0.49515347  0.49650962  0.88026760  1
  O  O320  1  0.50503742  0.99259362  0.37224479  1
  O  O321  1  0.48749998  0.98416820  0.86592272  1
  O  O322  1  0.99634576  0.49335940  0.38734346  1
  O  O323  1  0.99284109  0.49528438  0.87977129  1
  O  O324  1  0.98754421  0.99923068  0.37962090  1
  O  O325  1  1.00989275  0.99806769  0.89211112  1
  O  O326  1  0.00799769  0.00327809  0.12014435  1
  O  O327  1  0.00295637  0.00792994  0.61184157  1
  O  O328  1  0.00662970  0.50474853  0.11802055  1
  O  O329  1  -0.00884866  0.49574856  0.60367784  1
  O  O330  1  0.51304365  0.00956521  0.12923373  1
  O  O331  1  0.52067600  0.00256764  0.63908697  1
  O  O332  1  0.49136010  0.50992465  0.11951912  1
  O  O333  1  0.50136244  0.51492714  0.62865288  1
  O  O334  1  0.24211213  0.39053014  0.24215595  1
  O  O335  1  0.26651518  0.38125681  0.71639777  1
  O  O336  1  0.23866756  0.86749234  0.24921136  1
  O  O337  1  0.26057222  0.87472807  0.74002421  1
  O  O338  1  0.75164406  0.39076892  0.23634546  1
  O  O339  1  0.75955968  0.38282137  0.73807898  1
  O  O340  1  0.74296893  0.87967863  0.25105423  1
  O  O341  1  0.75161208  0.88870330  0.75218095  1
  O  O342  1  0.26330640  0.13170020  0.24193794  1
  O  O343  1  0.26213163  0.12388176  0.74875254  1
  O  O344  1  0.25635696  0.61168985  0.24240172  1
  O  O345  1  0.25379139  0.63115671  0.76745224  1
  O  O346  1  0.75374081  0.11570022  0.25546131  1
  O  O347  1  0.75746147  0.11868732  0.75300590  1
  O  O348  1  0.75354900  0.61691274  0.25656751  1
  O  O349  1  0.75608837  0.61429372  0.75842422  1
  O  O350  1  0.37053968  0.13349232  0.35447004  1
  O  O351  1  0.38016408  0.11370801  0.86364271  1
  O  O352  1  0.37679907  0.63300679  0.36163745  1
  O  O353  1  0.37270312  0.62041991  0.87496327  1
  O  O354  1  0.86493866  0.11496870  0.36886423  1
  O  O355  1  0.87737595  0.12895698  0.86891495  1
  O  O356  1  0.86254467  0.62940425  0.36662244  1
  O  O357  1  0.86915949  0.61625538  0.86436980  1
  O  O358  1  0.13461672  0.38391790  0.12906506  1
  O  O359  1  0.11802517  0.38330627  0.63377066  1
  O  O360  1  0.12637165  0.88389439  0.13560467  1
  O  O361  1  0.11277368  0.89401309  0.62444350  1
  O  O362  1  0.64421266  0.37894839  0.11507859  1
  O  O363  1  0.63974051  0.37145130  0.62043149  1
  O  O364  1  0.62475095  0.88119462  0.13404494  1
  O  O365  1  0.62853941  0.88504046  0.63552082  1
  O  O366  1  0.11689741  0.26192572  0.25241163  1
  O  O367  1  0.10316453  0.24308274  0.74484229  1
  O  O368  1  0.11743519  0.75453780  0.25876028  1
  O  O369  1  0.12434154  0.74369393  0.76383328  1
  O  O370  1  0.61451359  0.24573914  0.24439064  1
  O  O371  1  0.61822854  0.23835949  0.76115676  1
  O  O372  1  0.61688911  0.75712704  0.25008521  1
  O  O373  1  0.63558958  0.76506608  0.74695469  1
  O  O374  1  0.38655964  0.24433202  0.23339030  1
  O  O375  1  0.38208210  0.23725971  0.73879436  1
  O  O376  1  0.38064444  0.74416969  0.24303012  1
  O  O377  1  0.38984092  0.74687782  0.75665344  1
  O  O378  1  0.88232784  0.23806629  0.25382971  1
  O  O379  1  0.87214322  0.23745111  0.73920502  1
  O  O380  1  0.88476335  0.74012684  0.25263535  1
  O  O381  1  0.86861378  0.73059952  0.74097770  1
  O  O382  1  0.38614807  0.50517225  0.51469815  1
  O  O383  1  0.39329779  0.50791796  0.99022257  1
  O  O384  1  0.33442213  1.00477788  0.46509922  1
  O  O385  1  0.37208587  0.98763788  0.99374225  1
  O  O386  1  0.87827885  0.49112880  0.49683679  1
  O  O387  1  0.88238114  0.50284594  0.98840069  1
  O  O388  1  0.87654022  0.99453642  0.49357641  1
  O  O389  1  0.88695732  0.98947948  1.00363036  1
  O  O390  1  0.11591015  -0.00393182  0.01472331  1
  O  O391  1  0.11451099  0.01289702  0.50557625  1
  O  O392  1  0.11431176  0.49623749  0.00566312  1
  O  O393  1  0.11010835  0.51391092  0.49643791  1
  O  O394  1  0.63842411  0.00725585  0.00965836  1
  O  O395  1  0.63129542  -0.00176579  0.51484627  1
  O  O396  1  0.61440815  0.51209539  -0.00383495  1
  O  O397  1  0.61210040  0.51217347  0.50982575  1
  O  O398  1  0.36317115  0.37784536  0.12029295  1
  O  O399  1  0.38596661  0.35454398  0.61248343  1
  O  O400  1  0.37947832  0.86545192  0.12115548  1
  O  O401  1  0.37992817  0.87865401  0.60848790  1
  O  O402  1  0.85481385  0.38664868  0.11795702  1
  O  O403  1  0.86424377  0.36645552  0.61469418  1
  O  O404  1  0.87507565  0.87488711  0.11464189  1
  O  O405  1  0.87370211  0.86774351  0.61284783  1
  O  O406  1  0.12796959  0.13181881  0.37950748  1
  O  O407  1  0.13262945  0.13086200  0.87216984  1
  O  O408  1  0.12382986  0.63392745  0.37202499  1
  O  O409  1  0.14158798  0.63707363  0.88115909  1
  O  O410  1  0.63598364  0.11567987  0.38375218  1
  O  O411  1  0.61576205  0.13084603  0.88607416  1
  O  O412  1  0.63289222  0.62966546  0.39113387  1
  O  O413  1  0.63652779  0.62232182  0.88488957  1
