# generated using pymatgen
data_V79Zn79O256
_symmetry_space_group_name_H-M   'P 1'
_cell_length_a   16.86890823
_cell_length_b   16.89097273
_cell_length_c   16.88339849
_cell_angle_alpha   89.97050421
_cell_angle_beta   90.12868613
_cell_angle_gamma   90.03242625
_symmetry_Int_Tables_number   1
_chemical_formula_structural   V79Zn79O256
_chemical_formula_sum   'V79 Zn79 O256'
_cell_volume   4810.61150131
_cell_formula_units_Z   1
loop_
 _symmetry_equiv_pos_site_id
 _symmetry_equiv_pos_as_xyz
  1  'x, y, z'
loop_
 _atom_site_type_symbol
 _atom_site_label
 _atom_site_symmetry_multiplicity
 _atom_site_fract_x
 _atom_site_fract_y
 _atom_site_fract_z
 _atom_site_occupancy
  V  V0  1  0.88073336  0.61515460  0.25092748  1
  V  V1  1  0.51419564  0.37638448  0.37508214  1
  V  V2  1  0.24556243  0.88555936  0.62468603  1
  V  V3  1  0.87436078  0.49734663  0.88020824  1
  V  V4  1  0.75251461  0.00370311  0.24978975  1
  V  V5  1  0.23807546  0.49304838  0.74262958  1
  V  V6  1  0.50964465  0.11728974  0.61515344  1
  V  V7  1  0.62921440  0.22059158  0.37751304  1
  V  V8  1  0.26108592  0.75747597  0.49675667  1
  V  V9  1  0.88850507  0.62343523  0.74442470  1
  V  V10  1  0.49608873  0.50286741  -0.00441481  1
  V  V11  1  0.50243908  0.62545156  0.12602121  1
  V  V12  1  0.50438424  0.37801511  0.87098895  1
  V  V13  1  0.72601856  0.37355748  0.63197543  1
  V  V14  1  0.73709040  0.49549705  0.75179630  1
  V  V15  1  0.37338762  0.37955110  0.50461345  1
  V  V16  1  -0.00722235  -0.00108406  0.00220214  1
  V  V17  1  0.24459077  0.13345201  0.87453801  1
  V  V18  1  0.00112763  0.50217752  0.00952272  1
  V  V19  1  0.75664596  0.87358900  0.12049180  1
  V  V20  1  0.37418024  0.00032974  0.38783575  1
  V  V21  1  0.87711636  0.00084580  0.86983014  1
  V  V22  1  0.37997425  0.50390708  0.37949966  1
  V  V23  1  0.25817791  0.37230957  0.12960619  1
  V  V24  1  0.62613659  0.87560383  0.24683558  1
  V  V25  1  0.11797501  0.61987883  0.51327653  1
  V  V26  1  0.13333968  0.63096266  -0.00250466  1
  V  V27  1  0.49600518  0.88417064  0.38794852  1
  V  V28  1  0.51326606  0.25391275  0.75102457  1
  V  V29  1  0.37122298  0.61359293  0.75472242  1
  V  V30  1  0.50581259  0.00491639  0.00187195  1
  V  V31  1  0.01120972  0.36787840  0.88112165  1
  V  V32  1  0.11078419  0.26509437  0.36831337  1
  V  V33  1  0.87619225  0.13643935  0.24983919  1
  V  V34  1  0.50045450  0.75117481  0.75129016  1
  V  V35  1  0.37783721  0.62794950  0.25294509  1
  V  V36  1  0.74378311  0.12603418  0.89390233  1
  V  V37  1  0.24876794  0.49598624  0.25361799  1
  V  V38  1  0.25084403  0.25233646  0.00295777  1
  V  V39  1  0.12312507  0.12364055  0.50373099  1
  V  V40  1  0.37482365  0.37838619  -0.00457301  1
  V  V41  1  0.86796097  0.35792962  0.00438691  1
  V  V42  1  0.74472621  0.86503831  0.62479521  1
  V  V43  1  0.88279308  0.74025474  0.62340910  1
  V  V44  1  -0.00753854  0.12201529  0.62756136  1
  V  V45  1  0.36906457  0.87225551  -0.00365408  1
  V  V46  1  -0.00185332  0.14151780  0.13090351  1
  V  V47  1  0.00091847  0.86982935  0.37567095  1
  V  V48  1  -0.00224479  0.24573312  0.75343114  1
  V  V49  1  0.37347928  0.00827368  0.87368206  1
  V  V50  1  0.12198847  0.87190383  0.25185430  1
  V  V51  1  0.74553959  0.00818513  0.74281206  1
  V  V52  1  0.48742480  0.25501913  0.25286977  1
  V  V53  1  0.87008084  0.25645619  0.61910525  1
  V  V54  1  0.25454593  0.62637527  0.37701396  1
  V  V55  1  0.37252578  0.25305886  0.62847666  1
  V  V56  1  0.37688308  0.75588927  0.62235555  1
  V  V57  1  0.74533346  0.36114236  0.12704006  1
  V  V58  1  0.12276940  0.00576612  0.12545339  1
  V  V59  1  0.00308398  -0.00275765  0.50591508  1
  V  V60  1  0.51100698  0.61631362  0.62310632  1
  V  V61  1  0.75573810  0.75101258  0.00078287  1
  V  V62  1  0.50303490  0.75571923  0.24948951  1
  V  V63  1  0.12684292  0.74802366  0.37723345  1
  V  V64  1  0.24801979  0.87157979  0.12106141  1
  V  V65  1  0.25691710  0.00653937  0.24996737  1
  V  V66  1  0.89024749  0.74778024  0.13325350  1
  V  V67  1  0.87356612  0.00122044  0.37340695  1
  V  V68  1  0.52278877  0.49759317  0.50479230  1
  V  V69  1  0.49027672  0.12804683  0.13800067  1
  V  V70  1  0.75050224  0.62445433  0.38427882  1
  V  V71  1  0.12587005  0.49896765  0.12969636  1
  V  V72  1  0.24664734  0.25669701  0.50463592  1
  V  V73  1  0.62697285  0.75230483  0.87562705  1
  V  V74  1  0.12221945  0.37313397  0.72565850  1
  V  V75  1  0.63238712  0.49769658  0.13523333  1
  V  V76  1  0.37217784  0.75069366  0.12127953  1
  V  V77  1  0.25263317  0.12806868  0.37224122  1
  V  V78  1  0.86966961  0.86445708  0.49931666  1
  Zn  Zn79  1  0.75201269  0.62684729  0.87458923  1
  Zn  Zn80  1  0.62052935  0.87987329  0.74336136  1
  Zn  Zn81  1  0.11786311  0.13803525  -0.00354014  1
  Zn  Zn82  1  0.62772699  0.62553743  0.00168376  1
  Zn  Zn83  1  0.86965903  0.47312110  0.37625128  1
  Zn  Zn84  1  0.24643914  0.62662501  0.87477570  1
  Zn  Zn85  1  0.37449063  0.12733788  0.75019238  1
  Zn  Zn86  1  0.06049180  0.81437664  0.80815197  1
  Zn  Zn87  1  0.64359501  0.75071615  0.40349787  1
  Zn  Zn88  1  0.49859134  0.87787121  0.87376226  1
  Zn  Zn89  1  0.63528385  0.24917730  0.89821261  1
  Zn  Zn90  1  0.24150390  -0.00198951  0.74883557  1
  Zn  Zn91  1  0.63473113  0.01084108  0.11407925  1
  Zn  Zn92  1  0.92559928  0.83514191  -0.04903759  1
  Zn  Zn93  1  0.76692660  0.28529397  0.46459973  1
  Zn  Zn94  1  0.18537718  0.19605334  0.19068485  1
  Zn  Zn95  1  0.18363743  0.18718481  0.68778211  1
  Zn  Zn96  1  0.18436898  0.68392385  0.18795945  1
  Zn  Zn97  1  0.19214270  0.69242147  0.68636697  1
  Zn  Zn98  1  0.67374858  0.18742706  0.18978662  1
  Zn  Zn99  1  0.68672801  0.18757334  0.69023767  1
  Zn  Zn100  1  0.69303284  0.68452954  0.19343185  1
  Zn  Zn101  1  0.69337199  0.68369814  0.69013743  1
  Zn  Zn102  1  0.31299432  0.31504786  0.32220206  1
  Zn  Zn103  1  0.31259660  0.31889660  0.81486814  1
  Zn  Zn104  1  0.31522877  0.81740186  0.30956253  1
  Zn  Zn105  1  0.30885893  0.81277482  0.80807180  1
  Zn  Zn106  1  0.79917079  0.31040878  0.30222996  1
  Zn  Zn107  1  0.81235101  0.30648757  0.81446751  1
  Zn  Zn108  1  0.81147161  0.80441849  0.30994349  1
  Zn  Zn109  1  0.81587259  0.81158971  0.80703776  1
  Zn  Zn110  1  0.18500492  0.44141316  0.44241291  1
  Zn  Zn111  1  0.19317261  0.44605583  0.93539661  1
  Zn  Zn112  1  0.18981203  0.93751116  0.44134154  1
  Zn  Zn113  1  0.18419835  0.94698873  0.93769284  1
  Zn  Zn114  1  0.70776085  0.43437154  0.42490296  1
  Zn  Zn115  1  0.68307898  0.43751153  0.94283909  1
  Zn  Zn116  1  0.68748889  0.93900106  0.43555988  1
  Zn  Zn117  1  0.69165956  0.93545372  0.93142776  1
  Zn  Zn118  1  0.31412784  0.06384147  0.05898958  1
  Zn  Zn119  1  0.31683941  0.07014704  0.56283397  1
  Zn  Zn120  1  0.31315558  0.56252456  0.06474137  1
  Zn  Zn121  1  0.31181589  0.56662420  0.56570975  1
  Zn  Zn122  1  0.81760015  0.06554762  0.06517444  1
  Zn  Zn123  1  0.81934603  0.05658088  0.56803303  1
  Zn  Zn124  1  0.81409408  0.56659736  0.06663347  1
  Zn  Zn125  1  0.80940158  0.55181275  0.56430270  1
  Zn  Zn126  1  0.43938958  0.43955571  0.18755551  1
  Zn  Zn127  1  0.44056138  0.43684881  0.68709337  1
  Zn  Zn128  1  0.43512463  0.93987337  0.18543815  1
  Zn  Zn129  1  0.43311138  0.93991940  0.68487270  1
  Zn  Zn130  1  0.93192697  0.43333792  0.18808427  1
  Zn  Zn131  1  0.91798148  0.41877560  0.70553630  1
  Zn  Zn132  1  0.93832830  0.93739204  0.18621991  1
  Zn  Zn133  1  0.93347365  0.93260858  0.69481992  1
  Zn  Zn134  1  0.06357285  0.06562142  0.31488377  1
  Zn  Zn135  1  0.06292107  0.06188800  0.81381502  1
  Zn  Zn136  1  0.05981079  0.56153153  0.31368226  1
  Zn  Zn137  1  0.06409936  0.55495646  0.81600968  1
  Zn  Zn138  1  0.55932541  0.05885640  0.30496483  1
  Zn  Zn139  1  0.56200180  0.06644366  0.80795143  1
  Zn  Zn140  1  0.56970804  0.56391687  0.31654545  1
  Zn  Zn141  1  0.56059028  0.56691876  0.81581342  1
  Zn  Zn142  1  0.43651584  0.18887730  0.43754987  1
  Zn  Zn143  1  0.45701076  0.20461969  0.95411935  1
  Zn  Zn144  1  0.46205527  0.69643708  0.44621721  1
  Zn  Zn145  1  0.43630584  0.68751661  0.93708326  1
  Zn  Zn146  1  0.93389692  0.18805263  0.43760810  1
  Zn  Zn147  1  0.93294979  0.18056500  0.93464075  1
  Zn  Zn148  1  0.93588326  0.68227538  0.43533707  1
  Zn  Zn149  1  0.95213789  0.67525413  0.92888095  1
  Zn  Zn150  1  0.06934155  0.32066630  0.06468534  1
  Zn  Zn151  1  0.05000114  0.31265068  0.55005963  1
  Zn  Zn152  1  0.06962422  0.81263751  0.05900293  1
  Zn  Zn153  1  0.04664009  0.82966363  0.60932880  1
  Zn  Zn154  1  0.56219284  0.31187054  0.06599564  1
  Zn  Zn155  1  0.56445797  0.30151805  0.55623534  1
  Zn  Zn156  1  0.56406013  0.81762619  0.06066791  1
  Zn  Zn157  1  0.56109902  0.81099432  0.56257393  1
  O  O158  1  0.11387317  0.11980290  0.13061305  1
  O  O159  1  0.11300877  0.13026297  0.61173822  1
  O  O160  1  0.13317907  0.60922435  0.11588922  1
  O  O161  1  0.12512035  0.63950469  0.61276381  1
  O  O162  1  0.60269718  0.11986930  0.13030291  1
  O  O163  1  0.60917538  0.13510486  0.62787541  1
  O  O164  1  0.62140728  0.61611012  0.12616494  1
  O  O165  1  0.60942012  0.62868418  0.63124162  1
  O  O166  1  0.38683406  0.38247821  0.38757155  1
  O  O167  1  0.38397096  0.37798402  0.88543191  1
  O  O168  1  0.38634186  0.88464729  0.37092633  1
  O  O169  1  0.36939752  0.88234363  0.88206244  1
  O  O170  1  0.81241892  0.37244405  0.39442127  1
  O  O171  1  0.88170958  0.37951537  0.88583975  1
  O  O172  1  0.88276151  0.87956250  0.37950922  1
  O  O173  1  0.86258871  0.89408969  0.87647217  1
  O  O174  1  0.25370947  0.00685119  0.36946366  1
  O  O175  1  0.25964405  0.01623880  0.88069096  1
  O  O176  1  0.25884935  0.50538541  0.37016373  1
  O  O177  1  0.24582269  0.50465808  0.85241364  1
  O  O178  1  0.76295958  -0.00819852  0.36231678  1
  O  O179  1  0.75602263  0.00864883  0.86654754  1
  O  O180  1  0.75791808  0.51890310  0.36765464  1
  O  O181  1  0.75895085  0.49618500  0.86966698  1
  O  O182  1  0.24799471  0.49410045  0.13603927  1
  O  O183  1  0.25682265  0.49990383  0.64260746  1
  O  O184  1  0.24183503  0.99712284  0.13065953  1
  O  O185  1  0.26025955  0.99030983  0.62326657  1
  O  O186  1  0.73498953  0.49774726  0.11645227  1
  O  O187  1  0.74975974  0.48619091  0.64156439  1
  O  O188  1  0.75395430  0.99155896  0.13149052  1
  O  O189  1  0.76327281  0.98469489  0.63923139  1
  O  O190  1  -0.00913923  0.40455242  0.28615565  1
  O  O191  1  0.01029155  0.37076730  0.75796421  1
  O  O192  1  0.01246026  0.88425872  0.26138066  1
  O  O193  1  0.01023230  0.85597759  0.71560577  1
  O  O194  1  0.49323837  0.36418347  0.25933776  1
  O  O195  1  0.49646045  0.36652316  0.75703990  1
  O  O196  1  0.51011114  0.87291964  0.24435770  1
  O  O197  1  0.50002707  0.86302638  0.74879822  1
  O  O198  1  0.48987148  0.12934848  0.24387578  1
  O  O199  1  0.49499282  0.14148183  0.74504483  1
  O  O200  1  0.49784900  0.63657474  0.24798610  1
  O  O201  1  0.49013630  0.62774854  0.74277894  1
  O  O202  1  0.99044072  0.12048404  0.24060859  1
  O  O203  1  1.01250024  0.13359021  0.73907936  1
  O  O204  1  0.98389111  0.62515008  0.25792692  1
  O  O205  1  0.98790153  0.61344902  0.75066143  1
  O  O206  1  0.36479308  0.26489114  -0.00054167  1
  O  O207  1  0.36742024  0.25916120  0.50636480  1
  O  O208  1  0.37715368  0.76266880  0.00437442  1
  O  O209  1  0.37055730  0.73970422  0.50931108  1
  O  O210  1  0.87684140  0.25968672  -0.00102309  1
  O  O211  1  0.86058218  0.23678872  0.51392064  1
  O  O212  1  0.86800463  0.74881744  0.00959184  1
  O  O213  1  0.87480313  0.75958961  0.50217386  1
  O  O214  1  0.13008903  0.24464544  0.49514833  1
  O  O215  1  0.14283367  0.25378558  1.00361171  1
  O  O216  1  0.14097077  0.74397979  0.48489540  1
  O  O217  1  0.12636938  0.73047189  1.00854975  1
  O  O218  1  0.63236528  0.25470844  0.47825733  1
  O  O219  1  0.56804879  0.23595121  0.98670989  1
  O  O220  1  0.56932125  0.73619183  0.48235363  1
  O  O221  1  0.63307094  0.75070730  0.99326495  1
  O  O222  1  0.50025261  0.24296261  0.14457515  1
  O  O223  1  0.49270225  0.24916008  0.63626917  1
  O  O224  1  0.49548094  0.74776789  0.13141521  1
  O  O225  1  0.49460243  0.73918936  0.63415804  1
  O  O226  1  1.00844788  0.24025441  0.12495044  1
  O  O227  1  0.98778270  0.24326566  0.62598422  1
  O  O228  1  0.98827253  0.75701261  0.11797828  1
  O  O229  1  0.98190996  0.73531322  0.61127790  1
  O  O230  1  0.01111282  0.25357537  0.38852634  1
  O  O231  1  -0.00683277  0.25421299  0.86567687  1
  O  O232  1  0.01041520  0.76415685  0.38232075  1
  O  O233  1  -0.00622818  0.76821454  0.88724963  1
  O  O234  1  0.50679381  0.25675102  0.37219438  1
  O  O235  1  0.48557157  0.25907168  0.85406253  1
  O  O236  1  0.48848100  0.77118929  0.35563426  1
  O  O237  1  0.50643706  0.75105364  0.86678101  1
  O  O238  1  0.24094322  0.13310563  0.49378880  1
  O  O239  1  0.25018342  0.13480380  0.99282520  1
  O  O240  1  0.24593261  0.63647672  0.49492916  1
  O  O241  1  0.24002088  0.61640733  0.99488917  1
  O  O242  1  0.72238545  0.08861494  0.50435963  1
  O  O243  1  0.74480849  0.11761162  0.99402373  1
  O  O244  1  0.76240411  0.61948697  0.48665450  1
  O  O245  1  0.74980401  0.63797003  0.99731155  1
  O  O246  1  0.25732458  0.37421331  0.00560762  1
  O  O247  1  0.26064569  0.36687704  0.49460467  1
  O  O248  1  0.25362073  0.88507540  0.01062959  1
  O  O249  1  0.25682583  0.86532665  0.50272644  1
  O  O250  1  0.76244035  0.37468134  0.00208732  1
  O  O251  1  0.73687651  0.37983368  0.53009437  1
  O  O252  1  0.74658762  0.86658077  0.00972779  1
  O  O253  1  0.75809505  0.88389132  0.51257381  1
  O  O254  1  0.14067576  0.50746151  0.24622991  1
  O  O255  1  0.12771094  0.48783247  0.74386637  1
  O  O256  1  0.13169608  0.99377112  0.24414148  1
  O  O257  1  0.12732700  0.97215372  0.77978849  1
  O  O258  1  0.61867642  0.49852840  0.23426239  1
  O  O259  1  0.63843986  0.50112337  0.76037252  1
  O  O260  1  0.63685134  0.99186407  0.24798130  1
  O  O261  1  0.64043797  0.99586130  0.75369120  1
  O  O262  1  0.36046613  -0.00319829  0.25518893  1
  O  O263  1  0.37137917  0.00222291  0.76410658  1
  O  O264  1  0.37243424  0.50837475  0.25816828  1
  O  O265  1  0.37265973  0.50985378  0.74949409  1
  O  O266  1  0.87014203  0.00229022  0.25622211  1
  O  O267  1  0.86753588  -0.00150475  0.76273648  1
  O  O268  1  0.86889089  0.51394843  0.24137128  1
  O  O269  1  0.87100125  0.50492917  0.76063510  1
  O  O270  1  0.12854164  0.36384602  0.38309137  1
  O  O271  1  0.11205941  0.37797484  0.87928684  1
  O  O272  1  0.12133374  0.87043257  0.37073712  1
  O  O273  1  0.12371348  0.91302844  0.84443749  1
  O  O274  1  0.61442494  0.38088606  0.37354946  1
  O  O275  1  0.60949009  0.36786384  0.88447507  1
  O  O276  1  0.61283637  0.87910340  0.36733013  1
  O  O277  1  0.62273800  0.86287580  0.86947805  1
  O  O278  1  0.38975356  0.12291243  0.12011943  1
  O  O279  1  0.38288140  0.13867178  0.62805795  1
  O  O280  1  0.38125763  0.63129720  0.13188100  1
  O  O281  1  0.38152306  0.63364081  0.63790280  1
  O  O282  1  0.88842183  0.12515684  0.13587322  1
  O  O283  1  0.88419899  0.13415524  0.62538225  1
  O  O284  1  0.87293367  0.63898387  0.13520846  1
  O  O285  1  0.86831883  0.62304975  0.63784070  1
  O  O286  1  0.24892986  0.26232358  0.12144849  1
  O  O287  1  0.25590984  0.24356467  0.61286534  1
  O  O288  1  0.25323777  0.76467798  0.13279156  1
  O  O289  1  0.25943872  0.75992057  0.61592491  1
  O  O290  1  0.73397328  0.26137067  0.12362001  1
  O  O291  1  0.76097040  0.26263029  0.64188272  1
  O  O292  1  0.75619107  0.75700511  0.11861001  1
  O  O293  1  0.75839049  0.75901391  0.62796487  1
  O  O294  1  0.24358839  0.24423903  0.38541103  1
  O  O295  1  0.25603074  0.23945693  0.88175342  1
  O  O296  1  0.24963820  0.74815252  0.37805454  1
  O  O297  1  0.22062311  0.74475515  0.84494634  1
  O  O298  1  0.73321925  0.23121078  0.36313873  1
  O  O299  1  0.75029041  0.23229598  0.87291279  1
  O  O300  1  0.75359091  0.74303897  0.38289656  1
  O  O301  1  0.74609666  0.75232542  0.88232303  1
  O  O302  1  -0.00090115  0.12094657  0.01459739  1
  O  O303  1  0.00317899  0.11657519  0.50626610  1
  O  O304  1  0.01058472  0.60833506  0.00248532  1
  O  O305  1  0.02002644  0.62816984  0.48847642  1
  O  O306  1  0.49162756  0.10568676  0.00575725  1
  O  O307  1  0.49514950  0.13136167  0.51524759  1
  O  O308  1  0.49871871  0.61972375  0.00690789  1
  O  O309  1  0.49027470  0.60754150  0.51772148  1
  O  O310  1  0.49571181  0.38152833  0.49523633  1
  O  O311  1  0.49072319  0.38495312  0.99532301  1
  O  O312  1  0.50303581  0.88589863  0.48609462  1
  O  O313  1  0.48676601  0.88434258  0.99979568  1
  O  O314  1  0.98548805  0.39633241  0.49059316  1
  O  O315  1  0.98894288  0.37857748  0.99803712  1
  O  O316  1  0.99116229  0.88199621  0.49792725  1
  O  O317  1  1.00872859  0.89429001  1.00513552  1
  O  O318  1  0.49908638  0.49683607  0.38513501  1
  O  O319  1  0.50490633  0.49371296  0.88474367  1
  O  O320  1  0.48882281  0.99021942  0.36475492  1
  O  O321  1  0.49246742  1.00039713  0.88336263  1
  O  O322  1  0.98689059  0.46622634  0.34115896  1
  O  O323  1  0.99190757  0.48768725  0.88623683  1
  O  O324  1  0.99414253  0.99055250  0.38326259  1
  O  O325  1  0.98382450  1.01287116  0.88372867  1
  O  O326  1  0.00634194  0.00777719  0.12147941  1
  O  O327  1  -0.01279707  0.00728428  0.61460447  1
  O  O328  1  0.01146389  0.48486795  0.11894301  1
  O  O329  1  -0.03937773  0.45829731  0.53428138  1
  O  O330  1  0.49902760  0.00644101  0.11575794  1
  O  O331  1  0.49628696  0.01789320  0.63388300  1
  O  O332  1  0.50920225  0.50472519  0.11787767  1
  O  O333  1  0.50347028  0.50840101  0.62300256  1
  O  O334  1  0.26379174  0.38743770  0.24562619  1
  O  O335  1  0.23194160  0.37978465  0.75047280  1
  O  O336  1  0.24123690  0.88595591  0.24249575  1
  O  O337  1  0.25532828  0.87758057  0.72878514  1
  O  O338  1  0.75545232  0.38011562  0.22454295  1
  O  O339  1  0.75792435  0.38618674  0.74736368  1
  O  O340  1  0.74449824  0.88063049  0.24261719  1
  O  O341  1  0.74914662  0.87855844  0.73690781  1
  O  O342  1  0.23913943  0.11751364  0.26101601  1
  O  O343  1  0.24777837  0.12273165  0.76140516  1
  O  O344  1  0.25892248  0.61836634  0.25596839  1
  O  O345  1  0.26034998  0.61429558  0.74578644  1
  O  O346  1  0.76470966  0.11403708  0.23671800  1
  O  O347  1  0.75260035  0.10935787  0.74452944  1
  O  O348  1  0.76977888  0.63955641  0.26190950  1
  O  O349  1  0.75879001  0.60811482  0.75318872  1
  O  O350  1  0.35954214  0.11998663  0.38090841  1
  O  O351  1  0.36637387  0.11963150  0.87634734  1
  O  O352  1  0.37591331  0.62354723  0.37249407  1
  O  O353  1  0.37052828  0.63495937  0.85809014  1
  O  O354  1  0.88438372  0.11257032  0.36117992  1
  O  O355  1  0.85839088  0.11220036  0.87816650  1
  O  O356  1  0.87112997  0.62202586  0.36512436  1
  O  O357  1  0.87534903  0.61286787  0.86542002  1
  O  O358  1  0.14276347  0.38810004  0.12431317  1
  O  O359  1  0.11301797  0.37723111  0.62744120  1
  O  O360  1  0.12984281  0.88404675  0.13227190  1
  O  O361  1  0.14681705  0.87734977  0.60917319  1
  O  O362  1  0.63417548  0.38669288  0.11460389  1
  O  O363  1  0.62785006  0.36099953  0.63898668  1
  O  O364  1  0.63641162  0.87931494  0.13219667  1
  O  O365  1  0.63980765  0.86890150  0.62106009  1
  O  O366  1  0.12320975  0.24966022  0.26894216  1
  O  O367  1  0.11353945  0.26490549  0.74083175  1
  O  O368  1  0.13358043  0.76206589  0.26102297  1
  O  O369  1  0.15770763  0.74526525  0.78417217  1
  O  O370  1  0.60671110  0.24071794  0.26908383  1
  O  O371  1  0.61338150  0.24886281  0.76056758  1
  O  O372  1  0.61706333  0.76215759  0.24756061  1
  O  O373  1  0.61616742  0.74798776  0.75627662  1
  O  O374  1  0.38770840  0.24730795  0.26556047  1
  O  O375  1  0.37073512  0.25538612  0.73657128  1
  O  O376  1  0.38192915  0.74887278  0.24036736  1
  O  O377  1  0.38327273  0.74249952  0.74317062  1
  O  O378  1  0.87344477  0.23489012  0.25623398  1
  O  O379  1  0.88997290  0.25734952  0.73916527  1
  O  O380  1  0.88283603  0.75091989  0.23715850  1
  O  O381  1  0.87151638  0.73024842  0.74356282  1
  O  O382  1  0.37625641  0.49268065  0.49816459  1
  O  O383  1  0.38629353  0.49531699  1.00450783  1
  O  O384  1  0.37054362  1.00098949  0.48712286  1
  O  O385  1  0.38158181  0.99052579  0.99276118  1
  O  O386  1  0.89627347  0.49829804  0.49709895  1
  O  O387  1  0.88191261  0.49847764  0.99513092  1
  O  O388  1  0.88204241  0.99255772  0.49050254  1
  O  O389  1  0.88332936  1.00184876  0.99305689  1
  O  O390  1  0.11746448  0.00925303  0.01326206  1
  O  O391  1  0.11350431  0.00903739  0.49290606  1
  O  O392  1  0.11912528  0.50185366  0.01011932  1
  O  O393  1  0.13507736  0.51984433  0.50293996  1
  O  O394  1  0.60926709  -0.01128281  -0.00239128  1
  O  O395  1  0.66494683  0.03609878  0.50496286  1
  O  O396  1  0.61262945  0.50523903  0.00737177  1
  O  O397  1  0.62048356  0.49505396  0.49641333  1
  O  O398  1  0.36640261  0.38332856  0.11463583  1
  O  O399  1  0.38183557  0.36779332  0.61328517  1
  O  O400  1  0.36505853  0.87302677  0.11748800  1
  O  O401  1  0.37331260  0.86174613  0.62354983  1
  O  O402  1  0.86400016  0.37610507  0.11162583  1
  O  O403  1  0.87778797  0.35991672  0.61906548  1
  O  O404  1  0.86633537  0.86473559  0.12991413  1
  O  O405  1  0.86729264  0.86175783  0.61701948  1
  O  O406  1  0.13044996  0.13266855  0.38601195  1
  O  O407  1  0.13983185  0.12208447  0.87928410  1
  O  O408  1  0.13449259  0.63352850  0.37353371  1
  O  O409  1  0.12151931  0.61624993  0.89325692  1
  O  O410  1  0.61404956  0.12179202  0.38164896  1
  O  O411  1  0.64161796  0.12187725  0.87111497  1
  O  O412  1  0.64436625  0.63142649  0.36668368  1
  O  O413  1  0.62791471  0.63988290  0.87722919  1
