# generated using pymatgen
data_V79Zn79O256
_symmetry_space_group_name_H-M   'P 1'
_cell_length_a   16.91574365
_cell_length_b   16.90684461
_cell_length_c   16.91511317
_cell_angle_alpha   90.12161084
_cell_angle_beta   89.96199909
_cell_angle_gamma   90.13282963
_symmetry_Int_Tables_number   1
_chemical_formula_structural   V79Zn79O256
_chemical_formula_sum   'V79 Zn79 O256'
_cell_volume   4837.55955397
_cell_formula_units_Z   1
loop_
 _symmetry_equiv_pos_site_id
 _symmetry_equiv_pos_as_xyz
  1  'x, y, z'
loop_
 _atom_site_type_symbol
 _atom_site_label
 _atom_site_symmetry_multiplicity
 _atom_site_fract_x
 _atom_site_fract_y
 _atom_site_fract_z
 _atom_site_occupancy
  V  V0  1  0.50596307  0.00349313  0.50144535  1
  V  V1  1  0.75389440  0.37716294  0.62562313  1
  V  V2  1  -0.00798454  0.74420569  0.24871053  1
  V  V3  1  0.62182687  0.62077337  -0.00128698  1
  V  V4  1  0.74818320  0.63010106  0.88157554  1
  V  V5  1  0.25329264  0.12353555  0.37292623  1
  V  V6  1  0.62610452  -0.00516411  0.62631371  1
  V  V7  1  0.38392096  0.37011577  -0.00371898  1
  V  V8  1  0.24072650  -0.00512816  0.73433068  1
  V  V9  1  0.49256836  0.12663679  0.13320225  1
  V  V10  1  0.12190302  0.00291975  0.11959107  1
  V  V11  1  0.00601544  0.86695949  0.87070839  1
  V  V12  1  0.37956687  0.75610620  0.63418330  1
  V  V13  1  0.88472925  0.49589243  0.88024499  1
  V  V14  1  0.74431631  0.37800869  0.13761329  1
  V  V15  1  0.24432081  0.36876718  0.12896141  1
  V  V16  1  0.61173340  0.37264676  0.75499661  1
  V  V17  1  0.24588823  0.49445929  0.24911263  1
  V  V18  1  0.12088043  0.49695594  0.12202015  1
  V  V19  1  0.11885141  0.26150917  0.37445726  1
  V  V20  1  -0.00081133  0.87779867  0.38482112  1
  V  V21  1  0.50086184  -0.00140652  -0.00290033  1
  V  V22  1  0.25993688  0.25467901  0.49905435  1
  V  V23  1  0.23701675  0.24180797  0.00219605  1
  V  V24  1  0.86625104  0.74463427  0.11819281  1
  V  V25  1  0.01154920  0.27071312  0.76395297  1
  V  V26  1  0.62016998  0.75404165  0.86717928  1
  V  V27  1  0.00047472  0.49533742  0.49547328  1
  V  V28  1  0.87574571  -0.00004154  0.87847591  1
  V  V29  1  0.23831786  0.74523894  -0.00584510  1
  V  V30  1  0.25236196  0.75375887  0.50137055  1
  V  V31  1  0.50195713  0.87347945  0.85778532  1
  V  V32  1  0.37535200  0.74600904  0.12283780  1
  V  V33  1  0.12214598  0.87536103  0.24970751  1
  V  V34  1  -0.00126148  0.62169857  0.12033726  1
  V  V35  1  0.75080516  0.12758932  0.87069314  1
  V  V36  1  0.37572234  0.87242672  -0.00359942  1
  V  V37  1  0.00213968  0.25992977  0.25302588  1
  V  V38  1  0.87749297  0.50463948  0.36211085  1
  V  V39  1  0.74786757  0.25593309  -0.00089576  1
  V  V40  1  0.87141930  0.12452320  0.25749877  1
  V  V41  1  0.88450459  0.37734001  -0.00291251  1
  V  V42  1  0.62486351  0.49594740  0.13912859  1
  V  V43  1  0.88601070  0.12951199  0.74618855  1
  V  V44  1  0.88539479  0.24933819  0.62579687  1
  V  V45  1  0.24857888  0.87476930  0.12408498  1
  V  V46  1  0.62762723  0.86570175  0.24684760  1
  V  V47  1  0.88131101  0.37927113  0.49592669  1
  V  V48  1  0.74830370  0.23626147  0.49011747  1
  V  V49  1  0.00018720  0.12276716  0.12112108  1
  V  V50  1  0.37269812  0.62223653  0.24900852  1
  V  V51  1  0.37330451  0.87796064  0.49835311  1
  V  V52  1  0.87799971  0.63346608  0.74864472  1
  V  V53  1  -0.00301408  0.63699520  0.62877945  1
  V  V54  1  0.38637472  0.48922901  0.38467196  1
  V  V55  1  0.49531399  0.61387226  0.11895094  1
  V  V56  1  0.74540145  -0.00514020  0.74656218  1
  V  V57  1  0.25886185  0.37851800  0.62747826  1
  V  V58  1  0.50166146  0.62309878  0.61595692  1
  V  V59  1  0.75165585  -0.00113506  0.25223389  1
  V  V60  1  0.12740239  0.62653547  0.49862799  1
  V  V61  1  0.12858754  0.49083966  0.63230889  1
  V  V62  1  0.87248564  0.24995521  0.12667954  1
  V  V63  1  0.75221344  0.62053495  0.37500519  1
  V  V64  1  0.37816656  0.61029740  0.75413111  1
  V  V65  1  0.86790263  0.86553817  0.50641056  1
  V  V66  1  0.62200987  0.50458076  0.61708788  1
  V  V67  1  0.62264204  0.12526668  -0.00012850  1
  V  V68  1  0.11387159  0.11536273  0.50962217  1
  V  V69  1  0.37637042  0.14084874  0.75047462  1
  V  V70  1  0.50561169  0.13523973  0.62683386  1
  V  V71  1  0.87842587  -0.00057365  0.38082390  1
  V  V72  1  0.61122854  0.25209859  0.86969262  1
  V  V73  1  0.23340954  0.12519219  0.87846805  1
  V  V74  1  0.63204819  0.74533387  0.39312144  1
  V  V75  1  0.25723187  0.00301644  0.25039316  1
  V  V76  1  0.12576094  0.74978209  0.37565504  1
  V  V77  1  0.37401442  0.00263319  0.87007865  1
  V  V78  1  0.74927263  0.49910598  0.75413530  1
  Zn  Zn79  1  0.11809974  0.73887489  0.85051599  1
  Zn  Zn80  1  0.37483516  0.24412042  0.13135452  1
  Zn  Zn81  1  0.74207308  0.85792722  0.62451270  1
  Zn  Zn82  1  0.38679859  0.49077593  0.88517615  1
  Zn  Zn83  1  0.38431475  0.26084954  0.62481198  1
  Zn  Zn84  1  0.25281405  0.62246833  0.37486659  1
  Zn  Zn85  1  0.50225414  0.87060510  0.37625676  1
  Zn  Zn86  1  0.62782382  -0.00473025  0.12295010  1
  Zn  Zn87  1  0.86949363  0.86938881  -0.00320494  1
  Zn  Zn88  1  0.00397863  0.00259807  -0.00488578  1
  Zn  Zn89  1  0.50031366  0.74924095  0.25166137  1
  Zn  Zn90  1  0.74708791  0.86918494  0.11583007  1
  Zn  Zn91  1  0.11782326  0.61607652  -0.00919216  1
  Zn  Zn92  1  0.24340534  0.60898609  0.85729610  1
  Zn  Zn93  1  0.37809177  0.00223669  0.37110501  1
  Zn  Zn94  1  0.18306562  0.18531683  0.19190119  1
  Zn  Zn95  1  0.18661397  0.18742687  0.68894888  1
  Zn  Zn96  1  0.18539752  0.68391034  0.18389516  1
  Zn  Zn97  1  0.19502106  0.68108940  0.68204669  1
  Zn  Zn98  1  0.68442351  0.18438934  0.19136945  1
  Zn  Zn99  1  0.69026375  0.18970429  0.68246759  1
  Zn  Zn100  1  0.68888403  0.67673020  0.19369395  1
  Zn  Zn101  1  0.68306365  0.68583005  0.69486306  1
  Zn  Zn102  1  0.31374040  0.31614728  0.31874885  1
  Zn  Zn103  1  0.26046591  0.33731016  0.83468435  1
  Zn  Zn104  1  0.31200371  0.81348525  0.31327894  1
  Zn  Zn105  1  0.30260467  0.81214650  0.80991795  1
  Zn  Zn106  1  0.81577839  0.31427969  0.31594067  1
  Zn  Zn107  1  0.81374884  0.31255298  0.81122713  1
  Zn  Zn108  1  0.81037242  0.81136241  0.31227105  1
  Zn  Zn109  1  0.80961081  0.81315156  0.81449906  1
  Zn  Zn110  1  0.19416514  0.43994827  0.43747149  1
  Zn  Zn111  1  0.19313009  0.44247886  0.94081149  1
  Zn  Zn112  1  0.18706063  0.93781486  0.44055469  1
  Zn  Zn113  1  0.18832854  0.93603377  0.93438158  1
  Zn  Zn114  1  0.69905726  0.44369017  0.44226709  1
  Zn  Zn115  1  0.67884624  0.44134858  0.93903008  1
  Zn  Zn116  1  0.68904878  0.93621867  0.43637869  1
  Zn  Zn117  1  0.68943936  0.93443714  0.93543618  1
  Zn  Zn118  1  0.31197206  0.06055372  0.06189250  1
  Zn  Zn119  1  0.31428819  0.07098936  0.56020056  1
  Zn  Zn120  1  0.30206490  0.54739160  0.03997585  1
  Zn  Zn121  1  0.31463270  0.56474163  0.56326296  1
  Zn  Zn122  1  0.81021295  0.06297561  0.06550100  1
  Zn  Zn123  1  0.81656860  0.06018626  0.56273089  1
  Zn  Zn124  1  0.81068710  0.56217557  0.06595116  1
  Zn  Zn125  1  0.80555721  0.68589656  0.56052166  1
  Zn  Zn126  1  0.42993635  0.43253056  0.18423070  1
  Zn  Zn127  1  0.43629886  0.43847844  0.68553964  1
  Zn  Zn128  1  0.44131420  0.93337989  0.18335525  1
  Zn  Zn129  1  0.42988552  0.94677578  0.68317294  1
  Zn  Zn130  1  0.93521691  0.43605700  0.18060400  1
  Zn  Zn131  1  0.93992011  0.44322292  0.68660894  1
  Zn  Zn132  1  0.93525819  0.93312484  0.18797245  1
  Zn  Zn133  1  0.92656044  0.93384850  0.69543052  1
  Zn  Zn134  1  0.06310443  0.06784072  0.31612016  1
  Zn  Zn135  1  0.06071591  0.05830103  0.80530155  1
  Zn  Zn136  1  0.06219521  0.56058872  0.30897732  1
  Zn  Zn137  1  0.06441315  0.55381374  0.81089648  1
  Zn  Zn138  1  0.55316580  0.04261526  0.30221331  1
  Zn  Zn139  1  0.56092047  0.06552789  0.80823878  1
  Zn  Zn140  1  0.56220253  0.56818695  0.31446420  1
  Zn  Zn141  1  0.55442844  0.56357913  0.80954593  1
  Zn  Zn142  1  0.44263109  0.18284604  0.43379824  1
  Zn  Zn143  1  0.42851708  0.19148920  0.94153910  1
  Zn  Zn144  1  0.44153174  0.68591019  0.43582527  1
  Zn  Zn145  1  0.43953171  0.68759292  0.93657688  1
  Zn  Zn146  1  0.93790694  0.18820291  0.44086831  1
  Zn  Zn147  1  0.94088850  0.19094138  0.93681648  1
  Zn  Zn148  1  0.94016735  0.68581440  0.43609672  1
  Zn  Zn149  1  0.93630918  0.68404138  0.93779665  1
  Zn  Zn150  1  0.06296012  0.31074825  0.06547063  1
  Zn  Zn151  1  0.06754423  0.30731212  0.56137005  1
  Zn  Zn152  1  0.05202783  0.81658818  0.05950513  1
  Zn  Zn153  1  0.06930887  0.81846239  0.69322254  1
  Zn  Zn154  1  0.56304031  0.31096051  0.06755704  1
  Zn  Zn155  1  0.57425508  0.31235114  0.55948136  1
  Zn  Zn156  1  0.56517102  0.80714920  0.05668350  1
  Zn  Zn157  1  0.55746014  0.81511503  0.56783928  1
  O  O158  1  0.11231399  0.11321849  0.13512445  1
  O  O159  1  0.13006756  0.13129931  0.60808339  1
  O  O160  1  0.11663935  0.61619995  0.12159312  1
  O  O161  1  0.12134789  0.61271446  0.61554862  1
  O  O162  1  0.61828658  0.12151765  0.11280412  1
  O  O163  1  0.61138396  0.11892181  0.63074778  1
  O  O164  1  0.61732140  0.61492286  0.12087630  1
  O  O165  1  0.61347717  0.61321471  0.63605253  1
  O  O166  1  0.37482410  0.38887540  0.38056228  1
  O  O167  1  0.35829124  0.37034860  0.89377771  1
  O  O168  1  0.37928620  0.87668084  0.38492090  1
  O  O169  1  0.38149077  0.88335522  0.87692838  1
  O  O170  1  0.86945807  0.39085574  0.38629180  1
  O  O171  1  0.86528800  0.38805337  0.88240147  1
  O  O172  1  0.88011174  0.87971887  0.37985420  1
  O  O173  1  0.88091192  0.88564357  0.87294422  1
  O  O174  1  0.25066768  0.00565325  0.36620586  1
  O  O175  1  0.25854595  0.01069516  0.87664995  1
  O  O176  1  0.25933937  0.50196694  0.36413404  1
  O  O177  1  0.27659232  0.52002131  0.91889804  1
  O  O178  1  0.76128959  -0.00618614  0.36172690  1
  O  O179  1  0.75414466  0.00996566  0.86642741  1
  O  O180  1  0.76337737  0.50822612  0.37609761  1
  O  O181  1  0.75094338  0.50727766  0.86734667  1
  O  O182  1  0.24286771  0.48945332  0.13004767  1
  O  O183  1  0.24034880  0.48864303  0.61195742  1
  O  O184  1  0.24261546  0.99552956  0.13073938  1
  O  O185  1  0.25848226  1.00619502  0.63584776  1
  O  O186  1  0.73605557  0.49223334  0.12140133  1
  O  O187  1  0.73792591  0.49292897  0.64025946  1
  O  O188  1  0.74909216  0.99825579  0.13839290  1
  O  O189  1  0.74060767  1.00545415  0.63167542  1
  O  O190  1  -0.00608427  0.35873528  0.24298199  1
  O  O191  1  -0.00196532  0.37040105  0.75156691  1
  O  O192  1  0.00887806  0.86557078  0.25426999  1
  O  O193  1  -0.00617429  0.87223558  0.76361483  1
  O  O194  1  0.46150609  0.33448017  0.24622360  1
  O  O195  1  0.51375395  0.37366098  0.74322903  1
  O  O196  1  0.51184680  0.87531764  0.25336993  1
  O  O197  1  0.49482188  0.88549282  0.75945124  1
  O  O198  1  0.50283612  0.11220616  0.23235391  1
  O  O199  1  0.49175204  0.12325473  0.73579935  1
  O  O200  1  0.48939576  0.62776065  0.23561817  1
  O  O201  1  0.48642710  0.62335407  0.73481440  1
  O  O202  1  0.99024592  0.13185039  0.24234118  1
  O  O203  1  0.98827504  0.13183734  0.75332517  1
  O  O204  1  1.00883326  0.63743384  0.23964616  1
  O  O205  1  0.99391031  0.61360600  0.73508269  1
  O  O206  1  0.35954878  0.25196323  0.00837243  1
  O  O207  1  0.36279119  0.24603926  0.49616247  1
  O  O208  1  0.36488581  0.75207662  0.00618819  1
  O  O209  1  0.37148416  0.75780169  0.50179354  1
  O  O210  1  0.86411484  0.25577835  0.00443509  1
  O  O211  1  0.87279830  0.26000314  0.50736063  1
  O  O212  1  0.87487917  0.74650417  0.01424775  1
  O  O213  1  0.87627436  0.76116692  0.49678942  1
  O  O214  1  0.13167697  0.24196417  0.48753738  1
  O  O215  1  0.13732589  0.24511836  1.00768483  1
  O  O216  1  0.13652385  0.73952018  0.49527182  1
  O  O217  1  0.13578381  0.75634270  1.00229151  1
  O  O218  1  0.64963025  0.24570824  0.50990324  1
  O  O219  1  0.63109241  0.24360636  0.99095606  1
  O  O220  1  0.62447263  0.75730830  0.49154126  1
  O  O221  1  0.62049613  0.73164994  0.98993274  1
  O  O222  1  0.50298329  0.22898887  0.12127790  1
  O  O223  1  0.50193906  0.23999336  0.61360107  1
  O  O224  1  0.48610044  0.74181155  0.12259488  1
  O  O225  1  0.48883078  0.73830997  0.62184057  1
  O  O226  1  0.99372560  0.24178785  0.13272086  1
  O  O227  1  0.98862898  0.25954149  0.63375534  1
  O  O228  1  0.99287125  0.74256107  0.13098677  1
  O  O229  1  1.01392558  0.73421833  0.62776765  1
  O  O230  1  0.01146595  0.24781007  0.36954832  1
  O  O231  1  -0.00362020  0.25360540  0.86337531  1
  O  O232  1  0.00578002  0.75588511  0.36708476  1
  O  O233  1  0.00250798  0.76178186  0.88122419  1
  O  O234  1  0.52385058  0.23929660  0.36731945  1
  O  O235  1  0.51316433  0.23827131  0.87550022  1
  O  O236  1  0.51688031  0.74755238  0.37168870  1
  O  O237  1  0.50920675  0.76105862  0.88047740  1
  O  O238  1  0.24348258  0.13744494  0.49268982  1
  O  O239  1  0.25257428  0.12993995  0.99107995  1
  O  O240  1  0.24243303  0.63194381  0.49782233  1
  O  O241  1  0.24240372  0.64366208  1.01202633  1
  O  O242  1  0.76430148  0.13713909  0.49792974  1
  O  O243  1  0.74243600  0.13357534  0.99288497  1
  O  O244  1  0.75485500  0.62981857  0.47867109  1
  O  O245  1  0.74213602  0.61954426  0.98760115  1
  O  O246  1  0.25240962  0.35642227  0.01219580  1
  O  O247  1  0.24722321  0.35953262  0.50245391  1
  O  O248  1  0.25580724  0.86657518  0.00328137  1
  O  O249  1  0.25897519  0.86536935  0.49635210  1
  O  O250  1  0.75010199  0.36511244  0.00458843  1
  O  O251  1  0.76147761  0.37347532  0.51209617  1
  O  O252  1  0.75639020  0.88006889  0.00341373  1
  O  O253  1  0.76328435  0.87651656  0.50294184  1
  O  O254  1  0.13797383  0.50477268  0.24176076  1
  O  O255  1  0.12811931  0.50066277  0.73076243  1
  O  O256  1  0.13113219  0.99016001  0.24385911  1
  O  O257  1  0.14060882  1.00609704  0.74695128  1
  O  O258  1  0.62606550  0.50468376  0.23806778  1
  O  O259  1  0.63129315  0.48757738  0.74889162  1
  O  O260  1  0.63567817  0.98822106  0.25057306  1
  O  O261  1  0.63620362  1.00725752  0.74292377  1
  O  O262  1  0.36093903  -0.01142809  0.24854044  1
  O  O263  1  0.36670560  0.01197116  0.75796185  1
  O  O264  1  0.36529116  0.50671612  0.25120295  1
  O  O265  1  0.37614787  0.50711390  0.75547491  1
  O  O266  1  0.86993166  0.00494346  0.25564654  1
  O  O267  1  0.86700048  0.01248367  0.75640522  1
  O  O268  1  0.88179910  0.49446658  0.26394307  1
  O  O269  1  0.86731676  0.50571239  0.76023439  1
  O  O270  1  0.12950840  0.36025916  0.37954621  1
  O  O271  1  0.15819863  0.37707913  0.86152993  1
  O  O272  1  0.11869876  0.87127014  0.36798015  1
  O  O273  1  0.10784189  0.87833040  0.87677515  1
  O  O274  1  0.60016465  0.38180286  0.40754391  1
  O  O275  1  0.62868535  0.36805885  0.86268621  1
  O  O276  1  0.62755597  0.86186968  0.36659754  1
  O  O277  1  0.61849756  0.86241672  0.87753436  1
  O  O278  1  0.38774482  0.12301392  0.12174380  1
  O  O279  1  0.38649872  0.13133109  0.63246524  1
  O  O280  1  0.37761136  0.62749520  0.12838054  1
  O  O281  1  0.38474455  0.62969571  0.63198365  1
  O  O282  1  0.87969628  0.13039537  0.13487380  1
  O  O283  1  0.86994444  0.13662710  0.63551636  1
  O  O284  1  0.88361590  0.63254010  0.12360148  1
  O  O285  1  0.89004624  0.62864785  0.62999021  1
  O  O286  1  0.24865687  0.24849926  0.12159861  1
  O  O287  1  0.25073421  0.25884716  0.61063557  1
  O  O288  1  0.25659149  0.75623662  0.11855925  1
  O  O289  1  0.26984463  0.74122160  0.61014379  1
  O  O290  1  0.74939235  0.25478770  0.11738894  1
  O  O291  1  0.76315507  0.26091177  0.62200323  1
  O  O292  1  0.76456206  0.74206196  0.13253149  1
  O  O293  1  0.75277216  0.74731390  0.63660486  1
  O  O294  1  0.24262565  0.24525402  0.37989817  1
  O  O295  1  0.24982972  0.23265888  0.88903123  1
  O  O296  1  0.24472905  0.74695868  0.38271448  1
  O  O297  1  0.24775537  0.74731884  0.88882154  1
  O  O298  1  0.75584163  0.25687624  0.39134639  1
  O  O299  1  0.74486751  0.24343628  0.88136782  1
  O  O300  1  0.73854432  0.74451810  0.37353822  1
  O  O301  1  0.73637445  0.74069155  0.87025014  1
  O  O302  1  -0.00797686  0.12461920  0.01624147  1
  O  O303  1  0.01330341  0.12748962  0.49831099  1
  O  O304  1  0.00284733  0.62861217  0.01399946  1
  O  O305  1  0.00726393  0.61911847  0.51073856  1
  O  O306  1  0.50607766  0.11549071  0.00131941  1
  O  O307  1  0.49188165  0.11401155  0.51459678  1
  O  O308  1  0.50219122  0.62525693  0.01255981  1
  O  O309  1  0.49655978  0.62372756  0.51620053  1
  O  O310  1  0.54447676  0.37655479  0.46052040  1
  O  O311  1  0.48266913  0.35111090  0.99952005  1
  O  O312  1  0.49155084  0.88537476  0.49949408  1
  O  O313  1  0.49658288  0.88449046  0.99192551  1
  O  O314  1  0.99352960  0.38234085  0.50451256  1
  O  O315  1  0.98322140  0.36839934  1.00653471  1
  O  O316  1  0.98745349  0.87392292  0.48434816  1
  O  O317  1  0.98947596  0.88218143  0.98721010  1
  O  O318  1  0.48474766  0.50449881  0.36360855  1
  O  O319  1  0.49727496  0.50169979  0.87971883  1
  O  O320  1  0.49728029  1.00116348  0.38745870  1
  O  O321  1  0.49411649  0.99562073  0.87893700  1
  O  O322  1  0.98994742  0.50821117  0.38299610  1
  O  O323  1  0.98327676  0.50188144  0.87391394  1
  O  O324  1  0.98976953  0.98897179  0.36238513  1
  O  O325  1  0.99043938  0.99455299  0.87339498  1
  O  O326  1  0.00465876  0.00550697  0.12629299  1
  O  O327  1  0.02849837  -0.02748753  0.62909534  1
  O  O328  1  0.00895742  0.50894743  0.13517787  1
  O  O329  1  0.01399179  0.50302275  0.61471343  1
  O  O330  1  0.50163555  0.00571362  0.11087333  1
  O  O331  1  0.50722783  0.00868999  0.62006833  1
  O  O332  1  0.51048497  0.50297605  0.13274579  1
  O  O333  1  0.51240783  0.50559937  0.62559972  1
  O  O334  1  0.25624754  0.38251074  0.24110406  1
  O  O335  1  0.25403311  0.36789241  0.72493189  1
  O  O336  1  0.23981599  0.88028290  0.24558223  1
  O  O337  1  0.25631603  0.89663164  0.75316400  1
  O  O338  1  0.75176605  0.36679637  0.23631294  1
  O  O339  1  0.74875343  0.38165607  0.74206978  1
  O  O340  1  0.74288712  0.87984184  0.24397515  1
  O  O341  1  0.76134516  0.89148348  0.74386130  1
  O  O342  1  0.24422446  0.11308536  0.25786277  1
  O  O343  1  0.25490717  0.12109715  0.76436006  1
  O  O344  1  0.25794958  0.61612687  0.24696181  1
  O  O345  1  0.27084508  0.62313793  0.74402810  1
  O  O346  1  0.76189372  0.11678271  0.24670207  1
  O  O347  1  0.75664204  0.12344171  0.75818416  1
  O  O348  1  0.75227228  0.62699754  0.27085394  1
  O  O349  1  0.75695863  0.61547185  0.75963205  1
  O  O350  1  0.35956277  0.12336145  0.37771010  1
  O  O351  1  0.37463466  0.11592401  0.86893047  1
  O  O352  1  0.37527502  0.62443363  0.35905675  1
  O  O353  1  0.37892421  0.63495275  0.85592951  1
  O  O354  1  0.88463490  0.11564394  0.36487437  1
  O  O355  1  0.86679262  0.12233265  0.86796384  1
  O  O356  1  0.87097769  0.61341330  0.37569090  1
  O  O357  1  0.86775572  0.61336114  0.87239958  1
  O  O358  1  0.13368242  0.38080014  0.12484236  1
  O  O359  1  0.13510322  0.38604392  0.61523338  1
  O  O360  1  0.12591250  0.88114411  0.13345903  1
  O  O361  1  0.07656640  0.91474459  0.61737648  1
  O  O362  1  0.62827572  0.38721285  0.12195436  1
  O  O363  1  0.63183453  0.38364146  0.63493022  1
  O  O364  1  0.62463056  0.87415195  0.13172298  1
  O  O365  1  0.62493861  0.88946942  0.62531781  1
  O  O366  1  0.11699716  0.24513397  0.26503595  1
  O  O367  1  0.10866968  0.24907531  0.74444317  1
  O  O368  1  0.12185064  0.75937979  0.25351160  1
  O  O369  1  0.14911578  0.76173150  0.74444807  1
  O  O370  1  0.61948833  0.24240342  0.27427400  1
  O  O371  1  0.63287865  0.26439253  0.75459041  1
  O  O372  1  0.62371967  0.75731585  0.25018043  1
  O  O373  1  0.61651656  0.74315745  0.76825879  1
  O  O374  1  0.40425812  0.27683741  0.24890386  1
  O  O375  1  0.36769587  0.24020355  0.74788752  1
  O  O376  1  0.37158791  0.74264896  0.23842755  1
  O  O377  1  0.37079854  0.75167722  0.73484521  1
  O  O378  1  0.88038604  0.24249121  0.24777452  1
  O  O379  1  0.88315925  0.24740052  0.74460419  1
  O  O380  1  0.88699708  0.75412637  0.24285913  1
  O  O381  1  0.87530826  0.73185489  0.76386666  1
  O  O382  1  0.37326685  0.51225586  0.48232612  1
  O  O383  1  0.38558166  0.47275312  1.01781592  1
  O  O384  1  0.38174314  0.99092101  0.50252917  1
  O  O385  1  0.38210487  0.99528378  0.98964458  1
  O  O386  1  0.88959053  0.49224345  0.49544655  1
  O  O387  1  0.86728582  0.49261950  0.98826946  1
  O  O388  1  0.87215485  0.99105792  0.48656634  1
  O  O389  1  0.87332892  1.00918334  0.98405057  1
  O  O390  1  0.12535578  -0.00655773  0.01595470  1
  O  O391  1  0.12917628  0.01579648  0.49476332  1
  O  O392  1  0.12856305  0.49956612  0.01734423  1
  O  O393  1  0.11913990  0.50851502  0.49851438  1
  O  O394  1  0.61730040  0.00960623  -0.00556019  1
  O  O395  1  0.61554824  -0.00298116  0.50717016  1
  O  O396  1  0.62404297  0.51331051  0.00879839  1
  O  O397  1  0.63484221  0.50188966  0.51981950  1
  O  O398  1  0.35973243  0.36480159  0.11781228  1
  O  O399  1  0.36584382  0.37793621  0.61705013  1
  O  O400  1  0.37087513  0.86585818  0.11747450  1
  O  O401  1  0.38351187  0.86197877  0.61586059  1
  O  O402  1  0.86261848  0.37132031  0.11537408  1
  O  O403  1  0.86982762  0.37335671  0.61897550  1
  O  O404  1  0.87559041  0.85710467  0.12437878  1
  O  O405  1  0.87793466  0.88143743  0.60767896  1
  O  O406  1  0.13553348  0.13292741  0.38211207  1
  O  O407  1  0.13544566  0.11643863  0.87755224  1
  O  O408  1  0.12421202  0.62996963  0.38421924  1
  O  O409  1  0.12778704  0.62437657  0.87478419  1
  O  O410  1  0.58607998  0.19956682  0.33434365  1
  O  O411  1  0.63276253  0.13109066  0.87926132  1
  O  O412  1  0.63407355  0.63577147  0.37518539  1
  O  O413  1  0.62901025  0.63115875  0.87879303  1
