# generated using pymatgen
data_V79Zn79O256
_symmetry_space_group_name_H-M   'P 1'
_cell_length_a   16.90783574
_cell_length_b   16.89289694
_cell_length_c   16.89706989
_cell_angle_alpha   89.95350891
_cell_angle_beta   89.93408612
_cell_angle_gamma   89.93378240
_symmetry_Int_Tables_number   1
_chemical_formula_structural   V79Zn79O256
_chemical_formula_sum   'V79 Zn79 O256'
_cell_volume   4826.17241485
_cell_formula_units_Z   1
loop_
 _symmetry_equiv_pos_site_id
 _symmetry_equiv_pos_as_xyz
  1  'x, y, z'
loop_
 _atom_site_type_symbol
 _atom_site_label
 _atom_site_symmetry_multiplicity
 _atom_site_fract_x
 _atom_site_fract_y
 _atom_site_fract_z
 _atom_site_occupancy
  V  V0  1  0.37634942  0.62738028  0.24871440  1
  V  V1  1  0.25208336  0.75349368  0.52161924  1
  V  V2  1  0.75089570  0.76439871  0.48537017  1
  V  V3  1  0.12521052  0.75496062  0.37542138  1
  V  V4  1  0.63399962  0.00582095  0.12500770  1
  V  V5  1  0.24584995  0.87525237  0.12043469  1
  V  V6  1  0.63130339  0.87798565  0.24228210  1
  V  V7  1  0.12870558  0.49989154  0.10870702  1
  V  V8  1  0.87844093  0.49800751  0.87811329  1
  V  V9  1  0.23678733  0.24622371  0.49401381  1
  V  V10  1  0.11292397  0.00129162  0.10678931  1
  V  V11  1  0.74437043  0.61764349  0.37712066  1
  V  V12  1  0.63085738  0.49786461  0.12259969  1
  V  V13  1  0.87483644  0.00189645  0.88761307  1
  V  V14  1  0.00147038  0.50369602  0.50010070  1
  V  V15  1  0.75060300  0.00625875  0.75471543  1
  V  V16  1  0.76040875  0.87760348  0.62272571  1
  V  V17  1  0.36611230  0.50131782  0.87026130  1
  V  V18  1  0.00657701  0.62167575  0.10843181  1
  V  V19  1  0.36217130  0.12127063  0.74982350  1
  V  V20  1  0.27646090  0.01027149  0.23150390  1
  V  V21  1  0.00153395  0.38835406  0.36803400  1
  V  V22  1  0.36350119  0.00134500  0.86923875  1
  V  V23  1  0.37547774  0.37549558  0.00269746  1
  V  V24  1  0.37418765  0.62631805  0.73841058  1
  V  V25  1  0.37603479  0.87293557  -0.00215811  1
  V  V26  1  -0.00843994  -0.02511624  0.49939564  1
  V  V27  1  0.50504400  0.87265156  0.87456261  1
  V  V28  1  0.62449924  0.36764427  0.25167136  1
  V  V29  1  0.50930906  0.50322828  -0.00975066  1
  V  V30  1  0.50463820  0.87308351  0.37641131  1
  V  V31  1  0.63674825  0.37373424  0.75029350  1
  V  V32  1  0.37317877  0.25167896  0.62273427  1
  V  V33  1  0.62566820  0.74196243  0.88417860  1
  V  V34  1  -0.00026646  0.13170272  0.60998373  1
  V  V35  1  0.25009467  0.63110435  0.37351465  1
  V  V36  1  0.49517140  0.25752094  0.76456168  1
  V  V37  1  0.37406063  0.86800325  0.51572060  1
  V  V38  1  0.87469417  0.25572412  0.12553410  1
  V  V39  1  0.50341605  0.74247200  0.73743929  1
  V  V40  1  0.50012328  -0.00155440  0.50300252  1
  V  V41  1  0.63487333  0.24474016  0.89116640  1
  V  V42  1  0.24671887  0.38807995  0.62497587  1
  V  V43  1  0.50835480  0.62730715  0.12004581  1
  V  V44  1  0.87881330  0.61952809  0.25482308  1
  V  V45  1  0.01165053  0.37419657  0.88983652  1
  V  V46  1  0.50389776  0.75281789  0.25356281  1
  V  V47  1  0.87356181  0.75665334  0.11760007  1
  V  V48  1  0.00518366  0.23357594  0.26066532  1
  V  V49  1  0.37558039  0.75168727  0.12391772  1
  V  V50  1  -0.00305440  0.12472441  0.10407858  1
  V  V51  1  0.75493742  0.49511238  0.24431060  1
  V  V52  1  0.63444173  0.13994838  0.49261260  1
  V  V53  1  0.87022321  0.37261963  0.50260088  1
  V  V54  1  0.00159258  0.62014262  0.62877730  1
  V  V55  1  0.62660340  0.00171790  0.62738222  1
  V  V56  1  0.75589528  0.13161029  0.34696622  1
  V  V57  1  0.13385570  0.87722006  0.74640263  1
  V  V58  1  0.46002426  0.21694651  0.24168346  1
  V  V59  1  0.37932761  0.37532678  0.49643730  1
  V  V60  1  0.23970479  0.74313573  -0.00930569  1
  V  V61  1  0.13205439  0.00018765  0.62260369  1
  V  V62  1  0.38125236  0.49867392  0.37321625  1
  V  V63  1  0.23578619  0.12125420  0.38015256  1
  V  V64  1  0.74981978  0.62088133  0.88136744  1
  V  V65  1  0.13577885  0.23166894  0.87108477  1
  V  V66  1  0.00258446  0.75122787  0.25317842  1
  V  V67  1  -0.00371058  0.87744093  0.88479460  1
  V  V68  1  0.37133012  0.00303656  0.38296222  1
  V  V69  1  0.75350950  0.76099988  0.00113941  1
  V  V70  1  0.12412028  0.88282595  0.25189248  1
  V  V71  1  0.62815696  0.50567076  0.62048908  1
  V  V72  1  0.50771911  0.01040000  0.00285762  1
  V  V73  1  0.12560367  0.38793582  0.74107384  1
  V  V74  1  -0.00619157  0.75833509  0.74915137  1
  V  V75  1  0.87762408  0.13049461  0.75285991  1
  V  V76  1  0.85737528  0.37333158  0.00325823  1
  V  V77  1  0.50009324  0.12808522  0.62465229  1
  V  V78  1  0.24542329  0.49992938  0.24848963  1
  Zn  Zn79  1  0.00088848  0.25349082  0.74605972  1
  Zn  Zn80  1  0.49403501  0.51335369  0.51438951  1
  Zn  Zn81  1  0.13097130  0.62143392  0.51262397  1
  Zn  Zn82  1  0.86993437  0.00679180  0.38536571  1
  Zn  Zn83  1  0.87258530  0.74851431  0.61906071  1
  Zn  Zn84  1  0.87144807  0.62664542  0.74846377  1
  Zn  Zn85  1  0.13015230  0.36880464  0.25485217  1
  Zn  Zn86  1  0.84654715  0.25482693  0.61682575  1
  Zn  Zn87  1  0.62896745  0.87232710  0.75085726  1
  Zn  Zn88  1  0.61724287  0.63293611  0.50238982  1
  Zn  Zn89  1  0.23741158  0.62284655  0.87554167  1
  Zn  Zn90  1  0.24077841  0.23512097  0.00283462  1
  Zn  Zn91  1  0.75560559  0.49884751  0.74426596  1
  Zn  Zn92  1  0.26777777  0.34845149  0.13744438  1
  Zn  Zn93  1  0.50903508  0.35880939  0.37467503  1
  Zn  Zn94  1  0.18269018  0.18010021  0.19138915  1
  Zn  Zn95  1  0.17978888  0.19175794  0.68407990  1
  Zn  Zn96  1  0.18751726  0.68735541  0.18330778  1
  Zn  Zn97  1  0.16439789  0.66848924  0.72545611  1
  Zn  Zn98  1  0.68864026  0.18742082  0.16062082  1
  Zn  Zn99  1  0.68501769  0.18832695  0.69386067  1
  Zn  Zn100  1  0.69005679  0.68817704  0.18907332  1
  Zn  Zn101  1  0.69089181  0.68834349  0.68989516  1
  Zn  Zn102  1  0.31374774  0.30750254  0.31289106  1
  Zn  Zn103  1  0.30989637  0.31764559  0.81308386  1
  Zn  Zn104  1  0.31603091  0.82410288  0.31353477  1
  Zn  Zn105  1  0.31680481  0.80814574  0.80661717  1
  Zn  Zn106  1  0.81929361  0.31122970  0.31499235  1
  Zn  Zn107  1  0.81135761  0.30799262  0.82069590  1
  Zn  Zn108  1  0.81452999  0.80904672  0.30494750  1
  Zn  Zn109  1  0.81271908  0.81721732  0.81343605  1
  Zn  Zn110  1  0.18445766  0.43684254  0.43859386  1
  Zn  Zn111  1  0.19560870  0.42797095  0.93550474  1
  Zn  Zn112  1  0.18598611  0.93635814  0.44531501  1
  Zn  Zn113  1  0.18327664  0.92995322  0.93128255  1
  Zn  Zn114  1  0.68775671  0.43686759  0.43444925  1
  Zn  Zn115  1  0.68204833  0.43037738  0.93137959  1
  Zn  Zn116  1  0.68652042  0.94902879  0.43208023  1
  Zn  Zn117  1  0.68969512  0.93920596  0.93903207  1
  Zn  Zn118  1  0.31596380  0.06336305  0.06430798  1
  Zn  Zn119  1  0.31280445  0.06383066  0.56078389  1
  Zn  Zn120  1  0.31598904  0.56233323  0.06112055  1
  Zn  Zn121  1  0.31492116  0.56746424  0.55948470  1
  Zn  Zn122  1  0.80175306  0.07820309  0.06345973  1
  Zn  Zn123  1  0.81453789  0.06608548  0.56229268  1
  Zn  Zn124  1  0.81818414  0.56587826  0.06057188  1
  Zn  Zn125  1  0.81466287  0.55669660  0.56246270  1
  Zn  Zn126  1  0.44300038  0.43875112  0.18584448  1
  Zn  Zn127  1  0.44036361  0.43953310  0.68805560  1
  Zn  Zn128  1  0.43873851  0.94801282  0.18712854  1
  Zn  Zn129  1  0.44036026  0.93602754  0.69269134  1
  Zn  Zn130  1  0.94400896  0.44013655  0.18139430  1
  Zn  Zn131  1  0.93812832  0.43583600  0.68801739  1
  Zn  Zn132  1  0.93853895  0.93719116  0.18565785  1
  Zn  Zn133  1  0.94025445  0.94608689  0.68850801  1
  Zn  Zn134  1  0.05631783  0.05757858  0.32083913  1
  Zn  Zn135  1  0.05800363  0.05588065  0.80767245  1
  Zn  Zn136  1  0.06388971  0.56714700  0.31303414  1
  Zn  Zn137  1  0.05908158  0.55970493  0.81904702  1
  Zn  Zn138  1  0.56446569  0.06441375  0.31101202  1
  Zn  Zn139  1  0.55865069  0.06937051  0.81644785  1
  Zn  Zn140  1  0.56582030  0.56190386  0.30868357  1
  Zn  Zn141  1  0.56536047  0.56230301  0.80764206  1
  Zn  Zn142  1  0.43841901  0.18700286  0.43211362  1
  Zn  Zn143  1  0.41346464  0.17780776  0.95158248  1
  Zn  Zn144  1  0.43555890  0.69056161  0.44071952  1
  Zn  Zn145  1  0.43490301  0.68383949  0.93336128  1
  Zn  Zn146  1  0.92594102  0.19087756  0.43040280  1
  Zn  Zn147  1  0.93805324  0.19459875  0.93359375  1
  Zn  Zn148  1  0.93443519  0.68984587  0.44021338  1
  Zn  Zn149  1  0.93895740  0.68952187  0.93207354  1
  Zn  Zn150  1  0.09086658  0.29782200  0.07520943  1
  Zn  Zn151  1  0.05628457  0.31667519  0.55931135  1
  Zn  Zn152  1  0.06023286  0.81010678  0.06394021  1
  Zn  Zn153  1  0.06689491  0.80802488  0.56866110  1
  Zn  Zn154  1  0.54870357  0.31061523  0.07082682  1
  Zn  Zn155  1  0.56699954  0.31751303  0.56798466  1
  Zn  Zn156  1  0.56519658  0.81449133  0.06253365  1
  Zn  Zn157  1  0.57220575  0.81279816  0.55845767  1
  O  O158  1  0.11157394  0.10774658  0.12532069  1
  O  O159  1  0.10905580  0.11295504  0.63186045  1
  O  O160  1  0.11470752  0.61828594  0.12670732  1
  O  O161  1  0.10694724  0.63325090  0.62940621  1
  O  O162  1  0.61133417  0.10247519  0.13653978  1
  O  O163  1  0.61434960  0.12054177  0.62134701  1
  O  O164  1  0.61534726  0.61895260  0.13109000  1
  O  O165  1  0.62920458  0.61060690  0.62829191  1
  O  O166  1  0.37188474  0.38331873  0.38190755  1
  O  O167  1  0.37332620  0.39245677  0.88154106  1
  O  O168  1  0.38474957  0.87653530  0.39542184  1
  O  O169  1  0.38413781  0.88234539  0.87703116  1
  O  O170  1  0.89347918  0.37196193  0.38400768  1
  O  O171  1  0.88637661  0.37441325  0.88963401  1
  O  O172  1  0.88420620  0.89489515  0.33446590  1
  O  O173  1  0.88250703  0.89044618  0.87441945  1
  O  O174  1  0.25535654  0.00477239  0.38193810  1
  O  O175  1  0.26549277  -0.00520590  0.88038254  1
  O  O176  1  0.25651562  0.51072352  0.36991714  1
  O  O177  1  0.26238609  0.50405984  0.87694566  1
  O  O178  1  0.75249003  0.02392783  0.38425729  1
  O  O179  1  0.76079378  -0.00573521  0.86502766  1
  O  O180  1  0.75211618  0.51318324  0.36380526  1
  O  O181  1  0.75723848  0.50549222  0.87674851  1
  O  O182  1  0.23897485  0.50962086  0.13323221  1
  O  O183  1  0.25043566  0.48709904  0.61263796  1
  O  O184  1  0.22513454  0.99595904  0.12410277  1
  O  O185  1  0.23121564  1.00770464  0.61667316  1
  O  O186  1  0.74219222  0.51268537  0.13157401  1
  O  O187  1  0.73737060  0.49893339  0.62823140  1
  O  O188  1  0.73392120  0.99921555  0.11686074  1
  O  O189  1  0.74336422  0.99762122  0.63154097  1
  O  O190  1  0.00263622  0.38103941  0.26171326  1
  O  O191  1  0.01391566  0.37312857  0.75157061  1
  O  O192  1  0.01168229  0.85784361  0.24010551  1
  O  O193  1  -0.00045368  0.87168785  0.75347857  1
  O  O194  1  0.51748253  0.38167545  0.25159801  1
  O  O195  1  0.49850306  0.35959803  0.74918667  1
  O  O196  1  0.50249107  0.86917037  0.25646953  1
  O  O197  1  0.50250873  0.86317450  0.76016456  1
  O  O198  1  0.48249495  0.11772946  0.25100177  1
  O  O199  1  0.49115388  0.13469872  0.73911096  1
  O  O200  1  0.49637262  0.63420342  0.24342077  1
  O  O201  1  0.49596194  0.63731789  0.75411641  1
  O  O202  1  1.00066603  0.13204806  0.25202037  1
  O  O203  1  0.98583723  0.12258679  0.73945689  1
  O  O204  1  0.99636784  0.63368517  0.24435282  1
  O  O205  1  0.99503665  0.63422416  0.74073894  1
  O  O206  1  0.40581302  0.28097888  -0.00096275  1
  O  O207  1  0.37227838  0.25732506  0.50687894  1
  O  O208  1  0.37201836  0.75950996  0.00276971  1
  O  O209  1  0.36067168  0.75330786  0.50234475  1
  O  O210  1  0.88104430  0.26390188  0.00876658  1
  O  O211  1  0.88048924  0.26644759  0.50188899  1
  O  O212  1  0.87206734  0.74481445  0.01131329  1
  O  O213  1  0.85565934  0.74848612  0.50117697  1
  O  O214  1  0.13921916  0.25513675  0.50271432  1
  O  O215  1  0.12377087  0.24922961  0.97447307  1
  O  O216  1  0.13845656  0.75096813  0.49258770  1
  O  O217  1  0.14092433  0.75667041  1.00172438  1
  O  O218  1  0.61038175  0.23764331  0.49958415  1
  O  O219  1  0.60821533  0.26528585  0.98667778  1
  O  O220  1  0.64646300  0.74481509  0.50494724  1
  O  O221  1  0.63429362  0.75218816  0.99217197  1
  O  O222  1  0.49981148  0.25104416  0.15418224  1
  O  O223  1  0.48828531  0.24497310  0.62946093  1
  O  O224  1  0.49537855  0.74535676  0.13019491  1
  O  O225  1  0.51343004  0.75371220  0.63951015  1
  O  O226  1  1.00573199  0.23366983  0.12912610  1
  O  O227  1  1.00508937  0.23682434  0.62685296  1
  O  O228  1  0.99543082  0.73803203  0.12995961  1
  O  O229  1  0.99241949  0.74282904  0.63054390  1
  O  O230  1  -0.00269652  0.25588248  0.36199505  1
  O  O231  1  0.00802785  0.26353403  0.86891298  1
  O  O232  1  0.01291276  0.74165307  0.36623072  1
  O  O233  1  -0.01059382  0.76720012  0.86397917  1
  O  O234  1  0.48121912  0.24940851  0.34510044  1
  O  O235  1  0.48942505  0.24414151  0.86245827  1
  O  O236  1  0.49258199  0.76050330  0.36398047  1
  O  O237  1  0.50841163  0.75512270  0.87464855  1
  O  O238  1  0.25163892  0.13952502  0.49730834  1
  O  O239  1  0.31064214  0.14912776  1.00028657  1
  O  O240  1  0.25079669  0.63763793  0.49245783  1
  O  O241  1  0.25505577  0.63961271  0.99868689  1
  O  O242  1  0.73334696  0.13235059  0.51248672  1
  O  O243  1  0.72635086  0.15954308  1.05378216  1
  O  O244  1  0.75220521  0.62587559  0.48334225  1
  O  O245  1  0.75756379  0.63516200  0.98701009  1
  O  O246  1  0.26789745  0.36356648  -0.00110481  1
  O  O247  1  0.25800158  0.36433287  0.50259304  1
  O  O248  1  0.25862661  0.86827811  0.00062519  1
  O  O249  1  0.25773850  0.86085271  0.50142546  1
  O  O250  1  0.75885227  0.37452713  0.00209301  1
  O  O251  1  0.77222853  0.38662324  0.48980536  1
  O  O252  1  0.75237784  0.86079048  -0.00380284  1
  O  O253  1  0.74397495  0.86929920  0.50122798  1
  O  O254  1  0.13882265  0.50427602  0.24961085  1
  O  O255  1  0.12331372  0.48619341  0.74725277  1
  O  O256  1  0.11424261  0.98692443  0.24650562  1
  O  O257  1  0.11761838  0.98911539  0.73513188  1
  O  O258  1  0.63659981  0.49608959  0.24128500  1
  O  O259  1  0.62632583  0.48614934  0.74689297  1
  O  O260  1  0.61610458  0.98631598  0.23921042  1
  O  O261  1  0.63152206  1.00609230  0.74291185  1
  O  O262  1  0.36854794  -0.03410584  0.28186265  1
  O  O263  1  0.37787589  0.00334055  0.76088840  1
  O  O264  1  0.36554978  0.50570812  0.25443690  1
  O  O265  1  0.38671280  0.51072492  0.76296553  1
  O  O266  1  0.86877994  -0.04344484  0.27322705  1
  O  O267  1  0.86757443  0.01168220  0.75552303  1
  O  O268  1  0.86878166  0.51050820  0.23673270  1
  O  O269  1  0.87311103  0.49332247  0.76614291  1
  O  O270  1  0.10894613  0.37641179  0.37490345  1
  O  O271  1  0.11993551  0.37517882  0.86372893  1
  O  O272  1  0.13489132  0.86397149  0.36533144  1
  O  O273  1  0.10567353  0.88870360  0.85819176  1
  O  O274  1  0.62532847  0.37859082  0.35929971  1
  O  O275  1  0.62027732  0.36419139  0.85911824  1
  O  O276  1  0.61009195  0.88607648  0.36507701  1
  O  O277  1  0.61886262  0.86542766  0.87439319  1
  O  O278  1  0.35607494  0.03783862  0.16555955  1
  O  O279  1  0.38211187  0.13122533  0.62847169  1
  O  O280  1  0.38548916  0.63024111  0.13043312  1
  O  O281  1  0.38176394  0.61334888  0.63907807  1
  O  O282  1  0.88918405  0.14059467  0.11948979  1
  O  O283  1  0.88434899  0.13100210  0.63281515  1
  O  O284  1  0.89149412  0.62887915  0.13027126  1
  O  O285  1  0.88377779  0.62563846  0.62810257  1
  O  O286  1  0.20495208  0.25853837  0.11291168  1
  O  O287  1  0.25872539  0.25488923  0.61344181  1
  O  O288  1  0.25588290  0.75564639  0.11614965  1
  O  O289  1  0.24237995  0.74466639  0.61702548  1
  O  O290  1  0.77888136  0.26552416  0.14062558  1
  O  O291  1  0.73759931  0.26061193  0.63132236  1
  O  O292  1  0.76616923  0.74011108  0.11820954  1
  O  O293  1  0.75025019  0.76372798  0.62101268  1
  O  O294  1  0.25437168  0.23994158  0.38724966  1
  O  O295  1  0.23967005  0.24856099  0.87246506  1
  O  O296  1  0.24551879  0.74292965  0.37003054  1
  O  O297  1  0.25745121  0.75137290  0.88893092  1
  O  O298  1  0.75410682  0.23338307  0.36648180  1
  O  O299  1  0.73597243  0.25153721  0.88355171  1
  O  O300  1  0.75334001  0.74519370  0.38152736  1
  O  O301  1  0.74537655  0.74515983  0.88108294  1
  O  O302  1  0.00057084  0.12662946  0.00571262  1
  O  O303  1  -0.00646498  0.12966817  0.50981469  1
  O  O304  1  0.00187480  0.62980094  0.00948758  1
  O  O305  1  -0.00032545  0.62386562  0.51198522  1
  O  O306  1  0.49606525  0.10825357  -0.00317271  1
  O  O307  1  0.50290849  0.12027117  0.50917248  1
  O  O308  1  0.49476667  0.61651245  0.01031054  1
  O  O309  1  0.50657749  0.62256546  0.48887387  1
  O  O310  1  0.48771662  0.37440465  0.49525262  1
  O  O311  1  0.49212004  0.40095044  1.01056843  1
  O  O312  1  0.49808197  0.87669769  0.49549219  1
  O  O313  1  0.49223742  0.87450878  0.98999509  1
  O  O314  1  0.99779531  0.38488280  0.48916150  1
  O  O315  1  1.01397289  0.37136742  0.98809545  1
  O  O316  1  0.99466140  0.87510834  0.50560286  1
  O  O317  1  1.00369709  0.86998283  0.98380578  1
  O  O318  1  0.48450577  0.50051412  0.36779191  1
  O  O319  1  0.49731103  0.50901317  0.88758112  1
  O  O320  1  0.49136046  0.99316891  0.38473410  1
  O  O321  1  0.50193739  0.98851652  0.88256200  1
  O  O322  1  0.99960519  0.49534972  0.37910990  1
  O  O323  1  0.99246296  0.48412128  0.87278286  1
  O  O324  1  0.99855564  0.99926317  0.39756770  1
  O  O325  1  0.98472443  0.99196461  0.87300370  1
  O  O326  1  0.00110423  0.01073417  0.12458441  1
  O  O327  1  0.00186563  0.01034945  0.61292737  1
  O  O328  1  0.01368521  0.51411641  0.12421542  1
  O  O329  1  -0.00177538  0.51456077  0.62120561  1
  O  O330  1  0.50571267  -0.01118586  0.10492702  1
  O  O331  1  0.50689553  0.00846001  0.62523314  1
  O  O332  1  0.50978251  0.51242103  0.11941925  1
  O  O333  1  0.51813849  0.49412234  0.62678848  1
  O  O334  1  0.24994503  0.38531886  0.25005023  1
  O  O335  1  0.23855962  0.37197729  0.73839147  1
  O  O336  1  0.24357860  0.88958883  0.23967311  1
  O  O337  1  0.23269711  0.86827435  0.75767709  1
  O  O338  1  0.74772060  0.39031814  0.25677698  1
  O  O339  1  0.73967438  0.37403764  0.75567889  1
  O  O340  1  0.72841920  0.86595097  0.25502936  1
  O  O341  1  0.74781373  0.88733141  0.74170982  1
  O  O342  1  0.24079604  0.10677624  0.25997881  1
  O  O343  1  0.26396478  0.13034813  0.73840130  1
  O  O344  1  0.25580312  0.62128257  0.25564733  1
  O  O345  1  0.27359580  0.63755668  0.75025882  1
  O  O346  1  0.74096943  0.12538267  0.24890080  1
  O  O347  1  0.76322426  0.11601032  0.74389972  1
  O  O348  1  0.75879036  0.62116565  0.25706872  1
  O  O349  1  0.75385504  0.62367046  0.76581297  1
  O  O350  1  0.36427790  0.10854925  0.38511077  1
  O  O351  1  0.38307289  0.10708793  0.86237701  1
  O  O352  1  0.36623103  0.61978106  0.36921273  1
  O  O353  1  0.37246415  0.61402418  0.86814685  1
  O  O354  1  0.86392279  0.12327528  0.36431254  1
  O  O355  1  0.88332840  0.11656314  0.86223018  1
  O  O356  1  0.86802250  0.63218545  0.36053610  1
  O  O357  1  0.87251527  0.61268003  0.87500375  1
  O  O358  1  0.11894304  0.39744501  0.13321723  1
  O  O359  1  0.13112707  0.36886306  0.63401865  1
  O  O360  1  0.12396740  0.88375119  0.13074766  1
  O  O361  1  0.12184009  0.88681259  0.63511199  1
  O  O362  1  0.62105686  0.39249833  0.13294165  1
  O  O363  1  0.62268351  0.38100214  0.64245403  1
  O  O364  1  0.62116806  0.88106739  0.13618281  1
  O  O365  1  0.63297679  0.89007935  0.62671592  1
  O  O366  1  0.10829549  0.25293530  0.24767301  1
  O  O367  1  0.12314735  0.25861040  0.75973736  1
  O  O368  1  0.12238954  0.75707566  0.25470483  1
  O  O369  1  0.10669650  0.77093668  0.74055169  1
  O  O370  1  0.64017169  0.27154558  0.23129936  1
  O  O371  1  0.60994241  0.25658407  0.75768410  1
  O  O372  1  0.61150187  0.76064458  0.24171839  1
  O  O373  1  0.61631185  0.75010985  0.76227042  1
  O  O374  1  0.35856701  0.23680525  0.23485618  1
  O  O375  1  0.37974772  0.24543223  0.74241327  1
  O  O376  1  0.38261659  0.74972976  0.24388501  1
  O  O377  1  0.39327147  0.74079853  0.75255335  1
  O  O378  1  0.90010552  0.26594391  0.23338180  1
  O  O379  1  0.87515259  0.23796586  0.75278891  1
  O  O380  1  0.88315981  0.73988524  0.23738358  1
  O  O381  1  0.88200755  0.75171585  0.74613949  1
  O  O382  1  0.37452011  0.49201220  0.49066935  1
  O  O383  1  0.38321297  0.49942743  0.98735212  1
  O  O384  1  0.38005836  0.98990303  0.50009422  1
  O  O385  1  0.38683508  0.98912514  0.98684683  1
  O  O386  1  0.89210037  0.49167064  0.50237822  1
  O  O387  1  0.87322688  0.48524187  0.99149777  1
  O  O388  1  0.88716167  0.99823885  0.50507803  1
  O  O389  1  0.86195375  1.01646736  0.98512811  1
  O  O390  1  0.12020717  -0.00784635  0.00852437  1
  O  O391  1  0.10888633  -0.01126015  0.51473040  1
  O  O392  1  0.13761120  0.49790813  0.00996651  1
  O  O393  1  0.11078750  0.50603493  0.49611635  1
  O  O394  1  0.61584796  -0.00551218  0.00709962  1
  O  O395  1  0.61889388  0.01098849  0.51200290  1
  O  O396  1  0.61557899  0.49746890  0.00368281  1
  O  O397  1  0.62474819  0.49792035  0.51255006  1
  O  O398  1  0.36986428  0.39398484  0.11023224  1
  O  O399  1  0.36830074  0.37006110  0.61802833  1
  O  O400  1  0.36898801  0.87267792  0.11366656  1
  O  O401  1  0.38292509  0.87668195  0.61557724  1
  O  O402  1  0.89126842  0.37052622  0.10713632  1
  O  O403  1  0.88529854  0.37210324  0.60996981  1
  O  O404  1  0.88354842  0.85495368  0.12555186  1
  O  O405  1  0.86183513  0.88208878  0.62738418  1
  O  O406  1  0.13654581  0.11787260  0.37920541  1
  O  O407  1  0.12090169  0.13296031  0.86209991  1
  O  O408  1  0.13654247  0.63640983  0.37601834  1
  O  O409  1  0.13405909  0.63750024  0.83458287  1
  O  O410  1  0.63294769  0.12114900  0.38762048  1
  O  O411  1  0.61837517  0.14505212  0.87344712  1
  O  O412  1  0.64182638  0.62530218  0.36962454  1
  O  O413  1  0.63413429  0.63333112  0.87265255  1
