# generated using pymatgen
data_V79Zn79O256
_symmetry_space_group_name_H-M   'P 1'
_cell_length_a   16.89018229
_cell_length_b   16.89660336
_cell_length_c   16.87232247
_cell_angle_alpha   89.82922328
_cell_angle_beta   90.06999573
_cell_angle_gamma   89.85618814
_symmetry_Int_Tables_number   1
_chemical_formula_structural   V79Zn79O256
_chemical_formula_sum   'V79 Zn79 O256'
_cell_volume   4815.09641828
_cell_formula_units_Z   1
loop_
 _symmetry_equiv_pos_site_id
 _symmetry_equiv_pos_as_xyz
  1  'x, y, z'
loop_
 _atom_site_type_symbol
 _atom_site_label
 _atom_site_symmetry_multiplicity
 _atom_site_fract_x
 _atom_site_fract_y
 _atom_site_fract_z
 _atom_site_occupancy
  V  V0  1  0.86639565  0.37705528  0.49695017  1
  V  V1  1  -0.00170350  0.87509935  0.87271064  1
  V  V2  1  0.12515437  0.13606218  0.49410473  1
  V  V3  1  0.62779268  0.87501550  0.75094396  1
  V  V4  1  0.87414198  0.49627196  0.87605422  1
  V  V5  1  0.37444098  0.63339003  0.74941428  1
  V  V6  1  0.87876704  -0.02244465  0.37548570  1
  V  V7  1  0.62081607  0.87173799  0.24643547  1
  V  V8  1  0.48919585  0.13584202  0.62471700  1
  V  V9  1  0.76135603  0.13218800  0.37164247  1
  V  V10  1  0.62213926  0.13440925  -0.01946705  1
  V  V11  1  0.86939745  0.37051800  0.02394074  1
  V  V12  1  0.87889362  0.86436703  0.00801259  1
  V  V13  1  0.87008586  0.74813241  0.61121149  1
  V  V14  1  0.38922976  0.74361306  0.11739623  1
  V  V15  1  0.74733546  0.25246028  0.01229211  1
  V  V16  1  0.25580041  0.13613301  0.36804324  1
  V  V17  1  0.24574053  0.24780327  -0.01349017  1
  V  V18  1  0.12365555  0.00390928  0.12994825  1
  V  V19  1  0.49452612  0.23701600  0.24731030  1
  V  V20  1  0.49323627  0.88287173  0.88081165  1
  V  V21  1  0.51234974  0.61428179  0.11709849  1
  V  V22  1  0.25795032  -0.00030201  0.24752896  1
  V  V23  1  -0.00226155  0.63102956  0.12695062  1
  V  V24  1  0.15994388  0.65279043  0.49215123  1
  V  V25  1  0.37785237  0.38548744  0.50199009  1
  V  V26  1  0.36333096  0.87055323  0.51346856  1
  V  V27  1  0.00069942  0.38280830  0.37709466  1
  V  V28  1  -0.00382492  0.12487171  0.62992554  1
  V  V29  1  0.25702917  0.50601061  0.25150092  1
  V  V30  1  0.87444014  0.62249242  0.74812946  1
  V  V31  1  0.87424261  0.62697962  0.24974908  1
  V  V32  1  0.01074185  0.49961175  0.52708534  1
  V  V33  1  0.12420480  0.36266487  0.25529497  1
  V  V34  1  0.38300384  0.50310532  0.87901015  1
  V  V35  1  0.61694473  0.50163057  0.61691261  1
  V  V36  1  0.75494807  0.62955977  0.38029916  1
  V  V37  1  0.12333056  0.49813375  0.12770003  1
  V  V38  1  0.13488083  0.00268309  0.62639772  1
  V  V39  1  0.12712222  0.62969830  0.00112496  1
  V  V40  1  0.37856212  0.37797091  -0.00004793  1
  V  V41  1  0.61488670  0.75869213  0.37376105  1
  V  V42  1  0.62251078  0.25404489  0.37510946  1
  V  V43  1  -0.00607243  0.74841902  0.75085279  1
  V  V44  1  0.74411004  0.49704798  0.24643935  1
  V  V45  1  0.12428085  0.13240618  -0.00834016  1
  V  V46  1  0.61994181  0.62906813  0.49669340  1
  V  V47  1  0.49561253  0.39827158  0.37067493  1
  V  V48  1  0.25540663  0.87200641  0.10954006  1
  V  V49  1  0.63125080  0.01139698  0.12496653  1
  V  V50  1  0.76335607  0.00324301  0.75709063  1
  V  V51  1  0.38037465  -0.00422011  0.36992020  1
  V  V52  1  0.00007267  -0.01274021  0.49772983  1
  V  V53  1  0.69231861  0.57329554  0.92925207  1
  V  V54  1  0.62876524  0.13076541  0.49746791  1
  V  V55  1  0.11586972  0.35447555  0.75478611  1
  V  V56  1  0.49690363  0.35678543  0.86800353  1
  V  V57  1  0.74430055  0.50031935  0.74423072  1
  V  V58  1  0.18270841  0.82545475  0.69974470  1
  V  V59  1  0.61760504  0.36312872  0.74766210  1
  V  V60  1  0.62512670  0.00019744  0.62300089  1
  V  V61  1  0.86376514  0.24548672  0.62674275  1
  V  V62  1  -0.00095713  0.49666763  0.00121668  1
  V  V63  1  0.24855850  0.62848762  0.88164607  1
  V  V64  1  0.23917832  0.49597099  0.74723819  1
  V  V65  1  0.37550461  0.23736174  0.12824287  1
  V  V66  1  -0.01595384  0.24520784  0.25694543  1
  V  V67  1  0.37564688  0.13240665  0.76354358  1
  V  V68  1  0.63039776  0.75157321  0.87908892  1
  V  V69  1  0.50088238  -0.00616053  0.49346259  1
  V  V70  1  -0.00621231  -0.00022181  -0.00320518  1
  V  V71  1  0.75336937  0.74881605  0.00315526  1
  V  V72  1  -0.01522823  0.12931356  0.13065019  1
  V  V73  1  0.25183192  0.00921142  0.76806919  1
  V  V74  1  0.49639975  0.63451796  0.62424686  1
  V  V75  1  0.00998254  0.75188218  0.25798420  1
  V  V76  1  0.24998503  0.37114458  0.12427969  1
  V  V77  1  0.75277290  0.87173211  0.61176545  1
  V  V78  1  0.49473830  0.00164529  0.00417305  1
  Zn  Zn79  1  0.62595749  0.37383140  0.23325467  1
  Zn  Zn80  1  0.23723036  0.37472894  0.61645136  1
  Zn  Zn81  1  0.07163481  0.81460242  0.41244412  1
  Zn  Zn82  1  0.76472585  0.14121969  0.86423521  1
  Zn  Zn83  1  0.73885596  0.36756214  0.61471246  1
  Zn  Zn84  1  0.00553470  0.35833195  0.88495942  1
  Zn  Zn85  1  0.12792271  0.75545108  0.88022451  1
  Zn  Zn86  1  0.27407191  0.24425642  0.51777602  1
  Zn  Zn87  1  0.75672924  0.86816796  0.12910721  1
  Zn  Zn88  1  0.49444714  0.75770498  0.75080040  1
  Zn  Zn89  1  0.12900748  0.87442104  0.25499312  1
  Zn  Zn90  1  0.32255853  0.56725877  0.40176005  1
  Zn  Zn91  1  0.62583309  0.49474277  0.10686347  1
  Zn  Zn92  1  -0.01336571  0.23562585  0.76210800  1
  Zn  Zn93  1  0.76433762  0.00232721  0.24119174  1
  Zn  Zn94  1  0.18454332  0.18434213  0.18417646  1
  Zn  Zn95  1  0.19175725  0.18752733  0.68671210  1
  Zn  Zn96  1  0.22953683  0.71684682  0.24059925  1
  Zn  Zn97  1  0.18081125  0.66051688  0.68029202  1
  Zn  Zn98  1  0.68852071  0.18757162  0.19344835  1
  Zn  Zn99  1  0.68857997  0.18139750  0.68523921  1
  Zn  Zn100  1  0.68025190  0.68242246  0.18581044  1
  Zn  Zn101  1  0.68894117  0.68773293  0.68741414  1
  Zn  Zn102  1  0.31812468  0.31916140  0.31411271  1
  Zn  Zn103  1  0.31338661  0.31291985  0.80499439  1
  Zn  Zn104  1  0.36878140  0.79937603  0.31407287  1
  Zn  Zn105  1  0.31413038  0.81366650  0.82599399  1
  Zn  Zn106  1  0.81161344  0.31470862  0.31586056  1
  Zn  Zn107  1  0.80904390  0.31246826  0.81567798  1
  Zn  Zn108  1  0.80865144  0.80705529  0.30779399  1
  Zn  Zn109  1  0.81368377  0.81589954  0.81541159  1
  Zn  Zn110  1  0.18651735  0.43241124  0.43735709  1
  Zn  Zn111  1  0.18915769  0.43743746  0.93366178  1
  Zn  Zn112  1  0.19386765  0.94423466  0.43715283  1
  Zn  Zn113  1  0.17781754  0.94060440  0.93705252  1
  Zn  Zn114  1  0.68391377  0.44419721  0.42899852  1
  Zn  Zn115  1  0.68598879  0.40343280  0.93318874  1
  Zn  Zn116  1  0.69067431  0.94346624  0.43058836  1
  Zn  Zn117  1  0.68944789  0.93717353  0.94143797  1
  Zn  Zn118  1  0.30844641  0.05930635  0.05538457  1
  Zn  Zn119  1  0.31294247  0.05785127  0.55819322  1
  Zn  Zn120  1  0.31722048  0.56649245  0.06768059  1
  Zn  Zn121  1  0.31617775  0.55823769  0.56919718  1
  Zn  Zn122  1  0.81511625  0.06675204  0.03577096  1
  Zn  Zn123  1  0.81290896  0.05867249  0.55682327  1
  Zn  Zn124  1  0.81647389  0.56021310  0.06999448  1
  Zn  Zn125  1  0.81335917  0.55898644  0.56076651  1
  Zn  Zn126  1  0.44236663  0.43699849  0.18752500  1
  Zn  Zn127  1  0.43558366  0.44476046  0.68998375  1
  Zn  Zn128  1  0.43303742  0.92371230  0.18449846  1
  Zn  Zn129  1  0.43617956  0.94498796  0.69037734  1
  Zn  Zn130  1  0.93610594  0.44350185  0.20048037  1
  Zn  Zn131  1  0.93372736  0.42695350  0.68921004  1
  Zn  Zn132  1  0.93720342  0.93573420  0.18805026  1
  Zn  Zn133  1  0.93880323  0.93289978  0.68074097  1
  Zn  Zn134  1  0.06196270  0.05976140  0.31643249  1
  Zn  Zn135  1  0.06221780  0.05811279  0.81247775  1
  Zn  Zn136  1  0.07138682  0.56436644  0.31811441  1
  Zn  Zn137  1  0.05790067  0.56245530  0.81542507  1
  Zn  Zn138  1  0.56704402  0.06112560  0.30822995  1
  Zn  Zn139  1  0.56085918  0.06289730  0.80857213  1
  Zn  Zn140  1  0.56076333  0.57619454  0.29834156  1
  Zn  Zn141  1  0.55561736  0.55804524  0.80554793  1
  Zn  Zn142  1  0.43887020  0.18980375  0.43676969  1
  Zn  Zn143  1  0.43391347  0.18480523  0.94510905  1
  Zn  Zn144  1  0.43747970  0.69272245  0.43783997  1
  Zn  Zn145  1  0.43886495  0.69562556  0.94565875  1
  Zn  Zn146  1  0.94290330  0.19393930  0.44587874  1
  Zn  Zn147  1  0.92666988  0.18571191  0.93955095  1
  Zn  Zn148  1  0.94192912  0.67416771  0.43780277  1
  Zn  Zn149  1  0.93567010  0.68331473  0.93251617  1
  Zn  Zn150  1  0.05791786  0.30825059  0.06817491  1
  Zn  Zn151  1  0.05725345  0.31491964  0.57119595  1
  Zn  Zn152  1  0.06759938  0.81517964  0.06840407  1
  Zn  Zn153  1  0.05989916  0.80438259  0.57388478  1
  Zn  Zn154  1  0.55903996  0.31296175  0.06388201  1
  Zn  Zn155  1  0.55228762  0.31766473  0.55643295  1
  Zn  Zn156  1  0.56660692  0.81400891  0.06291979  1
  Zn  Zn157  1  0.56266702  0.81157170  0.55946436  1
  O  O158  1  0.11479317  0.11865288  0.11827307  1
  O  O159  1  0.11861877  0.11988373  0.61528013  1
  O  O160  1  0.11552662  0.60800922  0.11630477  1
  O  O161  1  0.13146300  0.62404368  0.58746028  1
  O  O162  1  0.62139042  0.11187067  0.12862600  1
  O  O163  1  0.61839180  0.11722584  0.61751871  1
  O  O164  1  0.61829189  0.61773778  0.11294310  1
  O  O165  1  0.62063235  0.62202966  0.61680076  1
  O  O166  1  0.38979844  0.38459267  0.37464850  1
  O  O167  1  0.38133494  0.38082997  0.87750235  1
  O  O168  1  0.37891056  0.89154863  0.38490522  1
  O  O169  1  0.39395060  0.87624268  0.87420403  1
  O  O170  1  0.88386917  0.36714439  0.39055082  1
  O  O171  1  0.87358225  0.38962985  0.88084639  1
  O  O172  1  0.87006966  0.87912816  0.37969057  1
  O  O173  1  0.88835305  0.86906993  0.88938208  1
  O  O174  1  0.26216813  0.01005158  0.36502834  1
  O  O175  1  0.24410573  0.00376183  0.86778564  1
  O  O176  1  0.24411215  0.49472947  0.35629316  1
  O  O177  1  0.25905417  0.50787508  0.86707741  1
  O  O178  1  0.76860085  0.01203949  0.37878281  1
  O  O179  1  0.74745367  -0.00922134  0.85710961  1
  O  O180  1  0.73924093  0.52081744  0.36240966  1
  O  O181  1  0.74952744  0.50290161  0.87104379  1
  O  O182  1  0.24144547  0.48643159  0.12664262  1
  O  O183  1  0.25671258  0.49288680  0.64415273  1
  O  O184  1  0.23888744  1.00306171  0.12773456  1
  O  O185  1  0.23850279  1.00399884  0.62899187  1
  O  O186  1  0.74594321  0.50788004  0.14058876  1
  O  O187  1  0.73758689  0.49609140  0.63011287  1
  O  O188  1  0.73938194  1.00115494  0.11784387  1
  O  O189  1  0.74132343  0.99516744  0.62970322  1
  O  O190  1  0.00295283  0.36346159  0.25474723  1
  O  O191  1  0.00813831  0.36680411  0.75602571  1
  O  O192  1  -0.00102940  0.85331665  0.24308905  1
  O  O193  1  -0.01034103  0.86254959  0.75946414  1
  O  O194  1  0.50342027  0.36989958  0.26182213  1
  O  O195  1  0.50077150  0.37678330  0.75949183  1
  O  O196  1  0.52335292  0.89024470  0.25237438  1
  O  O197  1  0.51049813  0.88034280  0.76030047  1
  O  O198  1  0.50130331  0.13815325  0.25019998  1
  O  O199  1  0.48700550  0.11293941  0.73476370  1
  O  O200  1  0.50223770  0.63214553  0.22170141  1
  O  O201  1  0.49100058  0.63071721  0.74490401  1
  O  O202  1  1.00233355  0.13491733  0.24321302  1
  O  O203  1  1.00116581  0.11779029  0.73473894  1
  O  O204  1  0.99726998  0.62754829  0.24632566  1
  O  O205  1  0.98755814  0.63375179  0.75528603  1
  O  O206  1  0.36572963  0.25662383  0.00739868  1
  O  O207  1  0.38145044  0.27326765  0.48879129  1
  O  O208  1  0.37305294  0.76124737  0.01723085  1
  O  O209  1  0.38561458  0.77314522  0.49781382  1
  O  O210  1  0.86918394  0.26722542  0.01101849  1
  O  O211  1  0.88257431  0.26559040  0.51392344  1
  O  O212  1  0.86616624  0.75105547  -0.00612512  1
  O  O213  1  0.88046369  0.73999036  0.51341709  1
  O  O214  1  0.11671333  0.23577530  0.50267630  1
  O  O215  1  0.12905691  0.24039161  1.00594653  1
  O  O216  1  0.12953938  0.75552157  0.49544130  1
  O  O217  1  0.11664140  0.73226085  1.00259424  1
  O  O218  1  0.61423810  0.24132778  0.48846843  1
  O  O219  1  0.62347270  0.23901756  0.99993535  1
  O  O220  1  0.62452887  0.74441642  0.48555124  1
  O  O221  1  0.63566199  0.75691367  0.98719549  1
  O  O222  1  0.48994893  0.25530774  0.13825284  1
  O  O223  1  0.50393318  0.23402329  0.62120170  1
  O  O224  1  0.49746349  0.73788691  0.11013313  1
  O  O225  1  0.50899735  0.73949561  0.63188068  1
  O  O226  1  0.99676401  0.23632257  0.13516514  1
  O  O227  1  0.98934672  0.23903292  0.63128774  1
  O  O228  1  1.00955999  0.73570802  0.13627581  1
  O  O229  1  0.98140532  0.75333230  0.63836009  1
  O  O230  1  -0.00084701  0.25472758  0.36183675  1
  O  O231  1  -0.01199295  0.24742482  0.87409607  1
  O  O232  1  -0.00241713  0.74232961  0.36420501  1
  O  O233  1  0.00338682  0.75247991  0.86579382  1
  O  O234  1  0.50615282  0.25160973  0.36171152  1
  O  O235  1  0.49158909  0.25852743  0.87127334  1
  O  O236  1  0.51535420  0.75761654  0.37015242  1
  O  O237  1  0.51096694  0.76420528  0.87685226  1
  O  O238  1  0.24012201  0.12837958  0.49275860  1
  O  O239  1  0.23276904  0.13195919  1.00353335  1
  O  O240  1  0.26187181  0.62839303  0.49252255  1
  O  O241  1  0.23900314  0.61252374  0.99254946  1
  O  O242  1  0.73667504  0.12058086  0.48893292  1
  O  O243  1  0.72576042  0.13409206  1.00585170  1
  O  O244  1  0.74080530  0.62014350  0.48722475  1
  O  O245  1  0.75343680  0.62663360  0.99251408  1
  O  O246  1  0.25360365  0.36709166  0.00663347  1
  O  O247  1  0.26337776  0.37124194  0.49781400  1
  O  O248  1  0.22763528  0.87082940  0.01156254  1
  O  O249  1  0.26315924  0.88340315  0.50370212  1
  O  O250  1  0.76272136  0.37226613  0.00671380  1
  O  O251  1  0.76168684  0.38261336  0.49419018  1
  O  O252  1  0.76130831  0.86619372  0.00141234  1
  O  O253  1  0.74206908  0.88097539  0.51292183  1
  O  O254  1  0.12611304  0.48625070  0.24032356  1
  O  O255  1  0.13817686  0.50917773  0.75176347  1
  O  O256  1  0.13241806  1.00800591  0.23975629  1
  O  O257  1  0.14099305  1.01036595  0.74222619  1
  O  O258  1  0.63736389  0.50199870  0.24746327  1
  O  O259  1  0.62787917  0.49367509  0.73979565  1
  O  O260  1  0.63277785  0.99464790  0.23842071  1
  O  O261  1  0.63000508  0.99257771  0.73929566  1
  O  O262  1  0.37113855  -0.00231196  0.25685454  1
  O  O263  1  0.35729821  0.00701834  0.74728247  1
  O  O264  1  0.35607970  0.49502446  0.23878224  1
  O  O265  1  0.36621116  0.50992001  0.76077191  1
  O  O266  1  0.88032464  -0.00475800  0.26879548  1
  O  O267  1  0.86189202  -0.00536298  0.74179194  1
  O  O268  1  0.86261924  0.51484107  0.25175581  1
  O  O269  1  0.86558886  0.50130441  0.75483646  1
  O  O270  1  0.11659832  0.37237024  0.36338043  1
  O  O271  1  0.12036103  0.38377570  0.86082454  1
  O  O272  1  0.12265074  0.89859943  0.36444436  1
  O  O273  1  0.10703063  0.87046201  0.87877611  1
  O  O274  1  0.61290255  0.36744611  0.37706056  1
  O  O275  1  0.60414268  0.37589843  0.86458924  1
  O  O276  1  0.63671545  0.86612553  0.36421046  1
  O  O277  1  0.62244200  0.86977570  0.86693584  1
  O  O278  1  0.36662099  0.13891017  0.11903445  1
  O  O279  1  0.38680650  0.12215876  0.62148985  1
  O  O280  1  0.37305704  0.64185037  0.13201382  1
  O  O281  1  0.38506102  0.62045137  0.63665860  1
  O  O282  1  0.88718731  0.11541941  0.12145067  1
  O  O283  1  0.88127896  0.13664054  0.61188425  1
  O  O284  1  0.88948904  0.62091607  0.13283017  1
  O  O285  1  0.86429046  0.63602272  0.63614905  1
  O  O286  1  0.25456415  0.25858409  0.12115657  1
  O  O287  1  0.24999315  0.26071608  0.62648531  1
  O  O288  1  0.26202132  0.77001546  0.13778326  1
  O  O289  1  0.23944798  0.76541978  0.64604283  1
  O  O290  1  0.74316422  0.24613868  0.11403180  1
  O  O291  1  0.75871223  0.24711955  0.61943804  1
  O  O292  1  0.74117767  0.74511180  0.10690794  1
  O  O293  1  0.76022953  0.75677503  0.62765694  1
  O  O294  1  0.25551571  0.23706472  0.37039711  1
  O  O295  1  0.25435878  0.25466786  0.88805159  1
  O  O296  1  0.28285397  0.73238383  0.34096164  1
  O  O297  1  0.24508778  0.73409839  0.87135182  1
  O  O298  1  0.73610639  0.24151500  0.36788597  1
  O  O299  1  0.75295744  0.25410705  0.89605777  1
  O  O300  1  0.73913876  0.73485390  0.36905946  1
  O  O301  1  0.74096165  0.75171673  0.88219783  1
  O  O302  1  0.00668752  0.12021939  0.01466181  1
  O  O303  1  0.01144289  0.11667701  0.50561159  1
  O  O304  1  0.00345680  0.61408333  0.00625626  1
  O  O305  1  -0.00763813  0.59654927  0.50047866  1
  O  O306  1  0.51406378  0.11509172  -0.00511270  1
  O  O307  1  0.50677768  0.11746960  0.50888701  1
  O  O308  1  0.48474937  0.61899675  0.01424355  1
  O  O309  1  0.50985706  0.63156805  0.50803759  1
  O  O310  1  0.49249259  0.38255888  0.48197384  1
  O  O311  1  0.48615385  0.36686680  0.98477457  1
  O  O312  1  0.50272895  0.89121260  0.50053788  1
  O  O313  1  0.50955518  0.88765824  0.98883287  1
  O  O314  1  0.99409610  0.38155049  0.49564050  1
  O  O315  1  0.98793932  0.38097961  1.00521408  1
  O  O316  1  1.01216642  0.88468775  0.50144925  1
  O  O317  1  0.99753855  0.87858781  0.99744825  1
  O  O318  1  0.50714987  0.49669786  0.36472497  1
  O  O319  1  0.48600826  0.49469137  0.87280677  1
  O  O320  1  0.49153040  1.01526837  0.38249198  1
  O  O321  1  0.51081628  0.98966578  0.88479078  1
  O  O322  1  0.99968182  0.48356118  0.36768670  1
  O  O323  1  0.99168410  0.49736891  0.88820585  1
  O  O324  1  0.98653378  1.00447538  0.38333837  1
  O  O325  1  1.00455076  0.99145764  0.88757886  1
  O  O326  1  0.00615383  0.00872631  0.12328478  1
  O  O327  1  0.00721689  0.00454782  0.61770720  1
  O  O328  1  0.00508285  0.50310141  0.11984091  1
  O  O329  1  0.00213403  0.49480023  0.62749734  1
  O  O330  1  0.51426557  -0.01142950  0.10995957  1
  O  O331  1  0.51239548  0.00649750  0.61651585  1
  O  O332  1  0.50253761  0.50705953  0.12248213  1
  O  O333  1  0.51090616  0.51621612  0.63238712  1
  O  O334  1  0.24222118  0.37690828  0.24109156  1
  O  O335  1  0.23806553  0.38695901  0.75799054  1
  O  O336  1  0.24852734  0.89526259  0.23540374  1
  O  O337  1  0.24443235  0.88459255  0.76111909  1
  O  O338  1  0.74912781  0.39345763  0.26198127  1
  O  O339  1  0.73726584  0.38765372  0.75258988  1
  O  O340  1  0.74452139  0.88145012  0.24533655  1
  O  O341  1  0.74288322  0.88277152  0.74041753  1
  O  O342  1  0.24490339  0.11914845  0.26135484  1
  O  O343  1  0.26121802  0.11715278  0.75139887  1
  O  O344  1  0.23555481  0.60204365  0.23504159  1
  O  O345  1  0.25493336  0.61485843  0.75734250  1
  O  O346  1  0.74719918  0.11932400  0.26744395  1
  O  O347  1  0.74636551  0.10949380  0.75267718  1
  O  O348  1  0.75520563  0.62254943  0.25589708  1
  O  O349  1  0.75485238  0.60940577  0.74824611  1
  O  O350  1  0.36091454  0.11717237  0.38458588  1
  O  O351  1  0.38608638  0.12158741  0.86236878  1
  O  O352  1  0.37871125  0.64953816  0.35118480  1
  O  O353  1  0.36801468  0.62071707  0.87271362  1
  O  O354  1  0.86077497  0.13856814  0.38424209  1
  O  O355  1  0.85234488  0.10649343  0.92717655  1
  O  O356  1  0.85943294  0.62728535  0.37038781  1
  O  O357  1  0.87472777  0.60788236  0.86490531  1
  O  O358  1  0.13019098  0.37979203  0.12910434  1
  O  O359  1  0.12256187  0.37212417  0.64888378  1
  O  O360  1  0.13011835  0.88846089  0.13239145  1
  O  O361  1  0.12313090  0.88344971  0.63611365  1
  O  O362  1  0.62423771  0.38226643  0.11943091  1
  O  O363  1  0.61947561  0.38380311  0.62681920  1
  O  O364  1  0.63102268  0.88104070  0.13418373  1
  O  O365  1  0.62994128  0.88080330  0.63152094  1
  O  O366  1  0.11553444  0.25964289  0.24015884  1
  O  O367  1  0.12368793  0.25329321  0.75821627  1
  O  O368  1  0.11436537  0.74811316  0.25555008  1
  O  O369  1  0.11733207  0.75031057  0.74476543  1
  O  O370  1  0.61320971  0.25340589  0.25587172  1
  O  O371  1  0.63167395  0.26468984  0.74072658  1
  O  O372  1  0.62940309  0.76296014  0.25635832  1
  O  O373  1  0.62763496  0.76034988  0.75843194  1
  O  O374  1  0.38616121  0.25389138  0.24392618  1
  O  O375  1  0.37076490  0.23226239  0.75018781  1
  O  O376  1  0.40045182  0.80513512  0.20657829  1
  O  O377  1  0.37415634  0.73737686  0.75914012  1
  O  O378  1  0.88514666  0.25348913  0.25010206  1
  O  O379  1  0.86935738  0.25524654  0.73305198  1
  O  O380  1  0.88596916  0.73452035  0.25323589  1
  O  O381  1  0.87682043  0.73893121  0.75127897  1
  O  O382  1  0.36442574  0.49287207  0.48598153  1
  O  O383  1  0.36312104  0.48565719  0.99297369  1
  O  O384  1  0.38365811  0.99414451  0.49191185  1
  O  O385  1  0.39624673  1.01421181  0.99954077  1
  O  O386  1  0.88684931  0.48149638  0.51307493  1
  O  O387  1  0.88010187  0.49189690  0.99729344  1
  O  O388  1  0.88726835  1.00113257  0.48989238  1
  O  O389  1  0.89018699  0.98110443  1.01032489  1
  O  O390  1  0.11467408  0.01167614  0.00987561  1
  O  O391  1  0.12011974  0.00961546  0.50951101  1
  O  O392  1  0.11523785  0.49953510  0.00700904  1
  O  O393  1  0.11008990  0.48296286  0.50546990  1
  O  O394  1  0.62333464  0.01221606  0.00709374  1
  O  O395  1  0.62018148  0.00892952  0.50275297  1
  O  O396  1  0.64042390  0.50586138  -0.01636669  1
  O  O397  1  0.62739169  0.51221371  0.50804545  1
  O  O398  1  0.36675341  0.36824376  0.11667654  1
  O  O399  1  0.38598342  0.38772830  0.60445189  1
  O  O400  1  0.35127053  0.90367936  0.10245932  1
  O  O401  1  0.38141713  0.88361621  0.61322914  1
  O  O402  1  0.87552970  0.38302936  0.12182752  1
  O  O403  1  0.86683711  0.36311340  0.61754262  1
  O  O404  1  0.87727548  0.86846523  0.11422896  1
  O  O405  1  0.86616909  0.85898454  0.62588282  1
  O  O406  1  0.13659512  0.11871158  0.38782906  1
  O  O407  1  0.11444892  0.12313031  0.89347530  1
  O  O408  1  0.12392120  0.61783705  0.40320683  1
  O  O409  1  0.13101594  0.62248613  0.88528556  1
  O  O410  1  0.63013499  0.13221255  0.38079489  1
  O  O411  1  0.62920838  0.12519705  0.87908430  1
  O  O412  1  0.62596643  0.63845562  0.37847938  1
  O  O413  1  0.62556093  0.62977938  0.87171152  1
