# generated using pymatgen
data_V79Zn79O256
_symmetry_space_group_name_H-M   'P 1'
_cell_length_a   16.95250559
_cell_length_b   16.96930703
_cell_length_c   16.93132181
_cell_angle_alpha   89.93071259
_cell_angle_beta   90.02760540
_cell_angle_gamma   90.07598754
_symmetry_Int_Tables_number   1
_chemical_formula_structural   V79Zn79O256
_chemical_formula_sum   'V79 Zn79 O256'
_cell_volume   4870.66341153
_cell_formula_units_Z   1
loop_
 _symmetry_equiv_pos_site_id
 _symmetry_equiv_pos_as_xyz
  1  'x, y, z'
loop_
 _atom_site_type_symbol
 _atom_site_label
 _atom_site_symmetry_multiplicity
 _atom_site_fract_x
 _atom_site_fract_y
 _atom_site_fract_z
 _atom_site_occupancy
  V  V0  1  0.87610585  0.38561164  -0.00554471  1
  V  V1  1  0.74866932  0.24652178  0.00084391  1
  V  V2  1  -0.00620453  0.37305263  0.86996847  1
  V  V3  1  0.75231232  0.14753539  0.37707510  1
  V  V4  1  0.49937613  0.62719384  0.12005078  1
  V  V5  1  0.50111825  0.75215385  0.24744542  1
  V  V6  1  0.87662090  0.62528993  0.74741899  1
  V  V7  1  -0.00475718  0.87930472  0.87875756  1
  V  V8  1  0.62784803  0.62924520  -0.00322453  1
  V  V9  1  0.49944732  0.25476674  0.75624974  1
  V  V10  1  0.75664489  0.49867791  0.75096133  1
  V  V11  1  0.12529023  0.63340561  0.49278797  1
  V  V12  1  0.23665943  -0.01332115  0.26218907  1
  V  V13  1  0.24126771  0.49742758  0.23773803  1
  V  V14  1  0.75508301  0.62310372  0.87316905  1
  V  V15  1  0.11992178  0.36151019  0.75544505  1
  V  V16  1  0.00115552  0.11890142  0.65112601  1
  V  V17  1  0.60069427  0.25284957  0.37281060  1
  V  V18  1  0.26052422  0.62315901  0.37716313  1
  V  V19  1  0.24404923  0.24773902  0.50724999  1
  V  V20  1  0.62221362  0.75389123  0.37158343  1
  V  V21  1  0.60753782  0.37244687  0.25317572  1
  V  V22  1  0.11327728  0.11582191  0.49942423  1
  V  V23  1  0.37442172  0.75688840  0.11940584  1
  V  V24  1  0.24795632  0.37879856  0.62769635  1
  V  V25  1  0.24613086  0.13078480  0.37672028  1
  V  V26  1  0.50128163  0.75494133  0.75044016  1
  V  V27  1  0.62744489  0.62253027  0.49727859  1
  V  V28  1  0.12737954  0.62336778  0.00712874  1
  V  V29  1  0.63524553  0.13712058  0.50224655  1
  V  V30  1  0.12876500  0.74465532  0.86725412  1
  V  V31  1  0.74767277  0.49807729  0.25175334  1
  V  V32  1  0.74974084  0.37582588  0.12622279  1
  V  V33  1  0.88517179  0.25503045  0.12912867  1
  V  V34  1  0.48847881  0.88276210  0.88153903  1
  V  V35  1  0.00629557  0.12817485  0.10994452  1
  V  V36  1  0.62793442  0.75444436  0.87383950  1
  V  V37  1  0.89232665  0.23967091  0.63219661  1
  V  V38  1  0.88449701  0.13194911  0.25172936  1
  V  V39  1  0.62620226  0.00751276  0.62735156  1
  V  V40  1  0.00483884  0.75448538  0.74487802  1
  V  V41  1  -0.00096488  0.51181296  -0.00079619  1
  V  V42  1  0.87587995  0.00200144  0.37554156  1
  V  V43  1  0.50003465  0.12776424  0.62643749  1
  V  V44  1  0.74953578  0.75230907  0.49942444  1
  V  V45  1  0.75554483  0.36303586  0.61799500  1
  V  V46  1  0.11609988  -0.00280734  0.11543320  1
  V  V47  1  0.88457565  0.74799400  0.12218609  1
  V  V48  1  0.76626886  0.12451708  0.87383815  1
  V  V49  1  0.62731478  0.88089857  0.75266239  1
  V  V50  1  0.37130203  0.12646295  0.22374496  1
  V  V51  1  0.37120258  0.75357515  0.60893922  1
  V  V52  1  0.62647931  0.24482943  0.87731477  1
  V  V53  1  0.12582018  -0.00791579  0.64110694  1
  V  V54  1  0.62250728  0.49898990  0.12414798  1
  V  V55  1  0.49060790  0.00599527  0.00619381  1
  V  V56  1  0.87673500  0.49410873  0.37608343  1
  V  V57  1  0.61898169  0.02046188  0.11992800  1
  V  V58  1  0.37401314  0.49295840  0.86886275  1
  V  V59  1  0.50225899  0.62753016  0.62520978  1
  V  V60  1  0.37309390  0.25530883  0.62164182  1
  V  V61  1  0.24167467  0.86759168  0.12670856  1
  V  V62  1  0.76562807  0.00638803  0.75594750  1
  V  V63  1  -0.00069659  0.86942500  0.36060855  1
  V  V64  1  0.35980765  0.11794763  0.75979252  1
  V  V65  1  0.75018991  0.87982541  0.62532153  1
  V  V66  1  0.49941727  0.49171133  -0.01288053  1
  V  V67  1  0.74659886  0.00539292  0.25383205  1
  V  V68  1  0.49001262  0.49045680  0.49642176  1
  V  V69  1  0.26010067  0.88515040  0.62293345  1
  V  V70  1  0.00034798  0.49304727  0.49565789  1
  V  V71  1  0.62406709  0.37567220  0.75471713  1
  V  V72  1  0.62596281  0.87620183  0.24418380  1
  V  V73  1  0.12215876  0.50316895  0.62808985  1
  V  V74  1  0.36840455  0.63172748  0.75686212  1
  V  V75  1  0.62783836  0.49896579  0.62266092  1
  V  V76  1  0.87824270  0.88040896  0.49654475  1
  V  V77  1  0.88955668  0.62727985  0.24700243  1
  V  V78  1  0.25225519  0.74664083  -0.00894761  1
  Zn  Zn79  1  -0.00119910  0.62733360  0.62056200  1
  Zn  Zn80  1  0.25937867  0.37825833  0.11524122  1
  Zn  Zn81  1  0.39237083  0.46663073  0.35556347  1
  Zn  Zn82  1  0.75217015  0.62505573  0.37250772  1
  Zn  Zn83  1  0.48847637  -0.02013880  0.49968678  1
  Zn  Zn84  1  0.75513024  0.75846123  -0.00016556  1
  Zn  Zn85  1  0.87027563  0.35500805  0.48651242  1
  Zn  Zn86  1  0.87583987  0.75220398  0.62129019  1
  Zn  Zn87  1  0.11142019  0.29731653  0.31949481  1
  Zn  Zn88  1  0.75253624  0.87490434  0.11876315  1
  Zn  Zn89  1  0.37695819  0.62003844  0.24778357  1
  Zn  Zn90  1  0.23466651  0.51006647  0.76380885  1
  Zn  Zn91  1  0.87013921  -0.09826556  0.98508355  1
  Zn  Zn92  1  0.37273343  -0.02031329  0.39422051  1
  Zn  Zn93  1  0.12871650  0.75857131  0.36340230  1
  Zn  Zn94  1  0.19333059  0.17692779  0.18360636  1
  Zn  Zn95  1  0.18282782  0.18563166  0.68882405  1
  Zn  Zn96  1  0.18760825  0.67808973  0.18996224  1
  Zn  Zn97  1  0.18992999  0.69256982  0.67980693  1
  Zn  Zn98  1  0.68982030  0.19494286  0.19398360  1
  Zn  Zn99  1  0.69154452  0.18793648  0.69527424  1
  Zn  Zn100  1  0.69373984  0.68639292  0.18410656  1
  Zn  Zn101  1  0.68783188  0.68993665  0.68668851  1
  Zn  Zn102  1  0.32210135  0.31130577  0.30186622  1
  Zn  Zn103  1  0.31611259  0.31831037  0.80377346  1
  Zn  Zn104  1  0.31247880  0.80424788  0.32133492  1
  Zn  Zn105  1  0.30682247  0.82086014  0.80467477  1
  Zn  Zn106  1  0.94341663  0.31674707  0.30677364  1
  Zn  Zn107  1  0.81403881  0.30957293  0.80981653  1
  Zn  Zn108  1  0.81112637  0.81377573  0.30724341  1
  Zn  Zn109  1  0.81347484  0.81186057  0.80984858  1
  Zn  Zn110  1  0.23328875  0.41260496  0.41226745  1
  Zn  Zn111  1  0.15094437  0.40438144  0.97031422  1
  Zn  Zn112  1  0.18020143  0.93295792  0.45058657  1
  Zn  Zn113  1  0.10899034  0.86423662  1.00366985  1
  Zn  Zn114  1  0.68635314  0.43032439  0.43273594  1
  Zn  Zn115  1  0.68819041  0.43814756  0.93682176  1
  Zn  Zn116  1  0.65494972  0.92435036  0.45334005  1
  Zn  Zn117  1  0.68679271  0.94304141  0.93901315  1
  Zn  Zn118  1  0.30400543  0.04173552  0.05652572  1
  Zn  Zn119  1  0.31356884  0.06518340  0.56614594  1
  Zn  Zn120  1  0.31571797  0.56386153  0.05314956  1
  Zn  Zn121  1  0.30973713  0.56505086  0.56594614  1
  Zn  Zn122  1  0.80925781  0.06728545  0.06418500  1
  Zn  Zn123  1  0.81382546  0.06590527  0.56261701  1
  Zn  Zn124  1  0.81290504  0.56541753  0.06520682  1
  Zn  Zn125  1  0.81324085  0.56064962  0.56407334  1
  Zn  Zn126  1  0.42410492  0.43575086  0.17297287  1
  Zn  Zn127  1  0.43876484  0.44147128  0.68604610  1
  Zn  Zn128  1  0.41329571  0.92180185  0.22879201  1
  Zn  Zn129  1  0.43742682  0.94103701  0.69145739  1
  Zn  Zn130  1  0.93972882  0.44851125  0.18209387  1
  Zn  Zn131  1  0.93817697  0.43624791  0.68253261  1
  Zn  Zn132  1  0.91859818  0.95219089  0.16158106  1
  Zn  Zn133  1  0.93953779  0.93503929  0.68539764  1
  Zn  Zn134  1  0.06030275  0.05727307  0.31303082  1
  Zn  Zn135  1  0.07361673  0.05559243  0.82315902  1
  Zn  Zn136  1  0.06779521  0.55289569  0.31292541  1
  Zn  Zn137  1  0.05502599  0.56314943  0.82055354  1
  Zn  Zn138  1  0.55327074  0.06285242  0.30681216  1
  Zn  Zn139  1  0.56343757  0.06569395  0.81627135  1
  Zn  Zn140  1  0.56204358  0.56274134  0.31314201  1
  Zn  Zn141  1  0.56552227  0.56628306  0.80753591  1
  Zn  Zn142  1  0.44994321  0.14366888  0.42139045  1
  Zn  Zn143  1  0.43942395  0.18386002  0.93551056  1
  Zn  Zn144  1  0.44384312  0.68560355  0.43627366  1
  Zn  Zn145  1  0.43961911  0.69250235  0.93638620  1
  Zn  Zn146  1  0.93881831  0.18733253  0.44220318  1
  Zn  Zn147  1  0.94075092  0.19558811  0.93837356  1
  Zn  Zn148  1  0.93778476  0.68565847  0.43201218  1
  Zn  Zn149  1  0.93881204  0.69418962  0.93511960  1
  Zn  Zn150  1  0.08218494  0.34007870  0.15548161  1
  Zn  Zn151  1  0.06692348  0.31517219  0.47217726  1
  Zn  Zn152  1  0.05670074  0.80819670  0.19291286  1
  Zn  Zn153  1  0.06330854  0.81578286  0.55815596  1
  Zn  Zn154  1  0.56335949  0.31532931  0.06018561  1
  Zn  Zn155  1  0.56341297  0.31205679  0.56464187  1
  Zn  Zn156  1  0.56563358  0.81820953  0.06201085  1
  Zn  Zn157  1  0.55939194  0.81422261  0.56509458  1
  O  O158  1  0.11386912  0.11394057  0.12418130  1
  O  O159  1  0.11408109  0.11587704  0.62516406  1
  O  O160  1  0.12266119  0.62927565  0.10526913  1
  O  O161  1  0.12876945  0.61990287  0.61000729  1
  O  O162  1  0.62257663  0.11922227  0.13467619  1
  O  O163  1  0.62253404  0.12702694  0.62306193  1
  O  O164  1  0.61848134  0.62072211  0.11459640  1
  O  O165  1  0.62330338  0.62116781  0.61653707  1
  O  O166  1  0.34066717  0.37457291  0.38988648  1
  O  O167  1  0.38794283  0.39564215  0.85263387  1
  O  O168  1  0.38436349  0.88503923  0.33615659  1
  O  O169  1  0.39008277  0.87411729  0.86669053  1
  O  O170  1  0.87682935  0.38977539  0.37419637  1
  O  O171  1  0.88076313  0.37317783  0.88070519  1
  O  O172  1  0.87799024  0.88240464  0.37711995  1
  O  O173  1  0.88780658  0.86603988  0.87505109  1
  O  O174  1  0.24095009  -0.00515385  0.36863542  1
  O  O175  1  0.20584056  0.06591234  0.91477797  1
  O  O176  1  0.25346438  0.51502269  0.35991531  1
  O  O177  1  0.27358896  0.50201881  0.87275726  1
  O  O178  1  0.75588148  0.00956984  0.36204072  1
  O  O179  1  0.74482335  0.01356372  0.86838503  1
  O  O180  1  0.75741897  0.49996460  0.36892137  1
  O  O181  1  0.74238549  0.51064762  0.86157922  1
  O  O182  1  0.25778743  0.51233469  0.13552553  1
  O  O183  1  0.24109012  0.49423667  0.62870994  1
  O  O184  1  0.23152526  0.98763101  0.13052758  1
  O  O185  1  0.24247739  0.99102368  0.62807954  1
  O  O186  1  0.74173636  0.49609786  0.12960609  1
  O  O187  1  0.74680350  0.49192954  0.63325158  1
  O  O188  1  0.73495450  1.00785316  0.14048680  1
  O  O189  1  0.74489180  1.00108916  0.63530578  1
  O  O190  1  0.00772702  0.37590487  0.23339307  1
  O  O191  1  0.00750613  0.38261608  0.75900267  1
  O  O192  1  -0.00674415  0.88085829  0.25930151  1
  O  O193  1  -0.00547536  0.85794209  0.75325150  1
  O  O194  1  0.50945174  0.38433454  0.23963394  1
  O  O195  1  0.51398857  0.36707595  0.73923954  1
  O  O196  1  0.51245236  0.85953193  0.23735480  1
  O  O197  1  0.50738692  0.87551125  0.76032396  1
  O  O198  1  0.46998350  0.11484475  0.24066818  1
  O  O199  1  0.50214439  0.13820716  0.74215263  1
  O  O200  1  0.50695649  0.63372897  0.23456602  1
  O  O201  1  0.49710592  0.63546570  0.74295392  1
  O  O202  1  0.98709394  0.12557113  0.25247963  1
  O  O203  1  1.00833289  0.12182370  0.74948892  1
  O  O204  1  0.98756981  0.61634565  0.25409247  1
  O  O205  1  0.98851321  0.63252255  0.74827950  1
  O  O206  1  0.41638482  0.24871334  0.03354176  1
  O  O207  1  0.35840058  0.24026463  0.51818167  1
  O  O208  1  0.36587521  0.74550919  0.00758315  1
  O  O209  1  0.38896088  0.75233974  0.51090427  1
  O  O210  1  0.86766015  0.26315974  0.00856746  1
  O  O211  1  0.87961260  0.24735373  0.52148682  1
  O  O212  1  0.87281619  0.73960665  0.01529362  1
  O  O213  1  0.86199376  0.75705566  0.49651949  1
  O  O214  1  0.13550336  0.22981948  0.51475809  1
  O  O215  1  0.17167663  0.22484853  1.01812948  1
  O  O216  1  0.11891771  0.73559687  0.49516939  1
  O  O217  1  0.13343893  0.73792910  0.98901102  1
  O  O218  1  0.62117547  0.24441374  0.49067873  1
  O  O219  1  0.63905321  0.26255941  0.99032590  1
  O  O220  1  0.63132342  0.74149671  0.49212113  1
  O  O221  1  0.62727328  0.74089864  0.99447340  1
  O  O222  1  0.47212105  0.24378937  0.08655333  1
  O  O223  1  0.49274579  0.24781445  0.63439114  1
  O  O224  1  0.49572731  0.74549406  0.12537136  1
  O  O225  1  0.49393365  0.74920161  0.63108627  1
  O  O226  1  0.99318047  0.23858249  0.12072722  1
  O  O227  1  0.99529278  0.23255727  0.63436662  1
  O  O228  1  0.98395430  0.74785107  0.12788810  1
  O  O229  1  0.99961961  0.74910681  0.63381526  1
  O  O230  1  0.00687766  0.25924337  0.38342628  1
  O  O231  1  0.00112991  0.27314695  0.88268892  1
  O  O232  1  -0.00566187  0.76691580  0.37303985  1
  O  O233  1  0.00454838  0.74942480  0.85770298  1
  O  O234  1  0.50239897  0.23830932  0.37628449  1
  O  O235  1  0.51038486  0.24816897  0.86470739  1
  O  O236  1  0.51262124  0.73970471  0.36021686  1
  O  O237  1  0.50737697  0.76336052  0.87101398  1
  O  O238  1  0.23954157  0.12801232  0.49680241  1
  O  O239  1  0.25473865  0.10168248  0.96485463  1
  O  O240  1  0.23730782  0.61416311  0.48797794  1
  O  O241  1  0.23904171  0.63387198  0.99862194  1
  O  O242  1  0.74284088  0.12665395  0.49264729  1
  O  O243  1  0.75499844  0.14011592  0.99475070  1
  O  O244  1  0.74201809  0.63311440  0.50109465  1
  O  O245  1  0.73991850  0.61867707  0.98935594  1
  O  O246  1  0.26351346  0.34952381  -0.04584649  1
  O  O247  1  0.23809445  0.36236707  0.52284910  1
  O  O248  1  0.23491224  0.85731545  0.01912574  1
  O  O249  1  0.23843075  0.86811021  0.52337337  1
  O  O250  1  0.75740214  0.37218315  0.00430420  1
  O  O251  1  0.75375390  0.38216987  0.51493336  1
  O  O252  1  0.75639474  0.87562010  -0.00022384  1
  O  O253  1  0.75086957  0.86816367  0.50292204  1
  O  O254  1  0.14043142  0.50451162  0.24388038  1
  O  O255  1  0.12098145  0.51086198  0.73897830  1
  O  O256  1  0.13393275  1.00115718  0.24451245  1
  O  O257  1  0.13250632  1.00135549  0.73985069  1
  O  O258  1  0.62798826  0.49439656  0.24542435  1
  O  O259  1  0.63276327  0.49405562  0.74339443  1
  O  O260  1  0.62530360  0.99546585  0.24479051  1
  O  O261  1  0.63263053  1.00104120  0.74234566  1
  O  O262  1  0.34355536  0.01407164  0.24179557  1
  O  O263  1  0.37885119  0.01909099  0.74705287  1
  O  O264  1  0.37452109  0.50542759  0.24950061  1
  O  O265  1  0.38462182  0.51987176  0.75446515  1
  O  O266  1  0.86462268  0.01255320  0.25355478  1
  O  O267  1  0.86386597  -0.00457575  0.74713183  1
  O  O268  1  0.86770927  0.50817867  0.25460258  1
  O  O269  1  0.86451556  0.50880072  0.74237788  1
  O  O270  1  0.13030136  0.37327221  0.39651587  1
  O  O271  1  0.11285862  0.38244398  0.86280060  1
  O  O272  1  0.10198548  0.87768873  0.38539160  1
  O  O273  1  0.10765912  0.85212204  0.87965815  1
  O  O274  1  0.62176723  0.36450169  0.36698622  1
  O  O275  1  0.63629362  0.36571712  0.86116260  1
  O  O276  1  0.63301468  0.86283859  0.35583792  1
  O  O277  1  0.62169463  0.87161272  0.86917137  1
  O  O278  1  0.34806611  0.12188299  0.12503186  1
  O  O279  1  0.38301809  0.13556379  0.63646387  1
  O  O280  1  0.38920686  0.63483059  0.11844420  1
  O  O281  1  0.38194876  0.63748323  0.63077263  1
  O  O282  1  0.88595874  0.13596049  0.13297135  1
  O  O283  1  0.89092091  0.12721465  0.62547587  1
  O  O284  1  0.87170550  0.62964048  0.13969684  1
  O  O285  1  0.87404366  0.63043364  0.63430295  1
  O  O286  1  0.22884930  0.22420870  0.06452100  1
  O  O287  1  0.25415763  0.25655438  0.62663583  1
  O  O288  1  0.25793037  0.74934977  0.12017141  1
  O  O289  1  0.26921939  0.74749974  0.61574888  1
  O  O290  1  0.75849032  0.25577884  0.11808516  1
  O  O291  1  0.74931537  0.26165635  0.62574015  1
  O  O292  1  0.75846117  0.74975396  0.11950043  1
  O  O293  1  0.74641560  0.75974910  0.61412296  1
  O  O294  1  0.24181530  0.23324449  0.38671889  1
  O  O295  1  0.26876836  0.28683420  0.90996400  1
  O  O296  1  0.24492828  0.73022857  0.37041710  1
  O  O297  1  0.24490939  0.76062629  0.88254150  1
  O  O298  1  0.75365395  0.24423740  0.37630225  1
  O  O299  1  0.74722221  0.24454708  0.88139999  1
  O  O300  1  0.74064030  0.74854698  0.38267181  1
  O  O301  1  0.74479618  0.73957874  0.87477036  1
  O  O302  1  -0.00235753  0.12547424  0.01144266  1
  O  O303  1  0.01241259  0.12295851  0.50744285  1
  O  O304  1  0.00813225  0.61817892  -0.01122690  1
  O  O305  1  0.00933258  0.61994970  0.49888084  1
  O  O306  1  0.49903579  0.10449581  -0.00836787  1
  O  O307  1  0.51285690  0.13155815  0.52077658  1
  O  O308  1  0.51211053  0.62508954  0.00269103  1
  O  O309  1  0.51292476  0.61982923  0.50538331  1
  O  O310  1  0.50402899  0.39204597  0.50834580  1
  O  O311  1  0.50750855  0.39378733  0.99492164  1
  O  O312  1  0.54814411  0.88757816  0.48542031  1
  O  O313  1  0.50456156  0.87920121  0.98633103  1
  O  O314  1  0.98960509  0.39175761  0.51041768  1
  O  O315  1  0.99034355  0.38989604  0.98640949  1
  O  O316  1  0.98100678  0.87131760  0.49427275  1
  O  O317  1  0.99360519  0.86729615  0.98231440  1
  O  O318  1  0.49690027  0.50661531  0.39032400  1
  O  O319  1  0.50028277  0.50928197  0.88286866  1
  O  O320  1  0.48631348  1.03436828  0.39221102  1
  O  O321  1  0.50950442  0.98857202  0.88599847  1
  O  O322  1  0.99411877  0.50258623  0.38837226  1
  O  O323  1  0.99504045  0.49036069  0.88450751  1
  O  O324  1  0.98170689  0.99157939  0.37049816  1
  O  O325  1  1.00544849  0.97758556  0.86460545  1
  O  O326  1  0.01157250  0.01643760  0.13924261  1
  O  O327  1  0.01073787  0.00991778  0.63433744  1
  O  O328  1  -0.00058482  0.49996392  0.09913251  1
  O  O329  1  0.00373706  0.50653464  0.61665567  1
  O  O330  1  0.51411582  -0.00452569  0.11542592  1
  O  O331  1  0.51245003  0.01158500  0.63036898  1
  O  O332  1  0.50314019  0.51097756  0.10771286  1
  O  O333  1  0.50852434  0.50741007  0.61683846  1
  O  O334  1  0.25576807  0.39398820  0.24206696  1
  O  O335  1  0.23364836  0.38109597  0.74878741  1
  O  O336  1  0.24269132  0.88172349  0.24288582  1
  O  O337  1  0.24005609  0.85543153  0.72065373  1
  O  O338  1  0.73902995  0.39083279  0.24152836  1
  O  O339  1  0.74566591  0.38218429  0.74097848  1
  O  O340  1  0.74323542  0.88899078  0.24764631  1
  O  O341  1  0.74588451  0.88473940  0.74638676  1
  O  O342  1  0.23986044  0.11239877  0.26771130  1
  O  O343  1  0.26054868  0.12931973  0.74773395  1
  O  O344  1  0.25589167  0.61676149  0.25949475  1
  O  O345  1  0.26601088  0.62712311  0.74351695  1
  O  O346  1  0.75980785  0.12513379  0.25859107  1
  O  O347  1  0.75123455  0.11834347  0.76047364  1
  O  O348  1  0.74900151  0.60851574  0.25081559  1
  O  O349  1  0.75458880  0.61901704  0.75337852  1
  O  O350  1  0.34728321  0.11475549  0.37762064  1
  O  O351  1  0.37505894  0.13577558  0.85873410  1
  O  O352  1  0.36452346  0.62711863  0.37822485  1
  O  O353  1  0.38179164  0.62744153  0.85936657  1
  O  O354  1  0.86988156  0.12107653  0.37173154  1
  O  O355  1  0.86562014  0.13228650  0.87991110  1
  O  O356  1  0.87188539  0.61529717  0.36355159  1
  O  O357  1  0.86256289  0.63199201  0.86319474  1
  O  O358  1  0.15521804  0.37236442  0.07736867  1
  O  O359  1  0.12905344  0.38842396  0.64473777  1
  O  O360  1  0.12159911  0.88176277  0.12689869  1
  O  O361  1  0.12168137  0.89067262  0.62251523  1
  O  O362  1  0.62891425  0.37855594  0.13160398  1
  O  O363  1  0.63840381  0.37743954  0.63309584  1
  O  O364  1  0.63126549  0.88067952  0.13460940  1
  O  O365  1  0.63137536  0.88839871  0.63341825  1
  O  O366  1  0.14306304  0.26651189  0.22077005  1
  O  O367  1  0.12339472  0.26351655  0.75060867  1
  O  O368  1  0.12302247  0.74324720  0.25181214  1
  O  O369  1  0.11124746  0.74005948  0.74912187  1
  O  O370  1  0.62472692  0.26086836  0.26037304  1
  O  O371  1  0.61962076  0.25783299  0.75666072  1
  O  O372  1  0.62228143  0.75416821  0.25234414  1
  O  O373  1  0.62150522  0.75917301  0.75317093  1
  O  O374  1  0.34827428  0.22448519  0.24240680  1
  O  O375  1  0.38265275  0.24458710  0.74343592  1
  O  O376  1  0.38718139  0.74124907  0.23794230  1
  O  O377  1  0.38154594  0.74208672  0.74302994  1
  O  O378  1  0.87448522  0.24620651  0.23810878  1
  O  O379  1  0.86862865  0.25053325  0.73060687  1
  O  O380  1  0.86814831  0.73131261  0.24780827  1
  O  O381  1  0.88317638  0.74189057  0.74413938  1
  O  O382  1  0.39060230  0.50592247  0.50857891  1
  O  O383  1  0.39051641  0.51085148  0.98153107  1
  O  O384  1  0.37634724  0.99500516  0.50772702  1
  O  O385  1  0.39233093  0.98928134  1.01008250  1
  O  O386  1  0.88620673  0.50817728  0.49206601  1
  O  O387  1  0.87965240  0.49486853  1.00074256  1
  O  O388  1  0.86127642  0.99098415  0.48690525  1
  O  O389  1  0.88279628  0.98717329  1.05378073  1
  O  O390  1  0.11688906  -0.00854983  0.01764869  1
  O  O391  1  0.12924400  0.01369171  0.51850204  1
  O  O392  1  0.11450654  0.51632480  -0.01176178  1
  O  O393  1  0.10829405  0.50827014  0.51099013  1
  O  O394  1  0.62478270  0.00285935  0.01724273  1
  O  O395  1  0.63335923  0.02011655  0.51822455  1
  O  O396  1  0.61701351  0.50921120  0.00051359  1
  O  O397  1  0.62175930  0.50807272  0.50175010  1
  O  O398  1  0.36673606  0.37456091  0.10271927  1
  O  O399  1  0.36052086  0.36765006  0.64145771  1
  O  O400  1  0.36049117  0.86208841  0.13559036  1
  O  O401  1  0.37056627  0.86521372  0.62934750  1
  O  O402  1  0.86990982  0.37187208  0.11604515  1
  O  O403  1  0.86502594  0.36524391  0.62549813  1
  O  O404  1  0.86895045  0.85128869  0.14045144  1
  O  O405  1  0.86749100  0.87608414  0.61338749  1
  O  O406  1  0.12915431  0.11254468  0.39182085  1
  O  O407  1  0.14948308  0.11638961  0.88641364  1
  O  O408  1  0.12995356  0.62208675  0.38642930  1
  O  O409  1  0.12324047  0.63824708  0.87775556  1
  O  O410  1  0.63302835  0.13782201  0.38105913  1
  O  O411  1  0.63503919  0.14122011  0.87168598  1
  O  O412  1  0.62833053  0.63303406  0.38251728  1
  O  O413  1  0.63315261  0.63308268  0.87818436  1
