# generated using pymatgen
data_V79Zn79O256
_symmetry_space_group_name_H-M   'P 1'
_cell_length_a   16.92163513
_cell_length_b   16.95603535
_cell_length_c   16.99724236
_cell_angle_alpha   89.86041227
_cell_angle_beta   90.03836140
_cell_angle_gamma   89.82198801
_symmetry_Int_Tables_number   1
_chemical_formula_structural   V79Zn79O256
_chemical_formula_sum   'V79 Zn79 O256'
_cell_volume   4876.87497434
_cell_formula_units_Z   1
loop_
 _symmetry_equiv_pos_site_id
 _symmetry_equiv_pos_as_xyz
  1  'x, y, z'
loop_
 _atom_site_type_symbol
 _atom_site_label
 _atom_site_symmetry_multiplicity
 _atom_site_fract_x
 _atom_site_fract_y
 _atom_site_fract_z
 _atom_site_occupancy
  V  V0  1  0.25221423  0.49125461  0.26254087  1
  V  V1  1  0.00143161  0.62526241  0.11843864  1
  V  V2  1  0.62702328  0.62246156  0.49824081  1
  V  V3  1  0.00041836  0.26973918  0.25440217  1
  V  V4  1  0.73759380  0.13464578  0.87825456  1
  V  V5  1  0.50049182  0.36831053  0.87782031  1
  V  V6  1  0.12689590  0.13104585  0.00653481  1
  V  V7  1  0.49833215  0.49581459  0.48771366  1
  V  V8  1  0.74846655  0.37550009  0.12325082  1
  V  V9  1  0.11984618  0.26098472  0.37124079  1
  V  V10  1  0.37087818  0.49861582  0.87342164  1
  V  V11  1  0.11414926  0.12403734  0.50106246  1
  V  V12  1  0.74769905  0.25121690  0.49378026  1
  V  V13  1  0.87187352  0.86936322  0.50777680  1
  V  V14  1  0.51691190  0.11325543  0.62246153  1
  V  V15  1  -0.00787817  0.00328068  0.50538948  1
  V  V16  1  0.86633313  0.62948164  0.75389544  1
  V  V17  1  0.37680075  -0.00321945  0.88592795  1
  V  V18  1  0.24534212  0.12726414  0.87758287  1
  V  V19  1  0.37524422  0.25004692  0.62157921  1
  V  V20  1  -0.00609075  0.75129942  0.73466151  1
  V  V21  1  0.50683960  0.11020739  0.11351370  1
  V  V22  1  0.37323853  0.11958818  0.74517903  1
  V  V23  1  0.62866692  0.87543199  0.24315899  1
  V  V24  1  0.88533398  0.25348263  0.11347877  1
  V  V25  1  0.24524170  -0.00863756  0.74270750  1
  V  V26  1  0.10446098  0.75254967  0.88812826  1
  V  V27  1  0.12481350  0.50410128  0.12249617  1
  V  V28  1  0.62126742  0.37217974  0.75213307  1
  V  V29  1  0.73957755  0.74863327  -0.00472407  1
  V  V30  1  0.24684035  0.25053205  0.49846820  1
  V  V31  1  0.50394494  0.25010861  0.75094762  1
  V  V32  1  0.50250780  0.88352051  0.88281666  1
  V  V33  1  0.88806484  0.49984856  0.89292675  1
  V  V34  1  0.03842786  0.35371271  0.88189734  1
  V  V35  1  0.74810839  0.49488062  0.25159092  1
  V  V36  1  0.12394082  0.86646177  0.74403768  1
  V  V37  1  0.72563497  0.25013206  0.00288603  1
  V  V38  1  0.24463851  0.64375972  0.37790861  1
  V  V39  1  -0.00180494  0.50204872  0.47735971  1
  V  V40  1  0.87582443  0.62067478  0.25460394  1
  V  V41  1  0.77047192  0.37289877  0.63104647  1
  V  V42  1  0.75751905  0.61914423  0.37422285  1
  V  V43  1  0.49932412  0.49859754  0.00909228  1
  V  V44  1  0.49648775  0.88726089  0.38476907  1
  V  V45  1  0.25114956  -0.00426853  0.25389805  1
  V  V46  1  0.37347264  0.11893210  0.25226249  1
  V  V47  1  0.37770235  0.37444479  0.48889937  1
  V  V48  1  0.49729201  0.62824119  0.62140465  1
  V  V49  1  -0.00484130  0.87877006  0.37276287  1
  V  V50  1  0.50665581  0.75758973  0.74658401  1
  V  V51  1  0.62852662  0.74904674  0.37737441  1
  V  V52  1  0.37597891  0.62207276  0.75006190  1
  V  V53  1  0.12655377  0.86870214  0.25487840  1
  V  V54  1  -0.00459100  0.59241273  0.63696208  1
  V  V55  1  0.62134249  0.50368288  0.12694133  1
  V  V56  1  0.00697378  -0.00186124  0.00382994  1
  V  V57  1  0.37014773  0.36664375  0.00117253  1
  V  V58  1  0.74619434  -0.00067050  0.24468148  1
  V  V59  1  0.74381036  0.86390805  0.64593059  1
  V  V60  1  0.37751948  0.62119196  0.25299622  1
  V  V61  1  0.49669509  0.74259596  0.24772903  1
  V  V62  1  0.00137453  0.74925631  0.25876585  1
  V  V63  1  0.34608041  0.87183286  0.50588268  1
  V  V64  1  0.25894802  0.86732753  0.11444886  1
  V  V65  1  0.36692685  0.24496902  0.12485746  1
  V  V66  1  0.62364575  0.49782469  0.62578266  1
  V  V67  1  0.50835501  0.25128183  0.25404033  1
  V  V68  1  0.88060357  0.01481990  0.86750566  1
  V  V69  1  0.88583264  0.12150063  0.24473064  1
  V  V70  1  0.87903717  0.87885747  0.00026067  1
  V  V71  1  0.23999909  0.38877473  0.63406379  1
  V  V72  1  0.86811973  0.75548752  0.12713227  1
  V  V73  1  0.74667062  0.50839025  0.76579884  1
  V  V74  1  0.25077047  0.11988012  0.37572018  1
  V  V75  1  0.88352807  0.37693093  0.47727035  1
  V  V76  1  0.24322080  0.37429391  0.12720692  1
  V  V77  1  0.27534109  0.65577485  0.89185320  1
  V  V78  1  0.68943231  0.93006365  0.06870729  1
  Zn  Zn79  1  0.87131414  0.00609834  0.37551564  1
  Zn  Zn80  1  0.11956998  -0.00699999  0.62277950  1
  Zn  Zn81  1  0.73885283  0.14185698  0.36108586  1
  Zn  Zn82  1  0.60874409  0.10015554  0.47617458  1
  Zn  Zn83  1  0.63659792  0.61696914  -0.01294333  1
  Zn  Zn84  1  0.13756955  0.62128223  0.51242490  1
  Zn  Zn85  1  0.20344000  0.28949130  -0.05002547  1
  Zn  Zn86  1  0.60156119  0.91334259  0.72578804  1
  Zn  Zn87  1  0.71531762  0.06388181  0.69656846  1
  Zn  Zn88  1  0.15457087  0.64424483  0.01628916  1
  Zn  Zn89  1  0.12444236  -0.00159820  0.12864372  1
  Zn  Zn90  1  0.53332568  0.35205852  0.38038909  1
  Zn  Zn91  1  0.34137395  0.74354368  0.61948225  1
  Zn  Zn92  1  0.77240507  0.73590787  0.50571797  1
  Zn  Zn93  1  0.36048910  0.72985937  0.08579095  1
  Zn  Zn94  1  0.18237025  0.18669200  0.18896950  1
  Zn  Zn95  1  0.19952789  0.17213806  0.67286490  1
  Zn  Zn96  1  0.19272945  0.68738292  0.19532059  1
  Zn  Zn97  1  0.17421492  0.64927665  0.70790166  1
  Zn  Zn98  1  0.68673830  0.18229545  0.17879830  1
  Zn  Zn99  1  0.83591781  0.18904094  0.69545609  1
  Zn  Zn100  1  0.68282682  0.68373249  0.18497385  1
  Zn  Zn101  1  0.68681856  0.69113342  0.68243859  1
  Zn  Zn102  1  0.31119483  0.30542838  0.31064675  1
  Zn  Zn103  1  0.31556242  0.31198518  0.80682566  1
  Zn  Zn104  1  0.31917932  0.81414674  0.31605780  1
  Zn  Zn105  1  0.32693814  0.81525112  0.79832231  1
  Zn  Zn106  1  0.81356488  0.31352887  0.30784993  1
  Zn  Zn107  1  0.81028905  0.31866096  0.82848581  1
  Zn  Zn108  1  0.81137681  0.81147510  0.31231504  1
  Zn  Zn109  1  0.81941067  0.81508310  0.82373754  1
  Zn  Zn110  1  0.18517180  0.43863837  0.44922902  1
  Zn  Zn111  1  0.18469542  0.46088117  0.93817603  1
  Zn  Zn112  1  0.17937719  0.93745202  0.43627779  1
  Zn  Zn113  1  0.18973858  0.93264094  0.93048511  1
  Zn  Zn114  1  0.69265589  0.43489793  0.44059056  1
  Zn  Zn115  1  0.68475005  0.42934868  0.94337961  1
  Zn  Zn116  1  0.68888543  0.93616731  0.43047379  1
  Zn  Zn117  1  0.67592562  0.96406936  0.87747920  1
  Zn  Zn118  1  0.30840966  0.05690789  0.06664729  1
  Zn  Zn119  1  0.31256278  0.05749493  0.55798834  1
  Zn  Zn120  1  0.32178571  0.55520840  0.06977412  1
  Zn  Zn121  1  0.31541879  0.56074533  0.55783392  1
  Zn  Zn122  1  0.81813441  0.07132443  0.05975592  1
  Zn  Zn123  1  0.78156958  0.04648384  0.54655466  1
  Zn  Zn124  1  0.80939336  0.56981694  0.06972289  1
  Zn  Zn125  1  0.81724246  0.55504485  0.56463570  1
  Zn  Zn126  1  0.43352177  0.43295188  0.19401279  1
  Zn  Zn127  1  0.43283213  0.43832547  0.68357016  1
  Zn  Zn128  1  0.43864708  0.93148163  0.18930731  1
  Zn  Zn129  1  0.42311064  0.93648006  0.66990588  1
  Zn  Zn130  1  0.93452799  0.44035016  0.18063510  1
  Zn  Zn131  1  0.95122484  0.33820530  0.71402601  1
  Zn  Zn132  1  0.94019933  0.93909335  0.18303205  1
  Zn  Zn133  1  0.93321184  0.93524330  0.68572716  1
  Zn  Zn134  1  0.06522227  0.06061722  0.31635496  1
  Zn  Zn135  1  0.06521760  0.06175265  0.81640032  1
  Zn  Zn136  1  0.06966391  0.56308443  0.30532975  1
  Zn  Zn137  1  0.04617233  0.50945572  0.78216237  1
  Zn  Zn138  1  0.56456016  0.06371490  0.30188077  1
  Zn  Zn139  1  0.56078210  0.07333001  0.81606861  1
  Zn  Zn140  1  0.56839623  0.55888391  0.31286597  1
  Zn  Zn141  1  0.55975661  0.56244284  0.81621090  1
  Zn  Zn142  1  0.43861342  0.18170937  0.43814712  1
  Zn  Zn143  1  0.43389587  0.18431546  0.93711420  1
  Zn  Zn144  1  0.43243629  0.69292175  0.43550828  1
  Zn  Zn145  1  0.47409718  0.68124658  0.92966430  1
  Zn  Zn146  1  0.92841744  0.19015528  0.43326908  1
  Zn  Zn147  1  0.95057194  0.18715293  0.92992257  1
  Zn  Zn148  1  0.99314359  0.72472353  0.50042946  1
  Zn  Zn149  1  0.92424106  0.68158195  0.93831442  1
  Zn  Zn150  1  0.05603752  0.31949233  0.06301437  1
  Zn  Zn151  1  0.06293087  0.31635916  0.56046491  1
  Zn  Zn152  1  0.05923043  0.81740244  0.07317390  1
  Zn  Zn153  1  0.17086353  0.78599985  0.56595995  1
  Zn  Zn154  1  0.55567035  0.31573020  0.07816146  1
  Zn  Zn155  1  0.56411277  0.30833421  0.56510914  1
  Zn  Zn156  1  0.53479134  0.79494699  0.04873206  1
  Zn  Zn157  1  0.56627099  0.81176223  0.55861083  1
  O  O158  1  0.13916711  0.11489407  0.10955591  1
  O  O159  1  0.12630473  0.12215736  0.60422079  1
  O  O160  1  0.11915986  0.62530529  0.12905342  1
  O  O161  1  0.09557697  0.61631711  0.62489636  1
  O  O162  1  0.60632112  0.12178122  0.12489935  1
  O  O163  1  0.61453363  0.12019030  0.63402810  1
  O  O164  1  0.62867543  0.60787796  0.11628924  1
  O  O165  1  0.61845281  0.61464319  0.61858613  1
  O  O166  1  0.37081446  0.36390692  0.38965817  1
  O  O167  1  0.37801278  0.37851724  0.88145682  1
  O  O168  1  0.38974618  0.86843610  0.38939171  1
  O  O169  1  0.38459076  0.89302967  0.86431758  1
  O  O170  1  0.87628747  0.38154459  0.37954985  1
  O  O171  1  0.86823741  0.40068645  0.87916703  1
  O  O172  1  0.88411033  0.88062129  0.37071187  1
  O  O173  1  0.86473173  0.89496457  0.89522053  1
  O  O174  1  0.24112088  0.01009626  0.36670797  1
  O  O175  1  0.26029647  0.00520568  0.86407443  1
  O  O176  1  0.24595498  0.49012375  0.36208578  1
  O  O177  1  0.27010086  0.51545718  0.88606454  1
  O  O178  1  0.75597449  -0.00224500  0.35001722  1
  O  O179  1  0.76911784  0.02520317  0.88735697  1
  O  O180  1  0.74845602  0.51172755  0.36539283  1
  O  O181  1  0.72945346  0.50197383  0.86462530  1
  O  O182  1  0.24740984  0.49004808  0.13306074  1
  O  O183  1  0.25339789  0.48803126  0.62067352  1
  O  O184  1  0.24885190  0.98622713  0.13858052  1
  O  O185  1  0.24068499  1.01037154  0.63941538  1
  O  O186  1  0.74369851  0.49339218  0.12989144  1
  O  O187  1  0.73802070  0.49115371  0.63267089  1
  O  O188  1  0.74884763  0.99789762  0.12420192  1
  O  O189  1  0.75203614  0.96415940  0.63236805  1
  O  O190  1  -0.00562221  0.36804736  0.25287752  1
  O  O191  1  0.01539947  0.39593880  0.78637339  1
  O  O192  1  0.00621480  0.87080979  0.25220943  1
  O  O193  1  0.00418000  0.85874462  0.74517296  1
  O  O194  1  0.48762052  0.35360202  0.25524714  1
  O  O195  1  0.50057967  0.36960428  0.75676001  1
  O  O196  1  0.50750712  0.86324041  0.25983406  1
  O  O197  1  0.49560389  0.86241783  0.72472551  1
  O  O198  1  0.48748920  0.13038599  0.23986051  1
  O  O199  1  0.49153605  0.13233818  0.74231154  1
  O  O200  1  0.49451231  0.63446386  0.26326750  1
  O  O201  1  0.49346559  0.63331597  0.74085430  1
  O  O202  1  0.98754340  0.12170969  0.24987205  1
  O  O203  1  1.01507186  0.14406659  0.73221978  1
  O  O204  1  0.99380899  0.63270598  0.24570804  1
  O  O205  1  0.98577806  0.63006152  0.74372144  1
  O  O206  1  0.37384780  0.25757650  0.00939570  1
  O  O207  1  0.37002983  0.25259294  0.50652365  1
  O  O208  1  0.43464535  0.75122401  0.00831642  1
  O  O209  1  0.37804878  0.76446306  0.50546490  1
  O  O210  1  0.89169479  0.24479443  0.01515389  1
  O  O211  1  0.87547110  0.27194704  0.49875234  1
  O  O212  1  0.86786194  0.75996514  0.00697113  1
  O  O213  1  0.88794229  0.76563206  0.49193556  1
  O  O214  1  0.12442376  0.24243641  0.49058677  1
  O  O215  1  0.12464296  0.23504425  1.01163321  1
  O  O216  1  0.10279771  0.72968583  0.49714918  1
  O  O217  1  0.11297130  0.75437335  0.99234633  1
  O  O218  1  0.64624139  0.25424523  0.50791663  1
  O  O219  1  0.62715059  0.25124138  1.00992264  1
  O  O220  1  0.62683505  0.73969595  0.48813762  1
  O  O221  1  0.63913618  0.75524179  1.01412063  1
  O  O222  1  0.48303435  0.24242069  0.13511065  1
  O  O223  1  0.49181619  0.24126888  0.63213097  1
  O  O224  1  0.51177773  0.74799351  0.15072993  1
  O  O225  1  0.50580458  0.73379640  0.62459480  1
  O  O226  1  0.99184621  0.25885920  0.13870283  1
  O  O227  1  1.00758644  0.25441226  0.64859762  1
  O  O228  1  0.99129162  0.74488918  0.13769798  1
  O  O229  1  0.99060077  0.74115222  0.63730310  1
  O  O230  1  0.00413797  0.24752175  0.36068071  1
  O  O231  1  0.01970192  0.25557036  0.87212680  1
  O  O232  1  -0.00528883  0.76150554  0.36070841  1
  O  O233  1  0.00500545  0.73786893  0.87277680  1
  O  O234  1  0.49650591  0.24123764  0.35949373  1
  O  O235  1  0.48644703  0.25826377  0.86389857  1
  O  O236  1  0.51352324  0.75598169  0.36936609  1
  O  O237  1  0.48718069  0.77600051  0.85101606  1
  O  O238  1  0.24264166  0.12892843  0.49156240  1
  O  O239  1  0.23926269  0.11456929  0.99007106  1
  O  O240  1  0.25250500  0.61490836  0.48072162  1
  O  O241  1  0.27413438  0.63545638  0.99732993  1
  O  O242  1  0.76967630  0.15249330  0.49082588  1
  O  O243  1  0.75546945  0.14620165  0.99898926  1
  O  O244  1  0.74880836  0.61952688  0.49215317  1
  O  O245  1  0.74972607  0.64317876  1.00286264  1
  O  O246  1  0.25656474  0.37587117  0.00874613  1
  O  O247  1  0.25877134  0.36913451  0.51026657  1
  O  O248  1  0.24639974  0.88122950  0.01668486  1
  O  O249  1  0.24231399  0.86287800  0.49655985  1
  O  O250  1  0.74865336  0.35950473  0.00860506  1
  O  O251  1  0.76833476  0.37914010  0.51318314  1
  O  O252  1  0.75801674  0.86701543  0.01926990  1
  O  O253  1  0.76912374  0.86631368  0.48830504  1
  O  O254  1  0.14440445  0.50456203  0.23721212  1
  O  O255  1  0.14343025  0.55492048  0.76552009  1
  O  O256  1  0.13342572  0.99171985  0.24942357  1
  O  O257  1  0.12722631  0.98612946  0.75268125  1
  O  O258  1  0.63850171  0.50699547  0.23996766  1
  O  O259  1  0.62440319  0.49470315  0.74418746  1
  O  O260  1  0.63314648  0.98671602  0.24553768  1
  O  O261  1  0.64219778  1.00955731  0.76604780  1
  O  O262  1  0.36361039  0.00878319  0.24858962  1
  O  O263  1  0.36436946  0.00866354  0.74652290  1
  O  O264  1  0.36257592  0.50587002  0.24769858  1
  O  O265  1  0.38725520  0.50919624  0.76213867  1
  O  O266  1  0.86867511  0.01278287  0.23718564  1
  O  O267  1  0.88490682  -0.00452244  0.76973129  1
  O  O268  1  0.86405697  0.51272850  0.23923597  1
  O  O269  1  0.85101837  0.50714959  0.76800111  1
  O  O270  1  0.13146705  0.35905929  0.38115384  1
  O  O271  1  0.14404694  0.36864801  0.88536787  1
  O  O272  1  0.10980119  0.88067526  0.36296327  1
  O  O273  1  0.13340063  0.85316268  0.86524719  1
  O  O274  1  0.63488246  0.38647456  0.36311713  1
  O  O275  1  0.61062092  0.37802264  0.86471666  1
  O  O276  1  0.62109073  0.86699015  0.36475669  1
  O  O277  1  0.60125249  0.88407057  0.84974509  1
  O  O278  1  0.37062658  0.13008687  0.13336392  1
  O  O279  1  0.37457077  0.13229201  0.62983983  1
  O  O280  1  0.36617469  0.62938564  0.14677509  1
  O  O281  1  0.38447784  0.61871069  0.63183663  1
  O  O282  1  0.87193467  0.14343883  0.13615978  1
  O  O283  1  0.81047036  0.09967688  0.64299602  1
  O  O284  1  0.88246939  0.63419565  0.13647669  1
  O  O285  1  0.87692672  0.61215829  0.64513973  1
  O  O286  1  0.25620183  0.25963270  0.13464737  1
  O  O287  1  0.25910207  0.25247392  0.61808321  1
  O  O288  1  0.25271239  0.76001048  0.12680498  1
  O  O289  1  0.23173874  0.71616694  0.63228811  1
  O  O290  1  0.75908410  0.25560369  0.11562457  1
  O  O291  1  0.75882537  0.27261526  0.61722834  1
  O  O292  1  0.76395548  0.74418486  0.12448781  1
  O  O293  1  0.75300650  0.75657349  0.61704168  1
  O  O294  1  0.23976207  0.23923450  0.37739939  1
  O  O295  1  0.26387432  0.23308614  0.87286727  1
  O  O296  1  0.24669178  0.74304319  0.37032700  1
  O  O297  1  0.29064154  0.75311685  0.89025359  1
  O  O298  1  0.75343008  0.26210021  0.38845822  1
  O  O299  1  0.74717214  0.24982303  0.89668985  1
  O  O300  1  0.74245085  0.73949388  0.37538427  1
  O  O301  1  0.74964945  0.76224087  0.89734037  1
  O  O302  1  0.01968097  0.11503541  -0.00331532  1
  O  O303  1  0.00218135  0.11578517  0.48693967  1
  O  O304  1  -0.00649605  0.63357999  0.01971628  1
  O  O305  1  -0.02057733  0.60037790  0.52371540  1
  O  O306  1  0.48834520  0.12639399  0.01521113  1
  O  O307  1  0.50466517  0.12983488  0.51649894  1
  O  O308  1  0.47961006  0.59371039  0.02079587  1
  O  O309  1  0.50337698  0.61587291  0.50449757  1
  O  O310  1  0.49614484  0.37618413  0.49603211  1
  O  O311  1  0.49069564  0.37142396  0.99400588  1
  O  O312  1  0.51361010  0.87980014  0.48458266  1
  O  O313  1  0.51136631  0.88635179  0.97972943  1
  O  O314  1  0.99255708  0.38756953  0.49832647  1
  O  O315  1  1.00999128  0.37724727  0.97698175  1
  O  O316  1  0.98617806  0.88611952  0.48658062  1
  O  O317  1  0.99461868  0.88773610  1.00072498  1
  O  O318  1  0.50524068  0.49950195  0.38775885  1
  O  O319  1  0.48987817  0.48419275  0.88746519  1
  O  O320  1  0.50310933  0.98473525  0.36401473  1
  O  O321  1  0.48536592  0.99734954  0.86550223  1
  O  O322  1  0.99487578  0.51375406  0.37957634  1
  O  O323  1  0.98826717  0.51223725  0.88473287  1
  O  O324  1  0.99393308  0.99405225  0.37975616  1
  O  O325  1  0.99006064  1.00755637  0.88793681  1
  O  O326  1  0.00556490  0.00054144  0.10936180  1
  O  O327  1  -0.00125411  -0.00676702  0.60956678  1
  O  O328  1  0.01360007  0.51102591  0.13650901  1
  O  O329  1  -0.00312476  0.49587693  0.65207642  1
  O  O330  1  0.49042056  0.01169282  0.12927929  1
  O  O331  1  0.49756001  0.01482123  0.63384393  1
  O  O332  1  0.51326387  0.47485510  0.12193823  1
  O  O333  1  0.50833270  0.50659187  0.62024351  1
  O  O334  1  0.25784359  0.38402465  0.24155035  1
  O  O335  1  0.25835447  0.37189571  0.73241803  1
  O  O336  1  0.24429793  0.88031369  0.25432362  1
  O  O337  1  0.24318450  0.88333489  0.75581552  1
  O  O338  1  0.76103742  0.38742916  0.23854198  1
  O  O339  1  0.73883681  0.38671001  0.74432912  1
  O  O340  1  0.73874242  0.87904409  0.24662523  1
  O  O341  1  0.74867511  0.85823253  0.74632533  1
  O  O342  1  0.25215365  0.11653617  0.25635439  1
  O  O343  1  0.25335386  0.11786994  0.75753237  1
  O  O344  1  0.25692846  0.61444125  0.26277954  1
  O  O345  1  0.27501774  0.63977823  0.77686905  1
  O  O346  1  0.75641014  0.11617985  0.24215970  1
  O  O347  1  0.74784160  0.14897788  0.77938629  1
  O  O348  1  0.75609698  0.61806828  0.25461083  1
  O  O349  1  0.74635028  0.61358320  0.74534643  1
  O  O350  1  0.36074012  0.12970145  0.36657305  1
  O  O351  1  0.37087673  0.11330464  0.86353724  1
  O  O352  1  0.36255210  0.63018342  0.36391973  1
  O  O353  1  0.38464130  0.61851932  0.87206606  1
  O  O354  1  0.86520088  0.12717387  0.35396857  1
  O  O355  1  0.87639338  0.11965237  0.87782242  1
  O  O356  1  0.86430296  0.63250378  0.36056329  1
  O  O357  1  0.86922190  0.61539151  0.86293603  1
  O  O358  1  0.13540096  0.38575815  0.11646102  1
  O  O359  1  0.14132243  0.37220466  0.62097981  1
  O  O360  1  0.13644329  0.87610714  0.13908301  1
  O  O361  1  0.12999369  0.87013334  0.64123318  1
  O  O362  1  0.64103512  0.38154482  0.12549244  1
  O  O363  1  0.62289244  0.38377392  0.63636902  1
  O  O364  1  0.62032772  0.87652148  0.12841461  1
  O  O365  1  0.63766598  0.86379508  0.62915283  1
  O  O366  1  0.10776557  0.24496555  0.25434927  1
  O  O367  1  0.05403283  0.20937752  0.71214369  1
  O  O368  1  0.11494245  0.75941563  0.24636213  1
  O  O369  1  0.10590867  0.74915272  0.75976454  1
  O  O370  1  0.60667545  0.24561655  0.23706516  1
  O  O371  1  0.60872499  0.26261706  0.74541122  1
  O  O372  1  0.62165942  0.75345369  0.25888302  1
  O  O373  1  0.60560149  0.74271316  0.74615293  1
  O  O374  1  0.37476953  0.23565212  0.24228869  1
  O  O375  1  0.38186484  0.23918778  0.73990196  1
  O  O376  1  0.39115432  0.74531241  0.25466687  1
  O  O377  1  0.38823885  0.74092956  0.73404533  1
  O  O378  1  0.88729221  0.24313602  0.24507204  1
  O  O379  1  0.87861500  0.26445983  0.75954345  1
  O  O380  1  0.88061465  0.74422586  0.24382809  1
  O  O381  1  0.88666687  0.74348018  0.76337896  1
  O  O382  1  0.38939445  0.48520857  0.50760421  1
  O  O383  1  0.37973237  0.48007983  0.99902504  1
  O  O384  1  0.36203733  0.97392606  0.50096752  1
  O  O385  1  0.36934200  1.00189993  0.98356941  1
  O  O386  1  0.88492213  0.48467000  0.50278403  1
  O  O387  1  0.86419646  0.51347360  0.98994024  1
  O  O388  1  0.87648370  0.98958434  0.49483092  1
  O  O389  1  0.88953047  0.99980194  1.00086944  1
  O  O390  1  0.11582605  -0.00031719  -0.00498103  1
  O  O391  1  0.11161672  0.00682127  0.49866341  1
  O  O392  1  0.13839833  0.52359731  0.01843329  1
  O  O393  1  0.10336975  0.50516277  0.49489505  1
  O  O394  1  0.64572368  -0.02113364  -0.00426080  1
  O  O395  1  0.67646645  0.01701314  0.50407170  1
  O  O396  1  0.61576577  0.49584543  0.00822485  1
  O  O397  1  0.61883111  0.50204295  0.50991570  1
  O  O398  1  0.36512210  0.36547875  0.11875571  1
  O  O399  1  0.37327823  0.36224430  0.61712621  1
  O  O400  1  0.36060477  0.87121754  0.13129611  1
  O  O401  1  0.35797431  0.86627254  0.61117960  1
  O  O402  1  0.86611395  0.36182812  0.12605100  1
  O  O403  1  0.86842865  0.38506771  0.63928902  1
  O  O404  1  0.88348813  0.86533425  0.11521094  1
  O  O405  1  0.86842324  0.87069146  0.61147439  1
  O  O406  1  0.13187954  0.13244701  0.38181992  1
  O  O407  1  0.13646024  0.12168882  0.88585583  1
  O  O408  1  0.14422418  0.62189751  0.36878010  1
  O  O409  1  0.16338569  0.66111523  0.88494365  1
  O  O410  1  0.62736041  0.12633957  0.36919905  1
  O  O411  1  0.63801865  0.12139732  0.88751497  1
  O  O412  1  0.63585844  0.63046571  0.37892476  1
  O  O413  1  0.57523308  0.63641291  0.89642131  1
