# generated using pymatgen
data_V79Zn79O256
_symmetry_space_group_name_H-M   'P 1'
_cell_length_a   16.90370182
_cell_length_b   16.90799833
_cell_length_c   16.88940915
_cell_angle_alpha   89.91916320
_cell_angle_beta   90.02310729
_cell_angle_gamma   90.09719241
_symmetry_Int_Tables_number   1
_chemical_formula_structural   V79Zn79O256
_chemical_formula_sum   'V79 Zn79 O256'
_cell_volume   4827.11209808
_cell_formula_units_Z   1
loop_
 _symmetry_equiv_pos_site_id
 _symmetry_equiv_pos_as_xyz
  1  'x, y, z'
loop_
 _atom_site_type_symbol
 _atom_site_label
 _atom_site_symmetry_multiplicity
 _atom_site_fract_x
 _atom_site_fract_y
 _atom_site_fract_z
 _atom_site_occupancy
  V  V0  1  0.86604497  0.86996568  0.50203926  1
  V  V1  1  0.50846153  0.36890670  0.37739689  1
  V  V2  1  0.37295222  0.87787180  0.00055513  1
  V  V3  1  0.25115605  0.37475079  0.62251471  1
  V  V4  1  0.24896151  0.12254536  0.37068723  1
  V  V5  1  0.01018700  0.25563922  0.24895429  1
  V  V6  1  0.00001413  0.24644504  0.75077693  1
  V  V7  1  0.74401455  0.00074068  0.74169381  1
  V  V8  1  0.62355383  0.26956651  0.86719559  1
  V  V9  1  0.74796118  0.37592259  0.62960775  1
  V  V10  1  0.88152486  0.38715584  -0.00109174  1
  V  V11  1  0.87524637  0.25662454  0.62029834  1
  V  V12  1  -0.00049351  0.88012459  0.37597671  1
  V  V13  1  0.25576737  0.25392831  0.00342417  1
  V  V14  1  0.87265733  0.00135751  0.87838233  1
  V  V15  1  0.00038366  0.38551939  0.88016697  1
  V  V16  1  0.37671547  0.75164548  0.62599361  1
  V  V17  1  0.75348162  0.00701500  0.24615112  1
  V  V18  1  0.37239914  0.86699341  0.49805911  1
  V  V19  1  0.51104773  0.62577258  0.62454232  1
  V  V20  1  0.63066336  0.87141614  0.23604139  1
  V  V21  1  0.74652321  0.25111761  -0.00012983  1
  V  V22  1  0.12248767  0.11884692  0.00416556  1
  V  V23  1  0.62568926  0.86995145  0.74582817  1
  V  V24  1  0.62729160  0.49769353  0.63799823  1
  V  V25  1  0.87606581  0.12382372  0.74898550  1
  V  V26  1  -0.00232495  0.12352041  0.13172072  1
  V  V27  1  0.85659083  0.75172922  0.12470752  1
  V  V28  1  0.62481511  0.02661622  0.12063674  1
  V  V29  1  0.51375080  0.86767944  0.88386365  1
  V  V30  1  0.25460768  0.11555873  0.86687090  1
  V  V31  1  0.13958878  0.87827696  0.71640102  1
  V  V32  1  0.62894292  0.74694746  0.38861433  1
  V  V33  1  0.50503066  0.87701082  0.37397552  1
  V  V34  1  0.85638312  0.86979863  0.00765490  1
  V  V35  1  0.12076580  0.49904048  0.11346087  1
  V  V36  1  0.25222766  0.37089845  0.13118817  1
  V  V37  1  0.74616471  0.13024848  0.37418007  1
  V  V38  1  0.74224746  0.12968225  0.87698519  1
  V  V39  1  0.01219920  0.11677211  0.61180929  1
  V  V40  1  -0.00177980  0.86433475  0.87355031  1
  V  V41  1  0.12357138  0.74782471  0.37483922  1
  V  V42  1  0.37912961  0.36799064  0.50460966  1
  V  V43  1  0.36490600  0.62008115  0.75172447  1
  V  V44  1  0.87743569  0.24845803  0.13014311  1
  V  V45  1  0.62979603  0.37379689  0.25496613  1
  V  V46  1  0.48322476  0.12337951  0.63694043  1
  V  V47  1  0.74721410  0.25489314  0.49883706  1
  V  V48  1  0.37613787  0.62424847  0.25096031  1
  V  V49  1  0.24617792  0.62824747  0.38262412  1
  V  V50  1  -0.00086511  -0.00238202  0.00659862  1
  V  V51  1  0.49913616  0.62232529  0.12139347  1
  V  V52  1  0.51069814  0.50225574  0.50216536  1
  V  V53  1  0.62773912  0.11850662  0.51461993  1
  V  V54  1  0.75596763  0.63589308  0.87658234  1
  V  V55  1  0.24649570  0.24282649  0.50207320  1
  V  V56  1  0.49721012  0.24191135  0.24725945  1
  V  V57  1  0.12571644  0.51256789  0.61652536  1
  V  V58  1  0.36795477  0.75273234  0.12282930  1
  V  V59  1  0.24083395  0.49362169  0.25367093  1
  V  V60  1  0.87664473  0.00542958  0.37654599  1
  V  V61  1  0.01092662  0.37160005  0.38343620  1
  V  V62  1  -0.00092289  0.51717876  0.50114473  1
  V  V63  1  0.12432361  0.24616570  0.87672988  1
  V  V64  1  0.37757427  0.50032944  0.37761479  1
  V  V65  1  0.62662528  0.49893043  0.12791000  1
  V  V66  1  0.50242469  0.01967355  0.00259312  1
  V  V67  1  0.49033013  0.26486073  0.75015930  1
  V  V68  1  0.37935334  0.00374523  0.36768881  1
  V  V69  1  0.75367793  0.63218928  0.37892852  1
  V  V70  1  0.62097025  0.63409788  -0.01100772  1
  V  V71  1  0.24686277  -0.00355284  0.23792508  1
  V  V72  1  0.87047981  0.73270347  0.63202510  1
  V  V73  1  0.86895808  0.48835403  0.37289067  1
  V  V74  1  0.49234288  0.48131287  -0.00511231  1
  V  V75  1  0.12866032  0.37473400  0.74399475  1
  V  V76  1  0.76706528  0.50131828  0.76103984  1
  V  V77  1  -0.00520158  0.74479197  0.24610939  1
  V  V78  1  0.75511026  0.38351511  0.13071700  1
  Zn  Zn79  1  0.36929143  0.50656004  0.87554949  1
  Zn  Zn80  1  0.11725667  0.87692718  0.23204346  1
  Zn  Zn81  1  0.23371608  0.87397301  0.11179917  1
  Zn  Zn82  1  0.50236150  0.74950124  0.24901403  1
  Zn  Zn83  1  0.12960551  0.24610061  0.37127215  1
  Zn  Zn84  1  0.00705364  0.73721836  0.73519110  1
  Zn  Zn85  1  0.38924667  0.01251043  0.85085754  1
  Zn  Zn86  1  0.38321010  0.24384881  0.12419166  1
  Zn  Zn87  1  0.15618764  0.62836475  -0.00796565  1
  Zn  Zn88  1  0.74010761  0.87311066  0.61542920  1
  Zn  Zn89  1  0.86439601  0.61570337  0.24106433  1
  Zn  Zn90  1  -0.00139994  0.62301371  0.11226179  1
  Zn  Zn91  1  0.50968939  0.73576279  0.76410027  1
  Zn  Zn92  1  0.23040315  0.74684261  0.51678776  1
  Zn  Zn93  1  0.50426942  -0.00204253  0.50817010  1
  Zn  Zn94  1  0.19044229  0.17789661  0.18777213  1
  Zn  Zn95  1  0.19302713  0.18712980  0.68447767  1
  Zn  Zn96  1  0.18419802  0.68488239  0.18886840  1
  Zn  Zn97  1  0.19741073  0.71273486  0.79596816  1
  Zn  Zn98  1  0.68835593  0.19589186  0.19220528  1
  Zn  Zn99  1  0.68617408  0.19124453  0.69085987  1
  Zn  Zn100  1  0.68503147  0.67816860  0.19697235  1
  Zn  Zn101  1  0.69543237  0.68691169  0.68784393  1
  Zn  Zn102  1  0.31811516  0.31257892  0.31605578  1
  Zn  Zn103  1  0.31342559  0.32338005  0.81975844  1
  Zn  Zn104  1  0.31181444  0.81328324  0.30871067  1
  Zn  Zn105  1  0.31925338  0.85078757  0.79502539  1
  Zn  Zn106  1  0.81828232  0.31041727  0.31268342  1
  Zn  Zn107  1  0.81511290  0.31791532  0.81211090  1
  Zn  Zn108  1  0.81017932  0.81682904  0.31027016  1
  Zn  Zn109  1  0.81498088  0.81220224  0.80986903  1
  Zn  Zn110  1  0.18818926  0.43841586  0.44060144  1
  Zn  Zn111  1  0.20390779  0.44122905  0.92816841  1
  Zn  Zn112  1  0.19372168  0.92944468  0.42853839  1
  Zn  Zn113  1  0.18295280  0.93115016  0.92641405  1
  Zn  Zn114  1  0.69121521  0.43712896  0.44363596  1
  Zn  Zn115  1  0.68826047  0.44191771  0.94436957  1
  Zn  Zn116  1  0.68774971  0.94151335  0.43300512  1
  Zn  Zn117  1  0.68390949  0.94553684  0.93791655  1
  Zn  Zn118  1  0.31692001  0.06834692  0.05975097  1
  Zn  Zn119  1  0.32044688  0.05930053  0.55346794  1
  Zn  Zn120  1  0.31214060  0.55799400  0.06547232  1
  Zn  Zn121  1  0.31672249  0.56230824  0.56589017  1
  Zn  Zn122  1  0.81147550  0.06564765  0.06334915  1
  Zn  Zn123  1  0.82000309  0.06275287  0.56039119  1
  Zn  Zn124  1  0.81147092  0.57026132  0.05389641  1
  Zn  Zn125  1  0.80844858  0.55851308  0.55538644  1
  Zn  Zn126  1  0.43642348  0.43193967  0.18791372  1
  Zn  Zn127  1  0.43531585  0.44106930  0.68806363  1
  Zn  Zn128  1  0.44199492  0.94458112  0.18483681  1
  Zn  Zn129  1  0.44315045  0.93841919  0.68678355  1
  Zn  Zn130  1  0.94362685  0.43539808  0.19175532  1
  Zn  Zn131  1  0.94100314  0.44076215  0.68656447  1
  Zn  Zn132  1  0.93422177  0.93416380  0.18890644  1
  Zn  Zn133  1  0.94243934  0.93594420  0.68458649  1
  Zn  Zn134  1  0.06712772  0.06216017  0.31044405  1
  Zn  Zn135  1  0.06619539  0.05277458  0.80878642  1
  Zn  Zn136  1  0.05921091  0.56311761  0.31155221  1
  Zn  Zn137  1  0.07670432  0.56051614  0.80145876  1
  Zn  Zn138  1  0.57110235  0.06226971  0.31590210  1
  Zn  Zn139  1  0.56402961  0.06448530  0.81148662  1
  Zn  Zn140  1  0.56618397  0.56000532  0.31313731  1
  Zn  Zn141  1  0.55812699  0.55424456  0.81448346  1
  Zn  Zn142  1  0.44159476  0.18596841  0.43838228  1
  Zn  Zn143  1  0.43610109  0.19515072  0.92890033  1
  Zn  Zn144  1  0.44375995  0.68577365  0.43721623  1
  Zn  Zn145  1  0.32281171  0.70153014  0.92806552  1
  Zn  Zn146  1  0.93468602  0.18744334  0.43573802  1
  Zn  Zn147  1  0.93456761  0.19081103  0.94217504  1
  Zn  Zn148  1  0.93342409  0.69183915  0.43760526  1
  Zn  Zn149  1  0.95914626  0.65306752  0.89146454  1
  Zn  Zn150  1  0.06949632  0.31567333  0.06508280  1
  Zn  Zn151  1  0.06340315  0.30620350  0.55982199  1
  Zn  Zn152  1  0.05086510  0.80509446  0.05380518  1
  Zn  Zn153  1  0.04951292  0.80710799  0.55670594  1
  Zn  Zn154  1  0.56791056  0.30763104  0.06507445  1
  Zn  Zn155  1  0.56554291  0.30786699  0.56899265  1
  Zn  Zn156  1  0.55726254  0.80945851  0.06206406  1
  Zn  Zn157  1  0.56108637  0.81428317  0.56450630  1
  O  O158  1  0.11318289  0.12805326  0.11264767  1
  O  O159  1  0.11050573  0.13103653  0.63116602  1
  O  O160  1  0.12662741  0.61034451  0.12202285  1
  O  O161  1  0.12798655  0.60749577  0.62622557  1
  O  O162  1  0.62322570  0.12518725  0.12530938  1
  O  O163  1  0.62746306  0.12416174  0.61741701  1
  O  O164  1  0.61858011  0.61595133  0.12303408  1
  O  O165  1  0.61988289  0.61514916  0.63061126  1
  O  O166  1  0.38751687  0.38218185  0.38488965  1
  O  O167  1  0.30751479  0.41348948  0.88304254  1
  O  O168  1  0.38841318  0.87640187  0.37731055  1
  O  O169  1  0.39538099  0.88364897  0.89597481  1
  O  O170  1  0.88428889  0.38476956  0.37397184  1
  O  O171  1  0.89223786  0.36979841  0.88177987  1
  O  O172  1  0.87696489  0.88219229  0.38040768  1
  O  O173  1  0.87057109  0.88744486  0.88702709  1
  O  O174  1  0.26051755  0.00411059  0.36748429  1
  O  O175  1  0.24673141  0.01478965  0.88106234  1
  O  O176  1  0.25528923  0.50672798  0.37235677  1
  O  O177  1  0.21631269  0.53908019  0.86046152  1
  O  O178  1  0.75518158  0.00973748  0.36536018  1
  O  O179  1  0.75719610  0.01218893  0.87148080  1
  O  O180  1  0.76575565  0.49875078  0.37805823  1
  O  O181  1  0.74857746  0.49738487  0.86307537  1
  O  O182  1  0.24450793  0.49060089  0.13481120  1
  O  O183  1  0.23529842  0.48741070  0.60895067  1
  O  O184  1  0.25784492  0.99775062  0.13551954  1
  O  O185  1  0.21706993  1.00139535  0.58221377  1
  O  O186  1  0.74258753  0.49120877  0.11774530  1
  O  O187  1  0.74648991  0.49500335  0.63358293  1
  O  O188  1  0.73603925  1.01170182  0.13134383  1
  O  O189  1  0.76048771  0.99769281  0.63864928  1
  O  O190  1  -0.00045888  0.36443542  0.26395195  1
  O  O191  1  0.00537667  0.36412128  0.75816608  1
  O  O192  1  -0.00345393  0.86489458  0.25784421  1
  O  O193  1  -0.00949603  0.87758673  0.76940026  1
  O  O194  1  0.50860959  0.37156059  0.26058215  1
  O  O195  1  0.50172456  0.36416789  0.74084899  1
  O  O196  1  0.51473495  0.87809730  0.25786268  1
  O  O197  1  0.51766687  0.88303753  0.76523666  1
  O  O198  1  0.51338145  0.14438349  0.26293833  1
  O  O199  1  0.49887769  0.12999403  0.74184141  1
  O  O200  1  0.49188252  0.62001409  0.24180973  1
  O  O201  1  0.49710311  0.62170751  0.73967903  1
  O  O202  1  1.00431861  0.13200370  0.23780787  1
  O  O203  1  0.99325227  0.13122257  0.75038099  1
  O  O204  1  0.99139284  0.63615753  0.25100296  1
  O  O205  1  1.00169532  0.63804775  0.78844635  1
  O  O206  1  0.35809658  0.25037548  -0.00337822  1
  O  O207  1  0.36956038  0.26247211  0.49422387  1
  O  O208  1  0.38083457  0.76918473  0.00975258  1
  O  O209  1  0.38765932  0.75418965  0.50849713  1
  O  O210  1  0.86912637  0.26236842  0.00905271  1
  O  O211  1  0.86287592  0.24140401  0.51359755  1
  O  O212  1  0.86547346  0.76470414  0.01393065  1
  O  O213  1  0.87289733  0.76423507  0.50488370  1
  O  O214  1  0.14330302  0.25286214  0.49299726  1
  O  O215  1  0.12634763  0.23967407  0.99190076  1
  O  O216  1  0.12072426  0.75391891  0.48178735  1
  O  O217  1  0.07413037  0.70973888  0.98718692  1
  O  O218  1  0.63957370  0.23935632  0.50673168  1
  O  O219  1  0.63917932  0.25686150  0.98872933  1
  O  O220  1  0.62581640  0.75500972  0.48715560  1
  O  O221  1  0.61875783  0.73216801  1.00435090  1
  O  O222  1  0.50200688  0.25646780  0.14170022  1
  O  O223  1  0.50544972  0.23886841  0.64145259  1
  O  O224  1  0.49146380  0.73749275  0.12825797  1
  O  O225  1  0.50252886  0.73556575  0.62370710  1
  O  O226  1  0.99667424  0.24658756  0.12955253  1
  O  O227  1  0.99362688  0.24470924  0.63430652  1
  O  O228  1  0.98517884  0.74711601  0.13522063  1
  O  O229  1  0.97772297  0.74870290  0.62125217  1
  O  O230  1  -0.00025690  0.25723746  0.36863324  1
  O  O231  1  0.00755219  0.25047203  0.86787916  1
  O  O232  1  0.00261264  0.75704736  0.36646080  1
  O  O233  1  -0.03213240  0.77015012  0.88087014  1
  O  O234  1  0.50124208  0.26405452  0.37192745  1
  O  O235  1  0.51612091  0.24813214  0.86602070  1
  O  O236  1  0.51398221  0.75614750  0.37105476  1
  O  O237  1  0.50211666  0.76933204  0.87714795  1
  O  O238  1  0.25989896  0.13969872  0.49303252  1
  O  O239  1  0.23848750  0.13338966  0.99444295  1
  O  O240  1  0.26008411  0.62995471  0.48652907  1
  O  O241  1  0.26671243  0.63772230  1.00342926  1
  O  O242  1  0.74299029  0.13065194  0.49896617  1
  O  O243  1  0.76140288  0.14104872  0.98895913  1
  O  O244  1  0.74256006  0.61298229  0.47822823  1
  O  O245  1  0.72938234  0.61531199  0.98829795  1
  O  O246  1  0.23595900  0.35643456  0.01233671  1
  O  O247  1  0.25935671  0.36577695  0.50175145  1
  O  O248  1  0.27023514  0.89116967  -0.00110826  1
  O  O249  1  0.26843978  0.86027967  0.48770631  1
  O  O250  1  0.76012969  0.36971704  0.00900836  1
  O  O251  1  0.75046232  0.36608418  0.51318334  1
  O  O252  1  0.75835431  0.88584843  0.00058421  1
  O  O253  1  0.76058981  0.88014222  0.49703149  1
  O  O254  1  0.13703316  0.50615810  0.24429905  1
  O  O255  1  0.11468747  0.48229099  0.72709895  1
  O  O256  1  0.14163844  0.99648654  0.24982230  1
  O  O257  1  0.12445015  0.96916588  0.76598847  1
  O  O258  1  0.62045406  0.48897348  0.23787452  1
  O  O259  1  0.63106531  0.49745268  0.74103655  1
  O  O260  1  0.62992819  0.99455529  0.23677273  1
  O  O261  1  0.63785250  0.99425283  0.75685901  1
  O  O262  1  0.36833480  -0.00799259  0.26070331  1
  O  O263  1  0.36291941  -0.04662069  0.76126812  1
  O  O264  1  0.36899643  0.50701242  0.25589176  1
  O  O265  1  0.37415173  0.51523976  0.74655517  1
  O  O266  1  0.85996472  -0.00638089  0.25637008  1
  O  O267  1  0.86804953  0.00780255  0.76040873  1
  O  O268  1  0.88822146  0.50296629  0.26873670  1
  O  O269  1  0.86645027  0.50224662  0.74883730  1
  O  O270  1  0.11411878  0.37233433  0.37707865  1
  O  O271  1  0.11785629  0.36444536  0.86666731  1
  O  O272  1  0.11469988  0.86937245  0.36952860  1
  O  O273  1  0.09740916  0.86348021  0.89931527  1
  O  O274  1  0.62003767  0.38601386  0.36751707  1
  O  O275  1  0.62953105  0.36792480  0.87531424  1
  O  O276  1  0.62185149  0.86673466  0.36891275  1
  O  O277  1  0.61942942  0.87981874  0.87089347  1
  O  O278  1  0.37255717  0.13376521  0.12733434  1
  O  O279  1  0.38373253  0.12591055  0.62238029  1
  O  O280  1  0.38189685  0.63010033  0.13419160  1
  O  O281  1  0.38905881  0.63071828  0.62927916  1
  O  O282  1  0.88539249  0.13857309  0.11668068  1
  O  O283  1  0.88107538  0.13445549  0.63585475  1
  O  O284  1  0.87579925  0.63710922  0.12177348  1
  O  O285  1  0.86468365  0.63320654  0.62014762  1
  O  O286  1  0.24338288  0.25230955  0.11545844  1
  O  O287  1  0.25003583  0.25688567  0.60964035  1
  O  O288  1  0.26467652  0.75467496  0.13575436  1
  O  O289  1  0.27743650  0.74322272  0.62048870  1
  O  O290  1  0.75777951  0.25864841  0.11907856  1
  O  O291  1  0.75665225  0.25756330  0.62359129  1
  O  O292  1  0.75808116  0.74458069  0.13397272  1
  O  O293  1  0.76320615  0.75819911  0.62793456  1
  O  O294  1  0.25354470  0.24171897  0.38111081  1
  O  O295  1  0.24014245  0.24318030  0.88673434  1
  O  O296  1  0.23983629  0.74225499  0.36806016  1
  O  O297  1  0.26665619  0.77494874  0.86125718  1
  O  O298  1  0.76153657  0.24329327  0.38651971  1
  O  O299  1  0.74403065  0.25016568  0.87837870  1
  O  O300  1  0.74136624  0.74289700  0.37336163  1
  O  O301  1  0.75138595  0.73507511  0.86769797  1
  O  O302  1  0.00302323  0.11869685  0.00656887  1
  O  O303  1  -0.00022528  0.13318535  0.51253582  1
  O  O304  1  0.01332777  0.64422237  -0.00523509  1
  O  O305  1  0.00253574  0.61571186  0.49232575  1
  O  O306  1  0.49564880  0.11805342  -0.00369193  1
  O  O307  1  0.51449264  0.13132864  0.51293861  1
  O  O308  1  0.51114754  0.61115238  0.01351311  1
  O  O309  1  0.49692596  0.61092032  0.50915952  1
  O  O310  1  0.49831085  0.37842347  0.49830904  1
  O  O311  1  0.50209466  0.38214027  1.00797099  1
  O  O312  1  0.49916984  0.87729073  0.48694234  1
  O  O313  1  0.50538358  0.88607351  0.99379376  1
  O  O314  1  0.99835765  0.36908552  0.48599379  1
  O  O315  1  0.99849464  0.36831919  0.98713348  1
  O  O316  1  0.98526365  0.87468306  0.48139299  1
  O  O317  1  0.97902811  0.88493508  0.99592428  1
  O  O318  1  0.49928075  0.49347645  0.38431226  1
  O  O319  1  0.49593882  0.49478062  0.89076415  1
  O  O320  1  0.49742118  0.99241351  0.37458328  1
  O  O321  1  0.50403136  1.00075279  0.89009678  1
  O  O322  1  0.99962983  0.48907084  0.38508455  1
  O  O323  1  1.01172351  0.48252774  0.87123488  1
  O  O324  1  0.98821553  0.99309415  0.36000472  1
  O  O325  1  0.98596183  0.99713503  0.88532367  1
  O  O326  1  -0.01221641  0.00920863  0.11672086  1
  O  O327  1  -0.00678552  0.01916835  0.62779884  1
  O  O328  1  0.01602057  0.49999280  0.12761215  1
  O  O329  1  0.00729955  0.49439666  0.60806034  1
  O  O330  1  0.51616470  0.00312371  0.11695407  1
  O  O331  1  0.49875089  0.01783349  0.62539281  1
  O  O332  1  0.50625133  0.50231202  0.12107669  1
  O  O333  1  0.50940261  0.50440094  0.62078295  1
  O  O334  1  0.25392765  0.38425204  0.24952002  1
  O  O335  1  0.23766756  0.36047384  0.73427538  1
  O  O336  1  0.24855986  0.88687871  0.24658706  1
  O  O337  1  0.23863719  0.86895867  0.71003078  1
  O  O338  1  0.74660065  0.36853957  0.23951334  1
  O  O339  1  0.75607695  0.38795698  0.74170285  1
  O  O340  1  0.73522480  0.88893355  0.25492441  1
  O  O341  1  0.73868952  0.88439799  0.75425448  1
  O  O342  1  0.25234549  0.10991626  0.25745400  1
  O  O343  1  0.24463439  0.13207425  0.76813002  1
  O  O344  1  0.26083969  0.61612852  0.25786027  1
  O  O345  1  0.26774358  0.63657750  0.73840194  1
  O  O346  1  0.74179052  0.11930432  0.25989408  1
  O  O347  1  0.75891427  0.12190609  0.75612830  1
  O  O348  1  0.74949405  0.61770055  0.26825828  1
  O  O349  1  0.74408212  0.61110691  0.76518683  1
  O  O350  1  0.36990483  0.11151257  0.38390930  1
  O  O351  1  0.36033329  0.12146965  0.88086052  1
  O  O352  1  0.37201256  0.62153025  0.36781815  1
  O  O353  1  0.37920515  0.62624315  0.85609344  1
  O  O354  1  0.86243200  0.11585430  0.38027180  1
  O  O355  1  0.86930965  0.12241407  0.86726657  1
  O  O356  1  0.86289676  0.62253610  0.37400160  1
  O  O357  1  0.85176011  0.61687533  0.89622354  1
  O  O358  1  0.13465485  0.38812828  0.12762440  1
  O  O359  1  0.13216405  0.37100970  0.62787559  1
  O  O360  1  0.12200763  0.86411440  0.11691707  1
  O  O361  1  0.10301819  0.88265270  0.62103879  1
  O  O362  1  0.63671219  0.38085437  0.13171091  1
  O  O363  1  0.63853414  0.38176873  0.62455575  1
  O  O364  1  0.62247983  0.87378436  0.13571948  1
  O  O365  1  0.62200712  0.87914302  0.63972666  1
  O  O366  1  0.11501937  0.24415000  0.25081049  1
  O  O367  1  0.11730943  0.25450963  0.75683385  1
  O  O368  1  0.11276518  0.75064279  0.25691578  1
  O  O369  1  0.11507059  0.77751307  0.75187168  1
  O  O370  1  0.61729905  0.26729643  0.24898059  1
  O  O371  1  0.62259664  0.25355904  0.76284471  1
  O  O372  1  0.62583645  0.76363811  0.25449572  1
  O  O373  1  0.62629618  0.76542947  0.74908518  1
  O  O374  1  0.39398144  0.25339160  0.25442456  1
  O  O375  1  0.39087714  0.25746365  0.76935479  1
  O  O376  1  0.38006984  0.73959126  0.24554302  1
  O  O377  1  0.39089503  0.74483365  0.73381172  1
  O  O378  1  0.88631483  0.25358340  0.23648223  1
  O  O379  1  0.88178556  0.24266451  0.74580699  1
  O  O380  1  0.87668795  0.75306178  0.23930236  1
  O  O381  1  0.87767337  0.75236628  0.73525579  1
  O  O382  1  0.38681076  0.48989712  0.49756753  1
  O  O383  1  0.39124581  0.49989612  1.00625728  1
  O  O384  1  0.38118458  0.98554361  0.48852598  1
  O  O385  1  0.39525683  0.99190750  1.01191246  1
  O  O386  1  0.89008365  0.50336760  0.48678405  1
  O  O387  1  0.87609680  0.48650346  1.00698457  1
  O  O388  1  0.87144428  0.99142562  0.48434850  1
  O  O389  1  0.87739912  0.99667680  0.99598306  1
  O  O390  1  0.10976944  0.00866796  -0.00825846  1
  O  O391  1  0.16575842  0.00199199  0.52476935  1
  O  O392  1  0.13732733  0.50083312  0.01157552  1
  O  O393  1  0.11172732  0.49655390  0.50564702  1
  O  O394  1  0.61888263  0.00697164  0.01298716  1
  O  O395  1  0.62515010  0.01403662  0.49938943  1
  O  O396  1  0.61393565  0.50232822  0.01164747  1
  O  O397  1  0.61607400  0.49379643  0.51214227  1
  O  O398  1  0.35819846  0.36570329  0.13069253  1
  O  O399  1  0.36372397  0.38322338  0.61541058  1
  O  O400  1  0.38562020  0.86787050  0.11640819  1
  O  O401  1  0.39564894  0.85948918  0.61139962  1
  O  O402  1  0.87270940  0.37017139  0.12074945  1
  O  O403  1  0.86923252  0.36344702  0.63188067  1
  O  O404  1  0.87020874  0.86705165  0.11756887  1
  O  O405  1  0.87559577  0.88100566  0.60663995  1
  O  O406  1  0.14278856  0.12249873  0.37546224  1
  O  O407  1  0.12830166  0.13049927  0.88117212  1
  O  O408  1  0.13535272  0.63296488  0.36777522  1
  O  O409  1  0.16294721  0.60600385  0.86841199  1
  O  O410  1  0.63984745  0.12312011  0.38985521  1
  O  O411  1  0.63980105  0.13394977  0.87158972  1
  O  O412  1  0.63004334  0.64085594  0.36793281  1
  O  O413  1  0.62357048  0.62198740  0.88514419  1
