# generated using pymatgen
data_V79Zn79O256
_symmetry_space_group_name_H-M   'P 1'
_cell_length_a   16.88110371
_cell_length_b   16.87590631
_cell_length_c   16.89801353
_cell_angle_alpha   89.98801187
_cell_angle_beta   90.11612617
_cell_angle_gamma   90.08867756
_symmetry_Int_Tables_number   1
_chemical_formula_structural   V79Zn79O256
_chemical_formula_sum   'V79 Zn79 O256'
_cell_volume   4813.95665727
_cell_formula_units_Z   1
loop_
 _symmetry_equiv_pos_site_id
 _symmetry_equiv_pos_as_xyz
  1  'x, y, z'
loop_
 _atom_site_type_symbol
 _atom_site_label
 _atom_site_symmetry_multiplicity
 _atom_site_fract_x
 _atom_site_fract_y
 _atom_site_fract_z
 _atom_site_occupancy
  V  V0  1  0.37139483  0.36764501  0.49981772  1
  V  V1  1  0.75208892  0.62138850  0.36597568  1
  V  V2  1  0.76877642  0.50775280  0.23218921  1
  V  V3  1  0.00322785  0.50018360  0.50584181  1
  V  V4  1  0.25144961  0.36313761  0.11735563  1
  V  V5  1  0.87566234  0.01193403  0.87265173  1
  V  V6  1  0.36649984  -0.00287865  0.36807664  1
  V  V7  1  0.86327930  0.35684851  0.51468572  1
  V  V8  1  0.88953645  0.14041466  0.73664134  1
  V  V9  1  0.24839468  0.11331036  0.87536727  1
  V  V10  1  -0.00599695  0.73248255  0.23272286  1
  V  V11  1  0.74985390  0.74759756  0.49873632  1
  V  V12  1  -0.00181293  0.87056474  0.37229791  1
  V  V13  1  0.74740282  0.37186137  0.11919460  1
  V  V14  1  0.75096836  0.87683400  0.62165193  1
  V  V15  1  0.25243451  0.50694216  0.25601316  1
  V  V16  1  0.12692510  0.74115630  0.88158737  1
  V  V17  1  0.88078432  0.37503374  -0.00050896  1
  V  V18  1  0.49650795  0.00054584  0.50047862  1
  V  V19  1  0.13027263  0.12609878  0.49935038  1
  V  V20  1  0.37565809  0.13680647  0.25376822  1
  V  V21  1  0.62538597  0.00519107  0.61850332  1
  V  V22  1  0.49646112  0.12332021  0.62529986  1
  V  V23  1  0.37739977  0.50543288  0.37662091  1
  V  V24  1  0.13618545  0.26317262  0.87409633  1
  V  V25  1  0.48489102  0.38559948  0.88791617  1
  V  V26  1  0.00111780  0.00558305  0.50217560  1
  V  V27  1  0.12993074  0.24872449  0.37958639  1
  V  V28  1  0.50103627  0.36628243  0.36676002  1
  V  V29  1  0.26788911  0.51501568  0.74724742  1
  V  V30  1  0.61957179  0.24907796  0.87831983  1
  V  V31  1  0.87076507  -0.00072070  0.37120169  1
  V  V32  1  0.87396455  0.49724204  0.38005364  1
  V  V33  1  0.24284893  0.87277175  0.63853067  1
  V  V34  1  0.01442273  0.51169449  -0.00185800  1
  V  V35  1  0.00443122  0.62407386  0.62406580  1
  V  V36  1  0.01065718  0.88117495  0.87165044  1
  V  V37  1  0.50506837  0.10891614  0.12971498  1
  V  V38  1  0.86484019  0.50742201  0.87739214  1
  V  V39  1  0.87502383  0.75162944  0.62529068  1
  V  V40  1  0.60969534  0.50159990  0.11824173  1
  V  V41  1  0.12590650  0.00080014  0.64042391  1
  V  V42  1  0.62129328  0.11171053  0.00123196  1
  V  V43  1  0.00576471  0.01012738  0.01258351  1
  V  V44  1  0.74731666  0.12843445  0.38439388  1
  V  V45  1  0.75987000  0.74138522  0.00268518  1
  V  V46  1  0.62547192  0.37024980  0.24540908  1
  V  V47  1  0.13015211  0.51169343  0.12176570  1
  V  V48  1  0.60417839  0.62195778  -0.00199824  1
  V  V49  1  0.12177684  0.37225596  0.25071322  1
  V  V50  1  -0.00125608  0.24655390  0.24286563  1
  V  V51  1  0.49570420  0.88808620  0.87731880  1
  V  V52  1  0.49569302  0.86219821  0.37738454  1
  V  V53  1  0.12470411  0.38979302  0.75151215  1
  V  V54  1  0.24670402  0.38152672  0.62575577  1
  V  V55  1  0.62903838  0.61423160  0.51235935  1
  V  V56  1  0.62661680  0.87547111  0.74906239  1
  V  V57  1  0.87489270  0.12617386  0.24309904  1
  V  V58  1  0.36226401  0.10940892  0.75482097  1
  V  V59  1  0.75253137  0.01191999  0.75142258  1
  V  V60  1  0.35869919  0.24694456  0.62550503  1
  V  V61  1  0.00498573  0.75647618  0.74967736  1
  V  V62  1  0.74693020  0.87751711  0.12728294  1
  V  V63  1  0.49242637  0.74090499  0.73516867  1
  V  V64  1  0.51381648  0.49086465  0.51141353  1
  V  V65  1  0.27150745  0.63107315  0.87695419  1
  V  V66  1  0.63228421  0.74542905  0.87218174  1
  V  V67  1  0.12890436  0.13278111  0.01295269  1
  V  V68  1  0.24829058  0.88974626  0.12776710  1
  V  V69  1  0.74927893  0.24450349  -0.00835959  1
  V  V70  1  0.74239469  0.50072895  0.73067678  1
  V  V71  1  0.12781077  0.73622728  0.38105577  1
  V  V72  1  0.38177780  0.25205502  0.11154465  1
  V  V73  1  0.62918355  0.24449723  0.38536115  1
  V  V74  1  0.49474275  0.25035595  0.75475126  1
  V  V75  1  0.87852015  0.87609455  0.00331658  1
  V  V76  1  0.61630898  0.74403816  0.37179957  1
  V  V77  1  0.35993604  0.87104987  0.50609341  1
  V  V78  1  0.12606958  0.88920268  0.24692292  1
  Zn  Zn79  1  0.24579921  0.72524969  0.50268732  1
  Zn  Zn80  1  0.60596165  0.87124856  0.23371141  1
  Zn  Zn81  1  0.88073882  0.24411770  0.11792675  1
  Zn  Zn82  1  0.73314720  0.00626245  0.24038003  1
  Zn  Zn83  1  0.62542603  0.38308725  0.74876652  1
  Zn  Zn84  1  0.38631740  0.75288800  0.12932646  1
  Zn  Zn85  1  0.39610763  0.63425695  0.24648130  1
  Zn  Zn86  1  0.16837239  0.56441964  0.56229201  1
  Zn  Zn87  1  -0.00113582  0.37259775  0.87145713  1
  Zn  Zn88  1  0.37363113  0.88817985  -0.00032111  1
  Zn  Zn89  1  0.24994476  0.12553097  0.37368262  1
  Zn  Zn90  1  0.25407294  0.74630884  0.01741497  1
  Zn  Zn91  1  0.86998882  0.63101317  0.75873890  1
  Zn  Zn92  1  0.87331897  0.87654327  0.49675102  1
  Zn  Zn93  1  -0.00411807  0.37290831  0.37802798  1
  Zn  Zn94  1  0.19274591  0.18482092  0.19441476  1
  Zn  Zn95  1  0.13434639  0.20465752  0.67444826  1
  Zn  Zn96  1  0.18816931  0.69739731  0.19619777  1
  Zn  Zn97  1  0.18935138  0.69779465  0.69200072  1
  Zn  Zn98  1  0.69002512  0.18611225  0.18722943  1
  Zn  Zn99  1  0.68575912  0.18977093  0.68841213  1
  Zn  Zn100  1  0.55549333  0.68572238  0.18490435  1
  Zn  Zn101  1  0.69086828  0.68311183  0.69169210  1
  Zn  Zn102  1  0.30927225  0.31533659  0.31043269  1
  Zn  Zn103  1  0.30723608  0.30926575  0.81364852  1
  Zn  Zn104  1  0.30554254  0.80517858  0.30832936  1
  Zn  Zn105  1  0.31780681  0.81083060  0.80993654  1
  Zn  Zn106  1  0.81458965  0.31650773  0.31470240  1
  Zn  Zn107  1  0.81011219  0.31803774  0.80996870  1
  Zn  Zn108  1  0.81298642  0.80108503  0.30680998  1
  Zn  Zn109  1  0.81604100  0.82097164  0.81512532  1
  Zn  Zn110  1  0.18777481  0.43465624  0.43519597  1
  Zn  Zn111  1  0.22708861  0.45425396  0.94785800  1
  Zn  Zn112  1  0.18117512  0.93706962  0.43383966  1
  Zn  Zn113  1  0.18607897  0.93955953  0.94283028  1
  Zn  Zn114  1  0.69440809  0.42990838  0.43550063  1
  Zn  Zn115  1  0.67906847  0.43515995  0.93441655  1
  Zn  Zn116  1  0.68320648  0.93657433  0.42867091  1
  Zn  Zn117  1  0.69213075  0.93474639  0.93375673  1
  Zn  Zn118  1  0.31242329  0.06051479  0.06345183  1
  Zn  Zn119  1  0.30503533  0.05798550  0.56448981  1
  Zn  Zn120  1  0.33762190  0.56578700  0.05763789  1
  Zn  Zn121  1  0.33513290  0.56427189  0.56765203  1
  Zn  Zn122  1  0.81102373  0.05993608  0.05892805  1
  Zn  Zn123  1  0.81720428  0.06859336  0.56231935  1
  Zn  Zn124  1  0.81042966  0.55694313  0.05984759  1
  Zn  Zn125  1  0.81785235  0.56285701  0.55990789  1
  Zn  Zn126  1  0.43381457  0.43679908  0.18649945  1
  Zn  Zn127  1  0.43821065  0.43373465  0.69259222  1
  Zn  Zn128  1  0.43513209  0.93200759  0.19012813  1
  Zn  Zn129  1  0.43589601  0.92889754  0.68900367  1
  Zn  Zn130  1  0.93570290  0.45594514  0.18021111  1
  Zn  Zn131  1  0.93289681  0.43556984  0.68850861  1
  Zn  Zn132  1  0.93697369  0.93475022  0.18963809  1
  Zn  Zn133  1  0.93888642  0.94253139  0.68761355  1
  Zn  Zn134  1  0.05689335  0.06624216  0.31480746  1
  Zn  Zn135  1  0.06178220  0.07101367  0.81914865  1
  Zn  Zn136  1  0.05815691  0.56021571  0.31335529  1
  Zn  Zn137  1  0.06021744  0.56376504  0.80852737  1
  Zn  Zn138  1  0.56052048  0.05627953  0.31043029  1
  Zn  Zn139  1  0.56448547  0.06743759  0.80940193  1
  Zn  Zn140  1  0.57085017  0.55096634  0.31775848  1
  Zn  Zn141  1  0.56164942  0.56355030  0.81047826  1
  Zn  Zn142  1  0.44039900  0.18824403  0.43783644  1
  Zn  Zn143  1  0.43727208  0.17611335  0.93923384  1
  Zn  Zn144  1  0.43515182  0.68034881  0.46883789  1
  Zn  Zn145  1  0.43829274  0.71273111  0.93690553  1
  Zn  Zn146  1  0.93976819  0.18753548  0.43262813  1
  Zn  Zn147  1  0.94718279  0.19306620  0.92881690  1
  Zn  Zn148  1  0.93849219  0.68421343  0.43636529  1
  Zn  Zn149  1  0.94342838  0.68882078  0.94046179  1
  Zn  Zn150  1  0.06594760  0.31423960  0.06099642  1
  Zn  Zn151  1  0.03947490  0.30772644  0.56193804  1
  Zn  Zn152  1  0.06673631  0.81531974  0.06263085  1
  Zn  Zn153  1  0.06378916  0.81662824  0.56045481  1
  Zn  Zn154  1  0.55720884  0.30890600  0.06124268  1
  Zn  Zn155  1  0.55907245  0.30434245  0.56187575  1
  Zn  Zn156  1  0.56666347  0.81369322  0.05415573  1
  Zn  Zn157  1  0.56505934  0.81308284  0.55425406  1
  O  O158  1  0.13212640  0.13284460  0.11192211  1
  O  O159  1  0.13274789  0.10701332  0.61444609  1
  O  O160  1  0.13927615  0.60905045  0.12716832  1
  O  O161  1  0.10951824  0.63235013  0.63279463  1
  O  O162  1  0.61294913  0.12742125  0.12013775  1
  O  O163  1  0.61025229  0.11491657  0.63346717  1
  O  O164  1  0.61989665  0.61774485  0.10655310  1
  O  O165  1  0.63456653  0.62259004  0.61132211  1
  O  O166  1  0.38221365  0.37458360  0.38128650  1
  O  O167  1  0.38635217  0.37044817  0.86726682  1
  O  O168  1  0.37491691  0.88621029  0.38458956  1
  O  O169  1  0.39247850  0.87222074  0.87113062  1
  O  O170  1  0.87560246  0.37801115  0.39269503  1
  O  O171  1  0.87799667  0.38548277  0.88584219  1
  O  O172  1  0.88009258  0.88194687  0.37204223  1
  O  O173  1  0.88654583  0.88812411  0.88325887  1
  O  O174  1  0.26431540  0.00191013  0.37878077  1
  O  O175  1  0.23900394  0.01385261  0.87238679  1
  O  O176  1  0.26013370  0.48931354  0.36332885  1
  O  O177  1  0.25218569  0.52240961  0.85763987  1
  O  O178  1  0.76009624  0.00521806  0.37528520  1
  O  O179  1  0.76247586  -0.00558488  0.86183276  1
  O  O180  1  0.75617359  0.50321803  0.36515657  1
  O  O181  1  0.76526509  0.50288804  0.89064179  1
  O  O182  1  0.24090398  0.48365168  0.13894025  1
  O  O183  1  0.25399836  0.49875458  0.63265647  1
  O  O184  1  0.24695819  0.99082147  0.12993162  1
  O  O185  1  0.23547724  0.98891896  0.62553192  1
  O  O186  1  0.72977962  0.48380336  0.11527628  1
  O  O187  1  0.75845033  0.49620231  0.63253430  1
  O  O188  1  0.75636609  0.98439371  0.12542714  1
  O  O189  1  0.74294377  0.99879108  0.62809634  1
  O  O190  1  0.01140193  0.37105024  0.24886479  1
  O  O191  1  0.02080678  0.39043502  0.75408530  1
  O  O192  1  0.00674026  0.86984532  0.25685469  1
  O  O193  1  -0.00781730  0.86855490  0.76065061  1
  O  O194  1  0.51069726  0.38197956  0.25851043  1
  O  O195  1  0.50468222  0.36012318  0.75233545  1
  O  O196  1  0.49301462  0.87619743  0.27443968  1
  O  O197  1  0.51304932  0.87009896  0.75362888  1
  O  O198  1  0.49117903  0.12055778  0.23942927  1
  O  O199  1  0.48567044  0.12958722  0.74383696  1
  O  O200  1  0.50631068  0.60659615  0.24701170  1
  O  O201  1  0.51074688  0.64228612  0.74851414  1
  O  O202  1  0.98742581  0.13420331  0.25417721  1
  O  O203  1  0.98837595  0.12610564  0.75200955  1
  O  O204  1  1.00417405  0.63175415  0.24319347  1
  O  O205  1  0.99268202  0.63591732  0.74290633  1
  O  O206  1  0.37239490  0.23893121  0.01393926  1
  O  O207  1  0.37954985  0.25805059  0.51021057  1
  O  O208  1  0.37126378  0.77130107  0.00714394  1
  O  O209  1  0.36071114  0.77063226  0.48884653  1
  O  O210  1  0.86992231  0.25628932  -0.00400866  1
  O  O211  1  0.88235062  0.25743911  0.49962585  1
  O  O212  1  0.86802599  0.76219927  -0.01424505  1
  O  O213  1  0.86922455  0.75205447  0.50821971  1
  O  O214  1  0.11312986  0.23984528  0.48798072  1
  O  O215  1  0.12400014  0.23920533  0.99269658  1
  O  O216  1  0.12210407  0.75317981  0.48585318  1
  O  O217  1  0.12835266  0.75439242  0.98387303  1
  O  O218  1  0.62467997  0.24803636  0.48438328  1
  O  O219  1  0.63074329  0.24379240  0.99502574  1
  O  O220  1  0.63230300  0.73569649  0.49577989  1
  O  O221  1  0.63750382  0.73759829  0.99249673  1
  O  O222  1  0.48554470  0.24458443  0.12651572  1
  O  O223  1  0.48819366  0.23980720  0.63288725  1
  O  O224  1  0.50427746  0.77315026  0.13603705  1
  O  O225  1  0.51162994  0.75978236  0.63701621  1
  O  O226  1  0.99857789  0.25588281  0.13750394  1
  O  O227  1  1.03275835  0.23966996  0.64367654  1
  O  O228  1  1.00583133  0.75064593  0.13342039  1
  O  O229  1  0.99389855  0.74981305  0.63074030  1
  O  O230  1  0.00970246  0.25251946  0.36085575  1
  O  O231  1  0.02549573  0.25862277  0.87693516  1
  O  O232  1  0.00448168  0.75718997  0.37252637  1
  O  O233  1  0.00882744  0.75836537  0.87090369  1
  O  O234  1  0.51240092  0.25655912  0.37568548  1
  O  O235  1  0.49960167  0.25199328  0.87085288  1
  O  O236  1  0.50369064  0.75138964  0.39683094  1
  O  O237  1  0.51694663  0.76228598  0.86127257  1
  O  O238  1  0.23663260  0.12152939  0.49505163  1
  O  O239  1  0.23658294  0.11889645  0.99025004  1
  O  O240  1  0.25149792  0.61292034  0.50681194  1
  O  O241  1  0.25600265  0.63330514  0.97843850  1
  O  O242  1  0.75122130  0.12179925  0.48439887  1
  O  O243  1  0.73563708  0.13520933  1.00985839  1
  O  O244  1  0.74643960  0.62682216  0.49099334  1
  O  O245  1  0.76006203  0.63932462  1.00210621  1
  O  O246  1  0.23643883  0.36162209  0.01992013  1
  O  O247  1  0.26174386  0.38427113  0.51109518  1
  O  O248  1  0.24242664  0.87625862  0.01776939  1
  O  O249  1  0.25655660  0.88391211  0.50404448  1
  O  O250  1  0.75564352  0.36668776  0.00234534  1
  O  O251  1  0.76338005  0.37154106  0.50141782  1
  O  O252  1  0.76071441  0.87354172  0.00378051  1
  O  O253  1  0.74890464  0.86772856  0.50457471  1
  O  O254  1  0.13052572  0.49205121  0.24383209  1
  O  O255  1  0.13898088  0.49417728  0.75447595  1
  O  O256  1  0.11739830  0.98869693  0.25685831  1
  O  O257  1  0.11631374  1.00550999  0.73849662  1
  O  O258  1  0.63957677  0.48866717  0.23716441  1
  O  O259  1  0.63731842  0.50306519  0.74560909  1
  O  O260  1  0.63018118  0.97633678  0.27440727  1
  O  O261  1  0.63292811  0.99592333  0.74145050  1
  O  O262  1  0.37985944  0.00596435  0.26637481  1
  O  O263  1  0.37495517  0.01124668  0.74494310  1
  O  O264  1  0.36299545  0.49662449  0.25714374  1
  O  O265  1  0.36772300  0.50761315  0.74213631  1
  O  O266  1  0.87619577  0.00765360  0.25932176  1
  O  O267  1  0.87036337  0.01075778  0.75318747  1
  O  O268  1  0.87416641  0.47173833  0.27706378  1
  O  O269  1  0.86797076  0.49651357  0.76761002  1
  O  O270  1  0.12264593  0.36687030  0.36664116  1
  O  O271  1  0.14272137  0.37355824  0.87041433  1
  O  O272  1  0.11379809  0.87105660  0.36587427  1
  O  O273  1  0.11525843  0.87007812  0.87756558  1
  O  O274  1  0.62193054  0.36414253  0.36669039  1
  O  O275  1  0.61108430  0.36211722  0.87326408  1
  O  O276  1  0.60863107  0.85696914  0.39340542  1
  O  O277  1  0.62317922  0.87136789  0.86306048  1
  O  O278  1  0.38259241  0.13278454  0.13580171  1
  O  O279  1  0.37383070  0.12810052  0.63480230  1
  O  O280  1  0.36719004  0.63567282  0.13208816  1
  O  O281  1  0.40605436  0.64785741  0.57715268  1
  O  O282  1  0.86531290  0.12624344  0.13818331  1
  O  O283  1  0.87491142  0.12988083  0.63656410  1
  O  O284  1  0.84554246  0.54842707  0.16757399  1
  O  O285  1  0.88221658  0.64043630  0.62631582  1
  O  O286  1  0.26403779  0.25690748  0.13616900  1
  O  O287  1  0.25563334  0.25989790  0.63322437  1
  O  O288  1  0.24385008  0.76855338  0.12991378  1
  O  O289  1  0.23647635  0.76894075  0.61577837  1
  O  O290  1  0.75196140  0.25973239  0.11380828  1
  O  O291  1  0.70844409  0.28708551  0.63188950  1
  O  O292  1  0.75704723  0.76424929  0.10223248  1
  O  O293  1  0.75782791  0.75519406  0.62113295  1
  O  O294  1  0.23531908  0.24854644  0.37037181  1
  O  O295  1  0.24217912  0.24020611  0.88011778  1
  O  O296  1  0.23087625  0.75391562  0.37836704  1
  O  O297  1  0.23680250  0.74276710  0.86143886  1
  O  O298  1  0.73736386  0.24448578  0.36883680  1
  O  O299  1  0.73666820  0.25566183  0.88478179  1
  O  O300  1  0.74277468  0.74104746  0.37932763  1
  O  O301  1  0.74090346  0.76242991  0.88438136  1
  O  O302  1  0.01062032  0.11846373  -0.00283038  1
  O  O303  1  0.00927379  0.11235757  0.49070408  1
  O  O304  1  0.00257736  0.61057982  0.00197540  1
  O  O305  1  -0.00550949  0.61462534  0.51119367  1
  O  O306  1  0.51069653  0.12517047  0.01533844  1
  O  O307  1  0.48943548  0.11512103  0.51516091  1
  O  O308  1  0.50626852  0.63238505  -0.00683273  1
  O  O309  1  0.51616742  0.59699967  0.49479914  1
  O  O310  1  0.49628879  0.37441870  0.49120575  1
  O  O311  1  0.49770118  0.37308832  0.98768405  1
  O  O312  1  0.48340448  0.88238529  0.49891741  1
  O  O313  1  0.51011714  0.87636020  0.97838951  1
  O  O314  1  0.98961565  0.38492805  0.49991499  1
  O  O315  1  0.99273935  0.38223029  1.00044170  1
  O  O316  1  0.99807548  0.88418884  0.48718598  1
  O  O317  1  0.99822928  0.88855477  0.99318511  1
  O  O318  1  0.49661677  0.48117745  0.38314589  1
  O  O319  1  0.50354454  0.48307312  0.86558224  1
  O  O320  1  0.49087540  0.99239822  0.38791392  1
  O  O321  1  0.50571828  0.98735369  0.86310308  1
  O  O322  1  0.99132561  0.49946966  0.38654923  1
  O  O323  1  1.00220705  0.49572806  0.88848652  1
  O  O324  1  0.98926764  0.99207641  0.38000093  1
  O  O325  1  0.99496595  0.99640037  0.88082191  1
  O  O326  1  -0.00462006  -0.00011598  0.11066240  1
  O  O327  1  0.01316019  -0.01032426  0.61239992  1
  O  O328  1  0.02000589  0.49512825  0.11334123  1
  O  O329  1  -0.00937089  0.51289890  0.61975143  1
  O  O330  1  0.49836421  0.00939444  0.12909070  1
  O  O331  1  0.50409018  0.00349128  0.62079075  1
  O  O332  1  0.51074953  0.48630927  0.11935518  1
  O  O333  1  0.50619378  0.47864659  0.61032600  1
  O  O334  1  0.23846819  0.37994994  0.24536524  1
  O  O335  1  0.25128921  0.39336658  0.74421246  1
  O  O336  1  0.23259617  0.87672037  0.24775677  1
  O  O337  1  0.25187828  0.87190895  0.73735950  1
  O  O338  1  0.74930742  0.38451462  0.23524179  1
  O  O339  1  0.74519486  0.39725897  0.76361093  1
  O  O340  1  0.75829286  0.86792361  0.23041223  1
  O  O341  1  0.74494220  0.88653525  0.74208279  1
  O  O342  1  0.27091321  0.12333475  0.25260820  1
  O  O343  1  0.25871818  0.12493746  0.76056580  1
  O  O344  1  0.24383567  0.60591608  0.25165844  1
  O  O345  1  0.25123040  0.62038545  0.74934317  1
  O  O346  1  0.75673170  0.12237475  0.25876278  1
  O  O347  1  0.75548397  0.11608683  0.74437551  1
  O  O348  1  0.74098805  0.61406725  0.26316371  1
  O  O349  1  0.75596409  0.60812371  0.74996014  1
  O  O350  1  0.38038924  0.11663712  0.36779613  1
  O  O351  1  0.36272651  0.12641463  0.86540733  1
  O  O352  1  0.38540389  0.60547388  0.38130031  1
  O  O353  1  0.36929426  0.64350973  0.86962488  1
  O  O354  1  0.86680678  0.11885150  0.36634593  1
  O  O355  1  0.88031829  0.11569628  0.87014856  1
  O  O356  1  0.86382391  0.61152955  0.38195490  1
  O  O357  1  0.88510431  0.61032775  0.87745945  1
  O  O358  1  0.13568614  0.37313062  0.13511802  1
  O  O359  1  0.13958022  0.37469436  0.64125437  1
  O  O360  1  0.12747901  0.87800585  0.14019886  1
  O  O361  1  0.13239546  0.88769365  0.62271582  1
  O  O362  1  0.62909069  0.37571793  0.12645215  1
  O  O363  1  0.64274110  0.33798620  0.63687131  1
  O  O364  1  0.64295653  0.87304915  0.12048916  1
  O  O365  1  0.63018206  0.88610037  0.63079657  1
  O  O366  1  0.11885758  0.25287416  0.25554667  1
  O  O367  1  0.14086118  0.27261003  0.76578949  1
  O  O368  1  0.11127966  0.75769979  0.26335159  1
  O  O369  1  0.11058069  0.75300786  0.75975410  1
  O  O370  1  0.63255038  0.26651610  0.24988385  1
  O  O371  1  0.60886776  0.23572903  0.76605107  1
  O  O372  1  0.61893765  0.75434415  0.26982215  1
  O  O373  1  0.63136694  0.76075105  0.75449753  1
  O  O374  1  0.37977871  0.23907150  0.25419168  1
  O  O375  1  0.37898273  0.24136147  0.74234339  1
  O  O376  1  0.37633892  0.74606366  0.25062334  1
  O  O377  1  0.39300916  0.75465495  0.74474145  1
  O  O378  1  0.88109544  0.24458408  0.24903615  1
  O  O379  1  0.86942211  0.23726348  0.76105914  1
  O  O380  1  0.89510261  0.74841411  0.25153319  1
  O  O381  1  0.88157083  0.75277086  0.74356309  1
  O  O382  1  0.39140789  0.48304124  0.49484929  1
  O  O383  1  0.32987711  0.48108519  0.99330852  1
  O  O384  1  0.37973977  0.99546482  0.49374120  1
  O  O385  1  0.37803477  0.99989357  0.99901506  1
  O  O386  1  0.88186396  0.49040878  0.49517603  1
  O  O387  1  0.88969078  0.49521939  0.99413308  1
  O  O388  1  0.88290478  1.00033270  0.49079091  1
  O  O389  1  0.88590976  0.99955109  0.99143038  1
  O  O390  1  0.11186621  0.01382075  -0.00294493  1
  O  O391  1  0.11627698  0.00801641  0.49798563  1
  O  O392  1  0.12445269  0.49580925  0.00991253  1
  O  O393  1  0.10964964  0.48961478  0.49942739  1
  O  O394  1  0.63321416  0.01363701  -0.00446072  1
  O  O395  1  0.61204561  -0.00673605  0.50984057  1
  O  O396  1  0.62598950  0.51576448  0.00000304  1
  O  O397  1  0.62042786  0.49497721  0.49619428  1
  O  O398  1  0.36487462  0.36180216  0.13012519  1
  O  O399  1  0.36742135  0.36634157  0.62036092  1
  O  O400  1  0.35624923  0.87675041  0.13231181  1
  O  O401  1  0.35922738  0.88349992  0.61406613  1
  O  O402  1  0.86560165  0.37912873  0.11192683  1
  O  O403  1  0.87962860  0.37024255  0.61508991  1
  O  O404  1  0.87301825  0.87865484  0.10857950  1
  O  O405  1  0.87062491  0.86737753  0.62334610  1
  O  O406  1  0.12730472  0.13119316  0.37929122  1
  O  O407  1  0.13624871  0.13851486  0.87607939  1
  O  O408  1  0.11973624  0.63637724  0.37427038  1
  O  O409  1  0.12358723  0.63954617  0.87230344  1
  O  O410  1  0.62883839  0.13859725  0.36484403  1
  O  O411  1  0.61319602  0.13376743  0.89267711  1
  O  O412  1  0.63400965  0.62594860  0.38601135  1
  O  O413  1  0.62418404  0.63456199  0.88576150  1
