# generated using pymatgen
data_V79Zn79O256
_symmetry_space_group_name_H-M   'P 1'
_cell_length_a   16.90584872
_cell_length_b   16.90405186
_cell_length_c   16.89889178
_cell_angle_alpha   90.19359241
_cell_angle_beta   90.01819308
_cell_angle_gamma   89.99299322
_symmetry_Int_Tables_number   1
_chemical_formula_structural   V79Zn79O256
_chemical_formula_sum   'V79 Zn79 O256'
_cell_volume   4829.29255694
_cell_formula_units_Z   1
loop_
 _symmetry_equiv_pos_site_id
 _symmetry_equiv_pos_as_xyz
  1  'x, y, z'
loop_
 _atom_site_type_symbol
 _atom_site_label
 _atom_site_symmetry_multiplicity
 _atom_site_fract_x
 _atom_site_fract_y
 _atom_site_fract_z
 _atom_site_occupancy
  V  V0  1  0.74073447  0.37484373  0.14208871  1
  V  V1  1  0.13424445  0.00051010  0.63473977  1
  V  V2  1  0.37130748  0.63148761  0.74892610  1
  V  V3  1  0.00259698  0.12133758  0.12252122  1
  V  V4  1  0.85318885  0.62424317  0.25806573  1
  V  V5  1  0.37525292  0.87945180  0.00812259  1
  V  V6  1  0.24364135  0.75825803  0.00621835  1
  V  V7  1  0.49534117  0.24698870  0.24717765  1
  V  V8  1  0.37398605  -0.00786372  0.86599612  1
  V  V9  1  0.13181403  0.13435971  -0.00026993  1
  V  V10  1  0.24690193  0.48929059  0.24551674  1
  V  V11  1  0.62691570  0.13765265  -0.00906118  1
  V  V12  1  0.26027012  0.00756020  0.26329059  1
  V  V13  1  0.87597368  -0.00802186  0.87412728  1
  V  V14  1  0.50006170  0.62863902  0.62423854  1
  V  V15  1  0.61923790  0.37360437  0.75995226  1
  V  V16  1  0.86413590  0.49627583  0.37360322  1
  V  V17  1  0.62046622  0.88307374  0.27134564  1
  V  V18  1  0.74910632  0.88382622  0.62590370  1
  V  V19  1  0.74994808  0.13886424  0.87687556  1
  V  V20  1  0.01125137  0.25243655  0.25123086  1
  V  V21  1  0.00888913  0.73750233  0.25190171  1
  V  V22  1  0.00651722  0.37546138  0.87244125  1
  V  V23  1  0.62383479  0.50457346  0.62194532  1
  V  V24  1  0.10991444  0.87283649  0.75772057  1
  V  V25  1  0.13570554  0.12336111  0.48767022  1
  V  V26  1  0.75263936  0.37551318  0.62150706  1
  V  V27  1  0.74928399  0.50031279  0.74909027  1
  V  V28  1  0.25013688  0.25293259  0.48966796  1
  V  V29  1  0.13434417  -0.00550794  0.12285316  1
  V  V30  1  0.74946772  0.73795768  0.49404143  1
  V  V31  1  0.01226020  0.25542699  0.74902560  1
  V  V32  1  0.49876408  0.50019250  0.50172929  1
  V  V33  1  0.75204112  0.12181043  0.36918781  1
  V  V34  1  0.63528878  -0.00282286  0.12376620  1
  V  V35  1  0.38923229  0.50009189  0.88373717  1
  V  V36  1  0.13287210  0.87280871  0.24701375  1
  V  V37  1  0.37423641  0.26642262  0.62534331  1
  V  V38  1  0.40649859  0.87964600  0.47037593  1
  V  V39  1  0.49541342  0.12030053  0.12406977  1
  V  V40  1  0.61780518  0.88183150  0.74770976  1
  V  V41  1  0.50241014  0.37476236  0.36995597  1
  V  V42  1  0.75230420  0.25179180  0.49955456  1
  V  V43  1  0.87397974  -0.00006285  0.36582673  1
  V  V44  1  0.38392859  0.36690492  0.00237316  1
  V  V45  1  0.61422207  0.72482972  0.38467728  1
  V  V46  1  0.00284121  0.12624702  0.62546154  1
  V  V47  1  0.74923916  0.62955126  0.88282406  1
  V  V48  1  0.62635870  0.25275731  0.37094683  1
  V  V49  1  0.11451702  0.49579685  0.12862991  1
  V  V50  1  0.12940114  0.63532425  0.49808810  1
  V  V51  1  0.86638296  0.36695664  -0.00137827  1
  V  V52  1  0.87680973  0.75002986  0.62798574  1
  V  V53  1  0.12715215  0.48855390  0.62726553  1
  V  V54  1  0.24733881  0.63777297  0.37499862  1
  V  V55  1  0.00151476  0.62647905  0.62467870  1
  V  V56  1  0.61672386  0.11620526  0.51427452  1
  V  V57  1  0.87314562  0.87101840  0.00367600  1
  V  V58  1  0.36975148  0.49699151  0.37444701  1
  V  V59  1  0.25334553  0.12989853  0.87546520  1
  V  V60  1  0.87930341  0.62804589  0.75028095  1
  V  V61  1  0.87057666  0.24792960  0.12329106  1
  V  V62  1  0.24844351  0.85990217  0.62670891  1
  V  V63  1  0.87852160  0.25523465  0.62110424  1
  V  V64  1  0.24379112  0.62787646  0.87538881  1
  V  V65  1  0.11547537  0.62525442  0.00781607  1
  V  V66  1  0.87594642  0.87530666  0.49828531  1
  V  V67  1  -0.00120222  0.49295886  0.49741486  1
  V  V68  1  0.38497456  0.73874520  0.12336933  1
  V  V69  1  0.87576059  0.49902343  0.88016563  1
  V  V70  1  0.50092068  0.25289465  0.75880074  1
  V  V71  1  0.00827962  0.87000977  0.37396849  1
  V  V72  1  0.00249563  0.00110504  0.49879905  1
  V  V73  1  0.24399461  0.48928872  0.74853126  1
  V  V74  1  0.37251775  0.11846938  0.73639338  1
  V  V75  1  0.87167737  0.74561547  0.13084893  1
  V  V76  1  0.01153160  0.37289899  0.36841064  1
  V  V77  1  0.10434101  0.75339963  0.87550766  1
  V  V78  1  0.62430166  0.75323288  0.87591518  1
  Zn  Zn79  1  0.74549495  0.00456946  0.74830768  1
  Zn  Zn80  1  0.71607602  0.72740094  0.03781837  1
  Zn  Zn81  1  0.87174813  0.12210934  0.24496085  1
  Zn  Zn82  1  0.00748192  -0.00945873  -0.00992450  1
  Zn  Zn83  1  0.51001124  -0.00659530  -0.01306935  1
  Zn  Zn84  1  0.38281085  0.62728276  0.24461173  1
  Zn  Zn85  1  0.36947812  0.75050132  0.60872982  1
  Zn  Zn86  1  0.13550145  0.25896115  0.87612774  1
  Zn  Zn87  1  0.36610775  0.37784345  0.50145416  1
  Zn  Zn88  1  -0.00563878  0.50077627  0.00836773  1
  Zn  Zn89  1  0.24004835  0.35711198  0.10804370  1
  Zn  Zn90  1  0.49621738  0.75691617  0.74993555  1
  Zn  Zn91  1  0.87462124  0.12508646  0.75192080  1
  Zn  Zn92  1  0.36801999  0.24179438  0.12215358  1
  Zn  Zn93  1  0.75799916  0.88635360  0.13845649  1
  Zn  Zn94  1  0.19133991  0.18132507  0.19293156  1
  Zn  Zn95  1  0.19493631  0.19045436  0.68314366  1
  Zn  Zn96  1  0.19308975  0.68205191  0.18880272  1
  Zn  Zn97  1  0.17917589  0.68658916  0.69254464  1
  Zn  Zn98  1  0.68320958  0.18872639  0.18397019  1
  Zn  Zn99  1  0.68787947  0.18983757  0.69296426  1
  Zn  Zn100  1  0.66684753  0.69535983  0.20559077  1
  Zn  Zn101  1  0.68999768  0.69252928  0.69011784  1
  Zn  Zn102  1  0.30730880  0.30334277  0.30470504  1
  Zn  Zn103  1  0.31871019  0.31372156  0.81898400  1
  Zn  Zn104  1  0.32415231  0.81944412  0.30803431  1
  Zn  Zn105  1  0.29634307  0.81719384  0.80784665  1
  Zn  Zn106  1  0.82094042  0.31094794  0.31147732  1
  Zn  Zn107  1  0.81689018  0.31389967  0.80519454  1
  Zn  Zn108  1  0.80692315  0.81562739  0.31042636  1
  Zn  Zn109  1  0.80833388  0.81416775  0.81157190  1
  Zn  Zn110  1  0.18473512  0.44012798  0.43764514  1
  Zn  Zn111  1  0.19262371  0.43994801  0.94212796  1
  Zn  Zn112  1  0.19405096  0.93374068  0.44081126  1
  Zn  Zn113  1  0.19103930  0.94281323  0.93200202  1
  Zn  Zn114  1  0.68345377  0.43728729  0.43870650  1
  Zn  Zn115  1  0.69386276  0.43415794  0.93679007  1
  Zn  Zn116  1  0.69075968  0.93996499  0.44514158  1
  Zn  Zn117  1  0.69457265  0.93766527  0.93811153  1
  Zn  Zn118  1  0.30837888  0.05943835  0.06094186  1
  Zn  Zn119  1  0.31566431  0.05232410  0.55516084  1
  Zn  Zn120  1  0.30476764  0.55961260  0.05882220  1
  Zn  Zn121  1  0.30939966  0.56386231  0.56288040  1
  Zn  Zn122  1  0.81382049  0.06505579  0.05356275  1
  Zn  Zn123  1  0.81381876  0.06602160  0.55632141  1
  Zn  Zn124  1  0.75850750  0.58070925  0.10034593  1
  Zn  Zn125  1  0.81512336  0.55907591  0.55929986  1
  Zn  Zn126  1  0.43282577  0.43222699  0.19050775  1
  Zn  Zn127  1  0.43542678  0.44166249  0.69467721  1
  Zn  Zn128  1  0.44336605  0.93503961  0.19081676  1
  Zn  Zn129  1  0.43760896  0.93894128  0.67102958  1
  Zn  Zn130  1  0.92743808  0.43725317  0.19093241  1
  Zn  Zn131  1  0.93948993  0.43919804  0.68927205  1
  Zn  Zn132  1  0.94618471  0.93327233  0.18661303  1
  Zn  Zn133  1  0.93724116  0.94002568  0.68859883  1
  Zn  Zn134  1  0.06407527  0.05882302  0.30713146  1
  Zn  Zn135  1  0.06319890  0.06599332  0.81338036  1
  Zn  Zn136  1  0.06600851  0.55952386  0.31601485  1
  Zn  Zn137  1  0.06228985  0.56227565  0.81370232  1
  Zn  Zn138  1  0.57002839  0.06850319  0.31018739  1
  Zn  Zn139  1  0.55448497  0.06374740  0.80293468  1
  Zn  Zn140  1  0.54986942  0.57230597  0.31697082  1
  Zn  Zn141  1  0.56592597  0.56869274  0.80861478  1
  Zn  Zn142  1  0.44202480  0.18963445  0.44450535  1
  Zn  Zn143  1  0.43902110  0.18409368  0.93538298  1
  Zn  Zn144  1  0.42493930  0.68894852  0.44255267  1
  Zn  Zn145  1  0.42498500  0.70579046  0.92146100  1
  Zn  Zn146  1  0.94004847  0.18732093  0.43704714  1
  Zn  Zn147  1  0.94142187  0.18545478  0.93639378  1
  Zn  Zn148  1  0.93825595  0.68439319  0.43660615  1
  Zn  Zn149  1  0.93003357  0.68523989  0.94654389  1
  Zn  Zn150  1  0.05529125  0.31499881  0.06037737  1
  Zn  Zn151  1  0.06627491  0.30978475  0.55448670  1
  Zn  Zn152  1  0.05387472  0.81101117  0.06648533  1
  Zn  Zn153  1  0.06316130  0.81567274  0.56511350  1
  Zn  Zn154  1  0.55819147  0.31491660  0.05788461  1
  Zn  Zn155  1  0.56116370  0.31012033  0.56407780  1
  Zn  Zn156  1  0.55657543  0.81830117  0.06030108  1
  Zn  Zn157  1  0.56553372  0.81405521  0.56243716  1
  O  O158  1  0.12108128  0.11772171  0.11817049  1
  O  O159  1  0.11822328  0.11904255  0.62390431  1
  O  O160  1  0.13116564  0.61244107  0.11680747  1
  O  O161  1  0.11641903  0.61654756  0.62044875  1
  O  O162  1  0.62076442  0.11885286  0.11108644  1
  O  O163  1  0.63688069  0.13182095  0.61225992  1
  O  O164  1  0.66510096  0.64571643  0.10919118  1
  O  O165  1  0.61599476  0.61388795  0.63515758  1
  O  O166  1  0.38153247  0.38457258  0.37474161  1
  O  O167  1  0.37502658  0.39305497  0.88281728  1
  O  O168  1  0.40099672  0.87419225  0.36866703  1
  O  O169  1  0.36627564  0.88820423  0.87163276  1
  O  O170  1  0.88700191  0.39145964  0.36671726  1
  O  O171  1  0.88032777  0.38007427  0.87809578  1
  O  O172  1  0.88325753  0.88151236  0.37819720  1
  O  O173  1  0.86926734  0.88582393  0.88067997  1
  O  O174  1  0.25138985  -0.01030718  0.36308585  1
  O  O175  1  0.26303675  0.01417506  0.87446161  1
  O  O176  1  0.25433925  0.50269802  0.36622579  1
  O  O177  1  0.24869285  0.51298628  0.86506374  1
  O  O178  1  0.76365741  0.01030308  0.38368255  1
  O  O179  1  0.76307017  0.00925922  0.87360947  1
  O  O180  1  0.76524091  0.49404590  0.38561765  1
  O  O181  1  0.75691273  0.50749966  0.86895477  1
  O  O182  1  0.24490323  0.49821008  0.13820813  1
  O  O183  1  0.24342440  0.50545128  0.63961629  1
  O  O184  1  0.23776545  1.00232942  0.13263461  1
  O  O185  1  0.23639699  0.99503527  0.62668209  1
  O  O186  1  0.75260809  0.47359100  0.12407372  1
  O  O187  1  0.74421176  0.49463270  0.62600914  1
  O  O188  1  0.73849768  1.00835518  0.12285277  1
  O  O189  1  0.76283261  0.98798531  0.62517581  1
  O  O190  1  -0.00242301  0.36426625  0.25585093  1
  O  O191  1  -0.00457807  0.36763929  0.75965016  1
  O  O192  1  0.01000208  0.86606075  0.25850089  1
  O  O193  1  0.00971139  0.87186668  0.74547195  1
  O  O194  1  0.49788062  0.36687292  0.26233225  1
  O  O195  1  0.50547319  0.36551397  0.74387120  1
  O  O196  1  0.52506778  0.87180397  0.23542779  1
  O  O197  1  0.51383505  0.87374706  0.73927621  1
  O  O198  1  0.50795286  0.12943553  0.23030793  1
  O  O199  1  0.48433504  0.14160066  0.75206572  1
  O  O200  1  0.49485026  0.61664657  0.23403354  1
  O  O201  1  0.48781607  0.62291318  0.73831657  1
  O  O202  1  1.00080260  0.13394304  0.24081107  1
  O  O203  1  0.99925987  0.13541330  0.73972899  1
  O  O204  1  1.00258135  0.63677803  0.25732633  1
  O  O205  1  0.98989256  0.61704679  0.73818041  1
  O  O206  1  0.37994655  0.26250069  -0.00163547  1
  O  O207  1  0.36817261  0.25047629  0.50946461  1
  O  O208  1  0.36469811  0.75956947  0.00144825  1
  O  O209  1  0.37697728  0.77753321  0.49687708  1
  O  O210  1  0.88672009  0.25633044  0.01154657  1
  O  O211  1  0.86770015  0.24676756  0.51069257  1
  O  O212  1  0.87542289  0.75319771  0.01832123  1
  O  O213  1  0.86802514  0.75292315  0.50706954  1
  O  O214  1  0.13899295  0.23536646  0.50438003  1
  O  O215  1  0.11994142  0.23866673  0.99948289  1
  O  O216  1  0.11815297  0.73428350  0.50530755  1
  O  O217  1  0.12542651  0.74645357  0.99692557  1
  O  O218  1  0.63451532  0.24582101  0.49185134  1
  O  O219  1  0.61956984  0.23616086  0.99491696  1
  O  O220  1  0.63884659  0.75420081  0.49111042  1
  O  O221  1  0.62510226  0.76663975  0.98068910  1
  O  O222  1  0.50024992  0.23834408  0.13024573  1
  O  O223  1  0.48112197  0.25321823  0.62794593  1
  O  O224  1  0.48414450  0.74680865  0.10977304  1
  O  O225  1  0.49807197  0.73823970  0.62471166  1
  O  O226  1  0.99573253  0.24358449  0.13469972  1
  O  O227  1  0.99748900  0.24748154  0.62699259  1
  O  O228  1  0.98669093  0.75191490  0.14485928  1
  O  O229  1  0.98818574  0.73751353  0.61666536  1
  O  O230  1  -0.00722305  0.26177511  0.36469230  1
  O  O231  1  0.00097658  0.25732395  0.86479179  1
  O  O232  1  -0.00534526  0.75866304  0.36411480  1
  O  O233  1  0.00542375  0.74670107  0.88189831  1
  O  O234  1  0.50628564  0.25615521  0.37095429  1
  O  O235  1  0.49028219  0.25520749  0.85778019  1
  O  O236  1  0.51525439  0.73363874  0.38846414  1
  O  O237  1  0.51746347  0.73892799  0.86934711  1
  O  O238  1  0.24055166  0.12707675  0.50273646  1
  O  O239  1  0.24163520  0.12345483  0.99231422  1
  O  O240  1  0.24452298  0.62078999  0.48639987  1
  O  O241  1  0.23700197  0.63215198  0.99063877  1
  O  O242  1  0.74676386  0.13709338  0.49111470  1
  O  O243  1  0.73891482  0.12705707  0.98848806  1
  O  O244  1  0.75261091  0.63905596  0.50748293  1
  O  O245  1  0.76146065  0.62574840  0.98444406  1
  O  O246  1  0.27111978  0.38614214  0.00046872  1
  O  O247  1  0.24584067  0.35856831  0.49395932  1
  O  O248  1  0.25922459  0.86665398  -0.00972662  1
  O  O249  1  0.22967835  0.87092766  0.52672025  1
  O  O250  1  0.76316263  0.37020478  0.00030888  1
  O  O251  1  0.74351366  0.36465126  0.51124672  1
  O  O252  1  0.76513334  0.87337089  0.00704324  1
  O  O253  1  0.75720997  0.86741022  0.50814338  1
  O  O254  1  0.13453998  0.50573037  0.23829429  1
  O  O255  1  0.13612205  0.50490075  0.74399974  1
  O  O256  1  0.13356194  0.99110340  0.24309068  1
  O  O257  1  0.11594040  0.98841881  0.74529635  1
  O  O258  1  0.59251415  0.49629902  0.20288216  1
  O  O259  1  0.62847583  0.49334003  0.74020379  1
  O  O260  1  0.62123368  0.99588457  0.23475409  1
  O  O261  1  0.62636447  0.98587917  0.75752649  1
  O  O262  1  0.35719208  -0.01209936  0.23862337  1
  O  O263  1  0.37610892  0.01142235  0.75706476  1
  O  O264  1  0.36266510  0.50080559  0.25646587  1
  O  O265  1  0.36247669  0.51086750  0.75858672  1
  O  O266  1  0.88362675  0.00088651  0.26167579  1
  O  O267  1  0.87287237  0.00294209  0.76191412  1
  O  O268  1  0.87512042  0.51374760  0.26065211  1
  O  O269  1  0.86958981  0.50723748  0.75739838  1
  O  O270  1  0.11108488  0.37922569  0.37007589  1
  O  O271  1  0.11103412  0.37668752  0.88653922  1
  O  O272  1  0.11372490  0.87972201  0.36863720  1
  O  O273  1  0.12498594  0.87046825  0.86573688  1
  O  O274  1  0.61459872  0.36547224  0.38098507  1
  O  O275  1  0.62947200  0.38168694  0.85946919  1
  O  O276  1  0.61354745  0.89831105  0.37044644  1
  O  O277  1  0.63487153  0.86442306  0.85962964  1
  O  O278  1  0.39267845  0.12240649  0.11024447  1
  O  O279  1  0.36926084  0.12315338  0.63476291  1
  O  O280  1  0.36858308  0.63626450  0.11636914  1
  O  O281  1  0.37829806  0.62991931  0.63229312  1
  O  O282  1  0.88525901  0.12913629  0.12164358  1
  O  O283  1  0.88824550  0.13331256  0.62254168  1
  O  O284  1  0.86122476  0.63152072  0.14633999  1
  O  O285  1  0.88146471  0.62865262  0.63053689  1
  O  O286  1  0.26075339  0.25699156  0.15260519  1
  O  O287  1  0.26659298  0.24633420  0.61359126  1
  O  O288  1  0.25316269  0.74595722  0.10946188  1
  O  O289  1  0.24796471  0.75449860  0.63069114  1
  O  O290  1  0.76519134  0.25127833  0.12993161  1
  O  O291  1  0.75858952  0.25696613  0.62030844  1
  O  O292  1  0.76545796  0.76305162  0.13915388  1
  O  O293  1  0.75965926  0.75727419  0.61674928  1
  O  O294  1  0.26477437  0.24055883  0.39076790  1
  O  O295  1  0.25101342  0.23840721  0.87081654  1
  O  O296  1  0.25944163  0.73535147  0.36695324  1
  O  O297  1  0.23981077  0.74157690  0.88363939  1
  O  O298  1  0.74742177  0.24723828  0.38230434  1
  O  O299  1  0.75606249  0.23819708  0.86907143  1
  O  O300  1  0.75208169  0.75088602  0.39195236  1
  O  O301  1  0.74104212  0.74179955  0.87101551  1
  O  O302  1  0.01017027  0.12197344  0.00990975  1
  O  O303  1  0.01283568  0.12511964  0.50802130  1
  O  O304  1  0.01065906  0.61965121  -0.00150306  1
  O  O305  1  0.00717214  0.61488330  0.50571250  1
  O  O306  1  0.51255083  0.12230341  0.00408286  1
  O  O307  1  0.51738193  0.13225206  0.50402746  1
  O  O308  1  0.57837864  0.55143045  0.00706311  1
  O  O309  1  0.48738358  0.61086699  0.51229780  1
  O  O310  1  0.49489460  0.38434483  0.49190910  1
  O  O311  1  0.48578764  0.38169957  1.00171311  1
  O  O312  1  0.50201738  0.88613118  0.50451638  1
  O  O313  1  0.47947517  0.87648115  0.99264246  1
  O  O314  1  1.00424094  0.38204902  0.48551669  1
  O  O315  1  0.98672831  0.37958681  0.99067640  1
  O  O316  1  0.99700729  0.87913343  0.49298989  1
  O  O317  1  0.98281394  0.87622580  1.00454813  1
  O  O318  1  0.49243763  0.49446188  0.38214469  1
  O  O319  1  0.48729149  0.51071506  0.86890226  1
  O  O320  1  0.46478537  1.03901531  0.36952940  1
  O  O321  1  0.47925550  1.00860420  0.87508878  1
  O  O322  1  0.99810200  0.48980157  0.37860594  1
  O  O323  1  0.99034413  0.49247379  0.87194154  1
  O  O324  1  0.99466544  0.99208310  0.37926034  1
  O  O325  1  0.98107427  1.01208254  0.87532487  1
  O  O326  1  0.01127130  0.01085896  0.12777576  1
  O  O327  1  0.00581909  0.00942480  0.61951198  1
  O  O328  1  0.01090409  0.49647146  0.13034271  1
  O  O329  1  0.00385142  0.50630499  0.61726840  1
  O  O330  1  0.50985876  0.01114246  0.11916429  1
  O  O331  1  0.50015194  0.02400706  0.64473006  1
  O  O332  1  0.52969324  0.51271112  0.16465894  1
  O  O333  1  0.50389604  0.50499585  0.62074286  1
  O  O334  1  0.24879648  0.38911198  0.25538247  1
  O  O335  1  0.25381393  0.39137853  0.75791169  1
  O  O336  1  0.23531910  0.87360938  0.25413808  1
  O  O337  1  0.22716336  0.87401211  0.73807879  1
  O  O338  1  0.74993070  0.36840219  0.24271614  1
  O  O339  1  0.74225017  0.37888754  0.73998001  1
  O  O340  1  0.73012265  0.87906724  0.25267700  1
  O  O341  1  0.74357789  0.87786981  0.73992215  1
  O  O342  1  0.24759176  0.10735529  0.25722673  1
  O  O343  1  0.26639259  0.13122589  0.75605402  1
  O  O344  1  0.25400160  0.61461693  0.26239608  1
  O  O345  1  0.25368743  0.62251995  0.75903151  1
  O  O346  1  0.75020466  0.13197547  0.26521426  1
  O  O347  1  0.75040670  0.12318817  0.76251579  1
  O  O348  1  0.75582708  0.63022702  0.26469771  1
  O  O349  1  0.76174244  0.61976275  0.75397068  1
  O  O350  1  0.41140391  0.09412258  0.37209247  1
  O  O351  1  0.36830677  0.11853925  0.86923811  1
  O  O352  1  0.36425444  0.61305579  0.37650162  1
  O  O353  1  0.36442861  0.61899806  0.87101089  1
  O  O354  1  0.87061210  0.11772268  0.37492891  1
  O  O355  1  0.86240441  0.11917052  0.87913129  1
  O  O356  1  0.88110023  0.61256318  0.36623592  1
  O  O357  1  0.87231696  0.61925448  0.86722544  1
  O  O358  1  0.12672169  0.39138645  0.11481696  1
  O  O359  1  0.11886510  0.38936665  0.61988024  1
  O  O360  1  0.11566240  0.88437926  0.13377175  1
  O  O361  1  0.12474602  0.88046049  0.63788415  1
  O  O362  1  0.64344388  0.35459716  0.12087500  1
  O  O363  1  0.63276762  0.38336358  0.63148341  1
  O  O364  1  0.62865562  0.89191259  0.11580847  1
  O  O365  1  0.63770575  0.86768216  0.63694554  1
  O  O366  1  0.10982197  0.24578034  0.24917655  1
  O  O367  1  0.11563993  0.24815454  0.74878910  1
  O  O368  1  0.11408808  0.75365221  0.24166034  1
  O  O369  1  0.12073712  0.75935982  0.76191765  1
  O  O370  1  0.61499661  0.24195628  0.26411205  1
  O  O371  1  0.60824565  0.25730258  0.74293774  1
  O  O372  1  0.63142516  0.76512982  0.28495097  1
  O  O373  1  0.62364298  0.76015261  0.75678286  1
  O  O374  1  0.39264088  0.24674995  0.25250805  1
  O  O375  1  0.37965481  0.24751549  0.73842456  1
  O  O376  1  0.36814944  0.75018247  0.22604136  1
  O  O377  1  0.37490676  0.73779271  0.76186877  1
  O  O378  1  0.88709639  0.24458226  0.23971215  1
  O  O379  1  0.88553220  0.24749929  0.73510548  1
  O  O380  1  0.88141619  0.73832709  0.25341685  1
  O  O381  1  0.86903047  0.73974607  0.73972978  1
  O  O382  1  0.37800563  0.49658099  0.49297980  1
  O  O383  1  0.37765675  0.50687902  0.98630032  1
  O  O384  1  0.36057876  0.96662505  0.50011212  1
  O  O385  1  0.36981780  0.98715462  0.99088636  1
  O  O386  1  0.88879012  0.50702144  0.48698527  1
  O  O387  1  0.87472233  0.49079998  0.98515371  1
  O  O388  1  0.88411469  0.99530554  0.49126998  1
  O  O389  1  0.87684458  0.99237550  0.98958782  1
  O  O390  1  0.12486636  0.00618142  0.00614300  1
  O  O391  1  0.12244606  0.01091895  0.51003564  1
  O  O392  1  0.12461961  0.50889414  0.01196980  1
  O  O393  1  0.11787868  0.50851819  0.50747437  1
  O  O394  1  0.62518553  0.00651325  0.00690490  1
  O  O395  1  0.63101812  0.01722003  0.50100225  1
  O  O396  1  0.62223814  0.49284407  0.01971470  1
  O  O397  1  0.61270829  0.49550442  0.51136899  1
  O  O398  1  0.37539377  0.37512797  0.11251972  1
  O  O399  1  0.37152790  0.36971940  0.62487688  1
  O  O400  1  0.37459625  0.86784033  0.11014164  1
  O  O401  1  0.35457693  0.86889676  0.64029757  1
  O  O402  1  0.86954596  0.36586770  0.11845883  1
  O  O403  1  0.86409939  0.36986638  0.62979414  1
  O  O404  1  0.87539693  0.86955283  0.12392314  1
  O  O405  1  0.87234211  0.86641352  0.62061388  1
  O  O406  1  0.12130516  0.11826707  0.38972261  1
  O  O407  1  0.13429294  0.12598261  0.88225392  1
  O  O408  1  0.13917485  0.62097423  0.38204189  1
  O  O409  1  0.12689607  0.63305325  0.88150088  1
  O  O410  1  0.63390211  0.13326011  0.38419685  1
  O  O411  1  0.63464730  0.11836212  0.88226472  1
  O  O412  1  0.63035941  0.62568865  0.37576458  1
  O  O413  1  0.63799549  0.63790080  0.86513278  1
