# generated using pymatgen
data_V79Zn79O256
_symmetry_space_group_name_H-M   'P 1'
_cell_length_a   16.90161555
_cell_length_b   16.91445121
_cell_length_c   16.95166898
_cell_angle_alpha   89.93013034
_cell_angle_beta   90.10270418
_cell_angle_gamma   90.23821370
_symmetry_Int_Tables_number   1
_chemical_formula_structural   V79Zn79O256
_chemical_formula_sum   'V79 Zn79 O256'
_cell_volume   4846.11620152
_cell_formula_units_Z   1
loop_
 _symmetry_equiv_pos_site_id
 _symmetry_equiv_pos_as_xyz
  1  'x, y, z'
loop_
 _atom_site_type_symbol
 _atom_site_label
 _atom_site_symmetry_multiplicity
 _atom_site_fract_x
 _atom_site_fract_y
 _atom_site_fract_z
 _atom_site_occupancy
  V  V0  1  0.49948426  0.00759092  0.50113744  1
  V  V1  1  0.50530857  0.87307300  0.37046936  1
  V  V2  1  0.75320326  0.24962060  0.00375388  1
  V  V3  1  0.12797218  0.24751825  0.87665223  1
  V  V4  1  0.74176438  0.37463949  0.62611056  1
  V  V5  1  0.25568807  0.62310775  0.86308049  1
  V  V6  1  0.62340986  0.01020593  0.62291097  1
  V  V7  1  0.74615802  0.86534189  0.61387802  1
  V  V8  1  0.24244136  0.00229017  0.74710830  1
  V  V9  1  0.87290644  0.00197475  0.87486362  1
  V  V10  1  0.10416911  0.24398291  0.36788370  1
  V  V11  1  0.25617102  0.74532753  0.00589066  1
  V  V12  1  0.74837089  0.62292127  0.35797706  1
  V  V13  1  0.62764361  0.63012674  0.00210054  1
  V  V14  1  0.37514683  0.01331016  0.37196236  1
  V  V15  1  0.88378574  -0.00811056  0.38164313  1
  V  V16  1  0.11870116  0.86185103  0.24782987  1
  V  V17  1  0.61272932  0.86624394  0.75102672  1
  V  V18  1  0.49717007  0.62442343  0.63944030  1
  V  V19  1  0.87038393  0.86113752  0.00138519  1
  V  V20  1  -0.00083079  0.25520822  0.75406518  1
  V  V21  1  0.37437927  0.49982524  0.86701119  1
  V  V22  1  0.88271157  0.62971486  0.24014409  1
  V  V23  1  0.25418316  0.49927314  0.26080115  1
  V  V24  1  0.00046175  0.86579535  0.38347495  1
  V  V25  1  0.87612131  0.11834967  0.24259302  1
  V  V26  1  0.93304272  0.29900921  0.17566113  1
  V  V27  1  0.87504400  0.13056463  0.74304293  1
  V  V28  1  0.88544751  0.64036235  0.74910416  1
  V  V29  1  0.49857442  0.37089125  0.37919943  1
  V  V30  1  0.25069435  0.23682255  0.49196084  1
  V  V31  1  0.24470843  0.73980359  0.49450608  1
  V  V32  1  0.12572688  0.12367220  0.00032182  1
  V  V33  1  0.12724388  0.75853742  0.86252642  1
  V  V34  1  0.88128338  0.50300574  0.87994723  1
  V  V35  1  0.37789485  0.37325550  0.00202046  1
  V  V36  1  0.26281732  0.12097908  0.87478358  1
  V  V37  1  0.13646995  0.38687284  0.75436184  1
  V  V38  1  0.74653081  0.50281036  0.74560874  1
  V  V39  1  0.23644764  0.88230333  0.62659961  1
  V  V40  1  -0.00411356  0.12149872  0.12789452  1
  V  V41  1  0.37796112  0.12704565  0.72319474  1
  V  V42  1  0.74824867  0.85851490  0.11645316  1
  V  V43  1  0.38288555  0.88194990  -0.01372966  1
  V  V44  1  0.61779513  0.11248068  0.00033604  1
  V  V45  1  0.60800682  0.74892950  0.87286508  1
  V  V46  1  0.36819860  0.37921474  0.50627672  1
  V  V47  1  0.74663575  0.12601637  0.37838938  1
  V  V48  1  0.74576935  -0.01233578  0.24343810  1
  V  V49  1  0.93009820  0.30892556  0.57325514  1
  V  V50  1  0.26128028  0.87123251  0.12764491  1
  V  V51  1  0.62362099  0.36839297  0.25972457  1
  V  V52  1  0.12446452  0.51471369  0.61321356  1
  V  V53  1  0.49412365  0.12039255  0.13056082  1
  V  V54  1  0.62609332  0.49783391  0.13378569  1
  V  V55  1  0.25494398  0.24802633  0.00409678  1
  V  V56  1  0.25552771  0.00934062  0.25439089  1
  V  V57  1  0.88180026  0.49252358  0.38325842  1
  V  V58  1  0.37127614  0.62445190  0.27169394  1
  V  V59  1  0.00366412  0.87453868  0.86242809  1
  V  V60  1  0.24597201  0.37622960  0.12831734  1
  V  V61  1  0.60859561  0.25638317  0.87706312  1
  V  V62  1  0.63460575  0.62997068  0.50811844  1
  V  V63  1  0.50078878  0.75066407  0.25130106  1
  V  V64  1  0.74440134  0.37237144  0.13028112  1
  V  V65  1  0.88155161  0.75725853  0.61414471  1
  V  V66  1  0.12599424  -0.00182850  0.12698135  1
  V  V67  1  0.88258936  0.37652527  -0.00214447  1
  V  V68  1  0.74860281  0.63402135  0.87830534  1
  V  V69  1  0.49708128  0.51099367  0.49366014  1
  V  V70  1  0.00096239  -0.00151244  -0.00208665  1
  V  V71  1  0.37636419  0.87754117  0.49966947  1
  V  V72  1  0.11965284  0.50361461  0.11501925  1
  V  V73  1  0.50065006  0.49388586  -0.00086342  1
  V  V74  1  0.75038236  0.12696615  0.87351854  1
  V  V75  1  0.38215870  0.75146005  0.63642752  1
  V  V76  1  0.00980236  0.11522492  0.61784392  1
  V  V77  1  0.48838438  0.62532766  0.12635135  1
  V  V78  1  0.49452717  0.25458906  0.72913732  1
  Zn  Zn79  1  0.25894936  0.37965959  0.63686269  1
  Zn  Zn80  1  0.61649789  0.14186137  0.49551947  1
  Zn  Zn81  1  0.37426017  0.24388895  0.13890745  1
  Zn  Zn82  1  0.11353006  0.62335271  -0.00377022  1
  Zn  Zn83  1  0.75207856  0.26560218  0.49367828  1
  Zn  Zn84  1  0.49704814  0.23572092  0.26661841  1
  Zn  Zn85  1  0.61953294  -0.01133324  0.12268918  1
  Zn  Zn86  1  0.00856001  0.38485705  0.88536253  1
  Zn  Zn87  1  0.61256897  0.38601212  0.75715142  1
  Zn  Zn88  1  -0.01731233  0.66280152  0.11455450  1
  Zn  Zn89  1  0.04665895  0.56063929  0.45155233  1
  Zn  Zn90  1  0.74714470  -0.00116438  0.74809047  1
  Zn  Zn91  1  0.06184828  -0.06122282  0.55835962  1
  Zn  Zn92  1  0.63605091  0.75863259  0.37808431  1
  Zn  Zn93  1  0.12173634  0.72769998  0.37660494  1
  Zn  Zn94  1  0.18189578  0.19114391  0.19143615  1
  Zn  Zn95  1  0.19383541  0.19634100  0.68533239  1
  Zn  Zn96  1  0.18970273  0.68270395  0.18801217  1
  Zn  Zn97  1  0.19971380  0.69022005  0.68458993  1
  Zn  Zn98  1  0.68244186  0.18629739  0.19043981  1
  Zn  Zn99  1  0.68638828  0.19583145  0.68891869  1
  Zn  Zn100  1  0.67999305  0.68910048  0.18898235  1
  Zn  Zn101  1  0.68706924  0.68695064  0.68903438  1
  Zn  Zn102  1  0.31834419  0.31316419  0.31558844  1
  Zn  Zn103  1  0.32188334  0.30841936  0.81746778  1
  Zn  Zn104  1  0.31511830  0.81209764  0.31303524  1
  Zn  Zn105  1  0.31123956  0.81674652  0.81125900  1
  Zn  Zn106  1  0.81182302  0.31342122  0.31378936  1
  Zn  Zn107  1  0.81141465  0.31522511  0.81459773  1
  Zn  Zn108  1  0.81433242  0.80637290  0.31274956  1
  Zn  Zn109  1  0.80151361  0.81934234  0.81173920  1
  Zn  Zn110  1  0.17773209  0.43023955  0.43193503  1
  Zn  Zn111  1  0.19227071  0.43583931  0.93854951  1
  Zn  Zn112  1  0.19072391  0.92979339  0.43098642  1
  Zn  Zn113  1  0.19357491  0.93788074  0.93638230  1
  Zn  Zn114  1  0.68557385  0.45036260  0.44327673  1
  Zn  Zn115  1  0.69276284  0.43943172  0.93808872  1
  Zn  Zn116  1  0.68904747  0.94300046  0.43688787  1
  Zn  Zn117  1  0.56254623  0.93289143  0.93031910  1
  Zn  Zn118  1  0.31160661  0.05780925  0.06600621  1
  Zn  Zn119  1  0.19086347  0.06581231  0.55331573  1
  Zn  Zn120  1  0.30964274  0.55807946  0.06078478  1
  Zn  Zn121  1  0.31166678  0.55957326  0.57000119  1
  Zn  Zn122  1  0.80837538  0.05609982  0.05813731  1
  Zn  Zn123  1  0.81366902  0.05493047  0.56204915  1
  Zn  Zn124  1  0.80915284  0.55898958  0.06114201  1
  Zn  Zn125  1  0.82606367  0.56581342  0.56440250  1
  Zn  Zn126  1  0.43484512  0.43667617  0.19179023  1
  Zn  Zn127  1  0.44279932  0.44030643  0.68493531  1
  Zn  Zn128  1  0.43853728  0.93857281  0.18587277  1
  Zn  Zn129  1  0.43372431  0.94448645  0.68817556  1
  Zn  Zn130  1  0.93291039  0.46681029  0.19388509  1
  Zn  Zn131  1  0.94331321  0.45010479  0.69594400  1
  Zn  Zn132  1  0.93616748  0.92883929  0.18526079  1
  Zn  Zn133  1  0.93011927  0.93903025  0.68576313  1
  Zn  Zn134  1  0.06983037  0.05827956  0.31878038  1
  Zn  Zn135  1  0.06223386  0.06434032  0.80888899  1
  Zn  Zn136  1  0.06318726  0.56363568  0.29177853  1
  Zn  Zn137  1  0.06471856  0.57131871  0.81310139  1
  Zn  Zn138  1  0.56483646  0.05494656  0.31189609  1
  Zn  Zn139  1  0.56164197  0.07069421  0.80065389  1
  Zn  Zn140  1  0.56370366  0.56372201  0.31572412  1
  Zn  Zn141  1  0.56060700  0.56256889  0.81759697  1
  Zn  Zn142  1  0.42960444  0.19264389  0.44901270  1
  Zn  Zn143  1  0.43676480  0.06216350  0.93332829  1
  Zn  Zn144  1  0.43504152  0.69366110  0.44218290  1
  Zn  Zn145  1  0.43377246  0.68480434  0.94332427  1
  Zn  Zn146  1  0.93063181  0.18267828  0.43574512  1
  Zn  Zn147  1  0.93847962  0.19011711  0.93983270  1
  Zn  Zn148  1  0.92529912  0.69159344  0.43439477  1
  Zn  Zn149  1  0.94430900  0.68652347  0.93304352  1
  Zn  Zn150  1  0.10808489  0.37481917  0.25470818  1
  Zn  Zn151  1  0.10122019  0.30525649  0.56894583  1
  Zn  Zn152  1  0.06830787  0.81140271  0.05128679  1
  Zn  Zn153  1  0.05716475  0.69803615  0.57141611  1
  Zn  Zn154  1  0.56214284  0.30494421  0.06390621  1
  Zn  Zn155  1  0.57258536  0.32090169  0.55875911  1
  Zn  Zn156  1  0.55980693  0.80742889  0.06664724  1
  Zn  Zn157  1  0.56253031  0.81200477  0.56003695  1
  O  O158  1  0.11526861  0.11886882  0.12102230  1
  O  O159  1  0.11397576  0.12901528  0.62471282  1
  O  O160  1  0.12958915  0.60987153  0.12340138  1
  O  O161  1  0.13021444  0.62085902  0.62650486  1
  O  O162  1  0.62356857  0.12179946  0.10968151  1
  O  O163  1  0.63520156  0.11153919  0.62366980  1
  O  O164  1  0.61921533  0.61543945  0.11901719  1
  O  O165  1  0.60857211  0.63746640  0.61629854  1
  O  O166  1  0.39273105  0.38011842  0.38987860  1
  O  O167  1  0.36440718  0.38953505  0.89012232  1
  O  O168  1  0.38373382  0.88136523  0.38254699  1
  O  O169  1  0.37249103  0.87567487  0.88745640  1
  O  O170  1  0.86275502  0.39303198  0.37240503  1
  O  O171  1  0.87460771  0.38563650  0.88207676  1
  O  O172  1  0.88760453  0.88260749  0.36314211  1
  O  O173  1  0.87762067  0.88389191  0.88131444  1
  O  O174  1  0.25956736  -0.00632562  0.36084884  1
  O  O175  1  0.24684516  0.01159150  0.86484756  1
  O  O176  1  0.24514747  0.49443312  0.35825108  1
  O  O177  1  0.26073572  0.51404553  0.88328038  1
  O  O178  1  0.76177671  -0.00035658  0.36140384  1
  O  O179  1  0.76040142  0.01724618  0.87364318  1
  O  O180  1  0.75741182  0.51892222  0.38424317  1
  O  O181  1  0.75929124  0.51055259  0.86767075  1
  O  O182  1  0.24517544  0.49321092  0.12944838  1
  O  O183  1  0.23303319  0.49714773  0.62715043  1
  O  O184  1  0.24709015  0.99042545  0.13566961  1
  O  O185  1  0.24804010  0.98848127  0.62702182  1
  O  O186  1  0.73578687  0.48374492  0.11681531  1
  O  O187  1  0.76023385  0.49760874  0.64155437  1
  O  O188  1  0.74814597  0.99327140  0.13422672  1
  O  O189  1  0.73812161  0.98906063  0.62329221  1
  O  O190  1  -0.01114623  0.36401357  0.22988489  1
  O  O191  1  0.01087476  0.36665078  0.75887622  1
  O  O192  1  0.01629858  0.87940013  0.25188946  1
  O  O193  1  -0.00671002  0.88227943  0.76414446  1
  O  O194  1  0.50483873  0.38243054  0.26932160  1
  O  O195  1  0.49833179  0.36085676  0.74765853  1
  O  O196  1  0.48981873  0.86291749  0.25726037  1
  O  O197  1  0.51445462  0.87942280  0.74026309  1
  O  O198  1  0.51459881  0.12351719  0.23543219  1
  O  O199  1  0.48632767  0.13905971  0.74604738  1
  O  O200  1  0.48712643  0.62526360  0.24764597  1
  O  O201  1  0.50430187  0.62220909  0.73791753  1
  O  O202  1  0.99067402  0.11242605  0.23677818  1
  O  O203  1  0.99576937  0.13511942  0.74063460  1
  O  O204  1  0.98681721  0.62534113  0.23340225  1
  O  O205  1  0.98473534  0.63086105  0.75624387  1
  O  O206  1  0.36104645  0.25916981  0.00173600  1
  O  O207  1  0.36588675  0.26891511  0.50438790  1
  O  O208  1  0.36318955  0.76159832  -0.00415299  1
  O  O209  1  0.36831851  0.76297695  0.50592429  1
  O  O210  1  0.86095069  0.25728030  -0.00634795  1
  O  O211  1  0.86923062  0.25429948  0.50744512  1
  O  O212  1  0.87718535  0.76354605  -0.01046317  1
  O  O213  1  0.86764451  0.75130632  0.51648189  1
  O  O214  1  0.13993908  0.24923396  0.47887962  1
  O  O215  1  0.13995406  0.24190926  0.98929359  1
  O  O216  1  0.14113105  0.74771287  0.50386694  1
  O  O217  1  0.14444782  0.75262053  0.98618210  1
  O  O218  1  0.64120448  0.24930275  0.50791623  1
  O  O219  1  0.63279716  0.24333183  0.98963640  1
  O  O220  1  0.61449383  0.73394523  0.49252203  1
  O  O221  1  0.61772074  0.73566445  0.99257045  1
  O  O222  1  0.49992604  0.23038435  0.12282717  1
  O  O223  1  0.50616629  0.25380766  0.63142668  1
  O  O224  1  0.50575259  0.73585191  0.13743390  1
  O  O225  1  0.48843464  0.74280235  0.62026870  1
  O  O226  1  0.99152580  0.23627368  0.12222881  1
  O  O227  1  0.99666003  0.24535174  0.63459671  1
  O  O228  1  1.00546701  0.77007218  0.12978672  1
  O  O229  1  0.98104022  0.76432224  0.62811740  1
  O  O230  1  0.00330553  0.24382131  0.37411476  1
  O  O231  1  0.01269220  0.24806770  0.87039179  1
  O  O232  1  -0.00145764  0.76331161  0.37367578  1
  O  O233  1  0.01996025  0.75805918  0.87631355  1
  O  O234  1  0.50248794  0.26727521  0.38681268  1
  O  O235  1  0.51174878  0.25304814  0.88030323  1
  O  O236  1  0.49643317  0.75959207  0.36928858  1
  O  O237  1  0.50854135  0.73826847  0.87430296  1
  O  O238  1  0.26339161  0.13893336  0.50562522  1
  O  O239  1  0.24687171  0.12803129  0.99562850  1
  O  O240  1  0.26307866  0.64249141  0.50514551  1
  O  O241  1  0.25334823  0.63907075  0.99625987  1
  O  O242  1  0.75653918  0.11710143  0.48172572  1
  O  O243  1  0.74319181  0.13121711  0.99403962  1
  O  O244  1  0.73454378  0.62303067  0.51321217  1
  O  O245  1  0.73704350  0.61741500  0.99123388  1
  O  O246  1  0.25646473  0.36747031  0.00905627  1
  O  O247  1  0.26677303  0.38588758  0.49465109  1
  O  O248  1  0.25998954  0.86847315  0.00602408  1
  O  O249  1  0.25914408  0.87216302  0.51170102  1
  O  O250  1  0.75474064  0.36733255  0.00997221  1
  O  O251  1  0.74458629  0.38609776  0.52202888  1
  O  O252  1  0.76458641  0.87274277  0.00817467  1
  O  O253  1  0.74058337  0.87464216  0.51427313  1
  O  O254  1  0.14019919  0.49444698  0.23698655  1
  O  O255  1  0.12958388  0.48672845  0.76794828  1
  O  O256  1  0.13860797  0.98842109  0.24736199  1
  O  O257  1  0.14180030  1.01161752  0.74661761  1
  O  O258  1  0.61813575  0.49213378  0.23866013  1
  O  O259  1  0.64150623  0.50175614  0.76079147  1
  O  O260  1  0.64329929  0.99576383  0.24868351  1
  O  O261  1  0.62398837  0.99446317  0.73417100  1
  O  O262  1  0.36333240  -0.00562111  0.25622884  1
  O  O263  1  0.36522750  0.01939153  0.74039738  1
  O  O264  1  0.36655834  0.51280228  0.24788796  1
  O  O265  1  0.38037502  0.49225726  0.76886772  1
  O  O266  1  0.86645207  0.00367972  0.25191461  1
  O  O267  1  0.87250548  0.01087472  0.76097674  1
  O  O268  1  0.86628343  0.51756249  0.26484779  1
  O  O269  1  0.86719506  0.51590243  0.75906808  1
  O  O270  1  0.12094889  0.35878366  0.36886703  1
  O  O271  1  0.12716479  0.36504511  0.87215228  1
  O  O272  1  0.11481427  0.87208976  0.36097897  1
  O  O273  1  0.12201537  0.86696237  0.87599564  1
  O  O274  1  0.61780889  0.38691318  0.36901059  1
  O  O275  1  0.63465117  0.36026674  0.87277556  1
  O  O276  1  0.61062915  0.87694828  0.38006966  1
  O  O277  1  0.62278762  0.86368471  0.86096451  1
  O  O278  1  0.39027256  0.12154980  0.12053396  1
  O  O279  1  0.37415879  0.13354751  0.62851963  1
  O  O280  1  0.38724117  0.62005114  0.12292675  1
  O  O281  1  0.38432013  0.64003208  0.62414343  1
  O  O282  1  0.88183249  0.11498968  0.13039671  1
  O  O283  1  0.88058504  0.11575680  0.63865698  1
  O  O284  1  0.86824342  0.61675839  0.13576080  1
  O  O285  1  0.86657790  0.64340644  0.64136620  1
  O  O286  1  0.25091754  0.25501618  0.11901758  1
  O  O287  1  0.22644485  0.26926860  0.60195536  1
  O  O288  1  0.24573677  0.75562307  0.11191155  1
  O  O289  1  0.26300504  0.76234525  0.61768566  1
  O  O290  1  0.73940483  0.25804017  0.11412601  1
  O  O291  1  0.75532003  0.27263191  0.63740293  1
  O  O292  1  0.74730336  0.75989287  0.12870057  1
  O  O293  1  0.75253714  0.76188597  0.63013286  1
  O  O294  1  0.25915630  0.25293238  0.39032266  1
  O  O295  1  0.24553583  0.24159943  0.88169761  1
  O  O296  1  0.24692893  0.75934112  0.39113742  1
  O  O297  1  0.24806165  0.74249793  0.88063112  1
  O  O298  1  0.76193430  0.22938194  0.37376500  1
  O  O299  1  0.74649693  0.24031371  0.88087697  1
  O  O300  1  0.75011898  0.73229111  0.37410748  1
  O  O301  1  0.73736872  0.73754739  0.87054574  1
  O  O302  1  0.00370918  0.11908670  0.00771966  1
  O  O303  1  -0.01107360  0.13009116  0.52184990  1
  O  O304  1  0.00120189  0.62910705  0.00857009  1
  O  O305  1  -0.01192894  0.63508029  0.50880948  1
  O  O306  1  0.51352730  0.12073750  0.00687628  1
  O  O307  1  0.50182949  0.11248088  0.49252429  1
  O  O308  1  0.50661216  0.61565355  0.00887297  1
  O  O309  1  0.50039930  0.61844179  0.50262977  1
  O  O310  1  0.49949048  0.38911930  0.49657723  1
  O  O311  1  0.49290257  0.38386404  1.00861050  1
  O  O312  1  0.49451915  0.88241051  0.49211724  1
  O  O313  1  0.48890622  0.87210702  1.00196432  1
  O  O314  1  0.99982110  0.35672794  0.52252918  1
  O  O315  1  0.98218510  0.36779185  1.00026298  1
  O  O316  1  1.00322068  0.87601825  0.48199552  1
  O  O317  1  0.99116019  0.88176130  0.98673676  1
  O  O318  1  0.50201893  0.49655589  0.38948992  1
  O  O319  1  0.48638063  0.50768616  0.88785837  1
  O  O320  1  0.49418739  0.99186330  0.37843064  1
  O  O321  1  0.50345585  1.00351598  0.86760802  1
  O  O322  1  0.98644575  0.50244764  0.36693800  1
  O  O323  1  0.98632130  0.50287654  0.87062937  1
  O  O324  1  0.98877800  0.99105208  0.36691224  1
  O  O325  1  0.99378167  0.99702729  0.87756636  1
  O  O326  1  0.00524160  0.00282740  0.11779107  1
  O  O327  1  0.00209848  0.00905270  0.62880328  1
  O  O328  1  0.02018655  0.49230628  0.12749805  1
  O  O329  1  0.02672998  0.50432012  0.64250889  1
  O  O330  1  0.50604012  0.01094971  0.12806813  1
  O  O331  1  0.51373216  -0.00454859  0.61410839  1
  O  O332  1  0.50719834  0.50514240  0.11894837  1
  O  O333  1  0.49449994  0.51910797  0.61762877  1
  O  O334  1  0.26379165  0.38946783  0.24184887  1
  O  O335  1  0.23925669  0.36540108  0.75564342  1
  O  O336  1  0.24436792  0.87671562  0.24276621  1
  O  O337  1  0.25857755  0.88710376  0.73503060  1
  O  O338  1  0.73954601  0.36548577  0.23822068  1
  O  O339  1  0.75603062  0.39205848  0.74676508  1
  O  O340  1  0.76105545  0.88201437  0.23523265  1
  O  O341  1  0.73369367  0.88107713  0.74189303  1
  O  O342  1  0.24776437  0.10714220  0.24075123  1
  O  O343  1  0.26213085  0.12725540  0.75305082  1
  O  O344  1  0.26367740  0.61516160  0.24732082  1
  O  O345  1  0.25568315  0.62687325  0.76480272  1
  O  O346  1  0.75754360  0.11471513  0.25365162  1
  O  O347  1  0.75762616  0.12841585  0.75708846  1
  O  O348  1  0.74549159  0.62037970  0.25643032  1
  O  O349  1  0.75326190  0.61737804  0.75809595  1
  O  O350  1  0.38345258  0.11223031  0.37713595  1
  O  O351  1  0.36334113  0.13065642  0.87745903  1
  O  O352  1  0.37626485  0.62178354  0.36974420  1
  O  O353  1  0.36539760  0.61459692  0.88086650  1
  O  O354  1  0.87085802  0.10977087  0.36228679  1
  O  O355  1  0.87194528  0.12078332  0.86827180  1
  O  O356  1  0.86267608  0.62221319  0.36440641  1
  O  O357  1  0.86685281  0.62390406  0.86870399  1
  O  O358  1  0.14165442  0.38439286  0.13072907  1
  O  O359  1  0.12578238  0.38784482  0.64754321  1
  O  O360  1  0.13741185  0.87929924  0.13375891  1
  O  O361  1  0.13845535  0.87107551  0.62228754  1
  O  O362  1  0.62604574  0.37932205  0.13327782  1
  O  O363  1  0.63828937  0.38005884  0.63940520  1
  O  O364  1  0.64250844  0.87502388  0.11161586  1
  O  O365  1  0.63119746  0.87634821  0.63196150  1
  O  O366  1  0.12452917  0.25696872  0.25974524  1
  O  O367  1  0.11903342  0.25592103  0.75967768  1
  O  O368  1  0.13420680  0.75997068  0.25402717  1
  O  O369  1  0.13895911  0.75028647  0.76434983  1
  O  O370  1  0.61540865  0.26334128  0.24933691  1
  O  O371  1  0.60817147  0.24399802  0.76222528  1
  O  O372  1  0.60615418  0.73950202  0.26118501  1
  O  O373  1  0.62306482  0.75942959  0.75530548  1
  O  O374  1  0.38787753  0.25831525  0.24932428  1
  O  O375  1  0.38582941  0.24365787  0.74860091  1
  O  O376  1  0.38128353  0.73256923  0.25497295  1
  O  O377  1  0.37376794  0.75813128  0.73481559  1
  O  O378  1  0.87577827  0.24083642  0.24112609  1
  O  O379  1  0.88747598  0.24247344  0.76078178  1
  O  O380  1  0.86822575  0.72922558  0.25036979  1
  O  O381  1  0.86877092  0.74194456  0.75505634  1
  O  O382  1  0.38843817  0.49519447  0.50429534  1
  O  O383  1  0.38344041  0.49226517  0.99700506  1
  O  O384  1  0.38536520  0.98923882  0.48963416  1
  O  O385  1  0.37296534  0.98746633  0.99890195  1
  O  O386  1  0.87793292  0.50806204  0.48442450  1
  O  O387  1  0.86554389  0.48956907  0.98997325  1
  O  O388  1  0.87353790  0.99776124  0.48028098  1
  O  O389  1  0.88040332  0.99696049  0.98806311  1
  O  O390  1  0.12223139  0.00334719  0.00551679  1
  O  O391  1  0.12736626  0.00022222  0.48997592  1
  O  O392  1  0.13268273  0.50085549  0.01074322  1
  O  O393  1  0.12115457  0.49422078  0.51114499  1
  O  O394  1  0.62961851  0.01136291  -0.00448431  1
  O  O395  1  0.61789449  0.00256115  0.50963427  1
  O  O396  1  0.61658365  0.50519017  0.00511546  1
  O  O397  1  0.60943364  0.51725644  0.50477599  1
  O  O398  1  0.36802746  0.37610951  0.11484168  1
  O  O399  1  0.37456469  0.38381656  0.61209702  1
  O  O400  1  0.36516219  0.87744534  0.11685523  1
  O  O401  1  0.37769538  0.86777484  0.61593883  1
  O  O402  1  0.86815118  0.36896842  0.12299466  1
  O  O403  1  0.87664544  0.37780755  0.62970666  1
  O  O404  1  0.86697298  0.87820773  0.10908153  1
  O  O405  1  0.85730546  0.86821990  0.63272702  1
  O  O406  1  0.12599933  0.14231879  0.36577177  1
  O  O407  1  0.13268846  0.13211733  0.87916795  1
  O  O408  1  0.11531129  0.61632898  0.37537071  1
  O  O409  1  0.13929009  0.63535751  0.87751812  1
  O  O410  1  0.64324160  0.11471627  0.37490851  1
  O  O411  1  0.63101051  0.13461382  0.88297391  1
  O  O412  1  0.63770621  0.62166094  0.38615702  1
  O  O413  1  0.62937621  0.62922127  0.88324956  1
