# generated using pymatgen
data_V79Zn79O256
_symmetry_space_group_name_H-M   'P 1'
_cell_length_a   16.99008908
_cell_length_b   16.93166130
_cell_length_c   17.05876634
_cell_angle_alpha   90.04003203
_cell_angle_beta   90.03525240
_cell_angle_gamma   89.89179798
_symmetry_Int_Tables_number   1
_chemical_formula_structural   V79Zn79O256
_chemical_formula_sum   'V79 Zn79 O256'
_cell_volume   4907.29183793
_cell_formula_units_Z   1
loop_
 _symmetry_equiv_pos_site_id
 _symmetry_equiv_pos_as_xyz
  1  'x, y, z'
loop_
 _atom_site_type_symbol
 _atom_site_label
 _atom_site_symmetry_multiplicity
 _atom_site_fract_x
 _atom_site_fract_y
 _atom_site_fract_z
 _atom_site_occupancy
  V  V0  1  0.87158029  0.87439862  0.49957815  1
  V  V1  1  0.38082811  0.88242937  0.48816009  1
  V  V2  1  0.01575870  0.75472818  0.75302303  1
  V  V3  1  0.73894615  0.48870676  0.24847726  1
  V  V4  1  0.87583222  0.12107554  0.76075751  1
  V  V5  1  0.46296964  0.00655706  -0.00502273  1
  V  V6  1  0.12654120  0.74553937  0.36956728  1
  V  V7  1  0.74463781  0.12556499  0.37539339  1
  V  V8  1  0.37229233  0.51545112  0.37200773  1
  V  V9  1  0.63670070  0.10051365  0.00456184  1
  V  V10  1  0.25132813  0.38025500  0.62614791  1
  V  V11  1  0.51088826  0.76237468  0.75188375  1
  V  V12  1  0.23700199  0.00867168  0.75711023  1
  V  V13  1  0.61483566  0.90830280  0.24787303  1
  V  V14  1  0.26259208  0.01235377  0.25808887  1
  V  V15  1  0.69802752  0.45232386  0.80456336  1
  V  V16  1  0.00037540  0.24975975  0.24967764  1
  V  V17  1  0.74813774  0.37665066  0.62768995  1
  V  V18  1  0.24893343  0.51354726  0.25652926  1
  V  V19  1  0.88147756  0.24534084  0.62848443  1
  V  V20  1  0.88066025  0.49924421  0.86804099  1
  V  V21  1  0.62878828  -0.00546100  0.63807683  1
  V  V22  1  -0.00523200  0.63799072  0.12839330  1
  V  V23  1  0.37257629  0.63291862  0.75228622  1
  V  V24  1  0.87650795  0.49882308  0.37053953  1
  V  V25  1  0.00683773  0.49623509  0.00294197  1
  V  V26  1  0.50108571  0.63004727  0.62903169  1
  V  V27  1  0.62387989  0.62775382  0.49860036  1
  V  V28  1  0.74317501  0.63431837  0.87823255  1
  V  V29  1  0.24916176  0.74973559  0.49622930  1
  V  V30  1  0.61827084  0.26194599  0.36889848  1
  V  V31  1  0.00422198  0.11599397  0.12538984  1
  V  V32  1  0.87104422  0.12230381  0.25162023  1
  V  V33  1  0.37440061  0.76174652  0.62668912  1
  V  V34  1  0.74776366  0.25083144  0.49935662  1
  V  V35  1  0.74868252  0.62382025  0.37466295  1
  V  V36  1  0.50173945  0.12792991  0.63812965  1
  V  V37  1  0.23476735  0.88896981  0.62351518  1
  V  V38  1  0.00865172  0.50315496  0.50206699  1
  V  V39  1  0.62976394  0.49985498  0.62791219  1
  V  V40  1  0.00231780  0.91116058  0.90737389  1
  V  V41  1  0.61039078  0.75624285  0.36656150  1
  V  V42  1  0.86671464  -0.00084131  0.37254079  1
  V  V43  1  0.37808327  0.25006130  0.13345055  1
  V  V44  1  0.38038274  0.25064616  0.63201786  1
  V  V45  1  0.12421855  0.88766226  0.24644661  1
  V  V46  1  0.25121722  0.25125932  -0.00397188  1
  V  V47  1  -0.00446814  0.86889915  0.36754142  1
  V  V48  1  0.37700040  0.37837145  0.49143152  1
  V  V49  1  0.00103766  0.37469066  0.37688334  1
  V  V50  1  0.48728623  0.88700947  0.86669006  1
  V  V51  1  0.87439830  0.62036040  0.74520238  1
  V  V52  1  0.36835943  0.72733951  0.16040983  1
  V  V53  1  0.13150535  0.24164211  0.37608702  1
  V  V54  1  0.24357624  0.64291817  0.87531734  1
  V  V55  1  0.12504633  0.11932308  0.00219003  1
  V  V56  1  0.69232315  0.42815831  0.07104113  1
  V  V57  1  0.37910534  0.50395320  0.88065655  1
  V  V58  1  0.00434058  0.00368708  0.50357586  1
  V  V59  1  0.74909564  0.74933929  0.50105572  1
  V  V60  1  0.12902896  0.37393305  0.74925980  1
  V  V61  1  0.49797714  0.49511615  0.50138365  1
  V  V62  1  0.24655859  0.50269067  0.74888235  1
  V  V63  1  0.24769115  0.37903314  0.12755350  1
  V  V64  1  0.00552781  0.36554588  0.87134861  1
  V  V65  1  0.25527478  0.24550672  0.49456969  1
  V  V66  1  0.74345118  0.24789954  -0.00508897  1
  V  V67  1  0.37833550  0.38218703  -0.00311532  1
  V  V68  1  0.12710485  0.64136019  -0.00351938  1
  V  V69  1  0.75110422  0.87792503  0.64071825  1
  V  V70  1  0.12870999  0.37555973  0.24895472  1
  V  V71  1  0.87736483  0.37157685  0.00221823  1
  V  V72  1  0.50513554  -0.00078467  0.49042983  1
  V  V73  1  0.35494040  0.85875519  -0.00031717  1
  V  V74  1  0.88006832  0.74629689  0.62710393  1
  V  V75  1  0.87391634  0.63701306  0.24612744  1
  V  V76  1  0.49952463  0.11905598  0.13029735  1
  V  V77  1  0.13514528  0.24972376  0.87486517  1
  V  V78  1  0.86515035  0.25482154  0.12708214  1
  Zn  Zn79  1  0.13883554  0.11191297  0.50551934  1
  Zn  Zn80  1  0.13880339  0.61702724  0.49573545  1
  Zn  Zn81  1  0.36267815  0.11791353  0.78136509  1
  Zn  Zn82  1  0.87762890  0.37501913  0.50336557  1
  Zn  Zn83  1  0.79346566  0.73875707  0.03225274  1
  Zn  Zn84  1  0.02092796  0.61663660  0.62894077  1
  Zn  Zn85  1  0.55842913  0.31026996  0.19229075  1
  Zn  Zn86  1  0.24209223  0.88042877  0.12156643  1
  Zn  Zn87  1  0.62621209  0.12371311  0.50119870  1
  Zn  Zn88  1  0.68340092  0.82784853  0.90655523  1
  Zn  Zn89  1  0.63296436  0.27767460  0.85159836  1
  Zn  Zn90  1  0.72471366  0.84135143  0.13500948  1
  Zn  Zn91  1  0.01502426  0.11203350  0.63761458  1
  Zn  Zn92  1  0.12518831  0.50697746  0.12848789  1
  Zn  Zn93  1  0.83655195  -0.02530181  0.85003394  1
  Zn  Zn94  1  0.18759984  0.18804921  0.18398877  1
  Zn  Zn95  1  0.19270279  0.18886515  0.68515827  1
  Zn  Zn96  1  0.18521056  0.69864478  0.18169094  1
  Zn  Zn97  1  0.19077571  0.68597103  0.67588559  1
  Zn  Zn98  1  0.68215452  0.17632581  0.19140897  1
  Zn  Zn99  1  0.69365651  0.17730651  0.68876417  1
  Zn  Zn100  1  0.67571128  0.67186910  0.19281314  1
  Zn  Zn101  1  0.69399798  0.69024890  0.69117508  1
  Zn  Zn102  1  0.31643985  0.19153651  0.31644346  1
  Zn  Zn103  1  0.43712172  0.28996286  0.82884171  1
  Zn  Zn104  1  0.30772781  0.81625187  0.31053655  1
  Zn  Zn105  1  0.30851608  0.82870731  0.80693735  1
  Zn  Zn106  1  0.81257058  0.31040944  0.31183225  1
  Zn  Zn107  1  0.82039568  0.30315575  0.81550349  1
  Zn  Zn108  1  0.79580941  0.81518544  0.31008451  1
  Zn  Zn109  1  0.85493885  0.78871733  0.86150913  1
  Zn  Zn110  1  0.19196327  0.43025425  0.43391148  1
  Zn  Zn111  1  0.19145046  0.44294743  0.93503625  1
  Zn  Zn112  1  0.18970503  0.93403402  0.43147907  1
  Zn  Zn113  1  0.17940833  0.93255283  0.93024884  1
  Zn  Zn114  1  0.68999915  0.43761305  0.44419667  1
  Zn  Zn115  1  0.52956358  0.49625539  0.99954250  1
  Zn  Zn116  1  0.68269723  0.93482246  0.43535003  1
  Zn  Zn117  1  0.76592450  0.93953104  0.99630825  1
  Zn  Zn118  1  0.29882330  0.06695927  0.07942592  1
  Zn  Zn119  1  0.32045247  0.06386605  0.56353736  1
  Zn  Zn120  1  0.30601041  0.56813678  0.06455038  1
  Zn  Zn121  1  0.31480055  0.56719159  0.56561380  1
  Zn  Zn122  1  0.82751095  0.06860210  0.06084295  1
  Zn  Zn123  1  0.81313177  0.06325949  0.56470207  1
  Zn  Zn124  1  0.81536026  0.56271811  0.05945337  1
  Zn  Zn125  1  0.81558009  0.56001793  0.55879549  1
  Zn  Zn126  1  0.42949097  0.45133634  0.18427979  1
  Zn  Zn127  1  0.43451143  0.43917473  0.69182689  1
  Zn  Zn128  1  0.43467090  0.92757236  0.18235142  1
  Zn  Zn129  1  0.42860957  0.95155910  0.68476548  1
  Zn  Zn130  1  0.93794010  0.44024937  0.18765254  1
  Zn  Zn131  1  0.94259030  0.43052932  0.68556127  1
  Zn  Zn132  1  0.93269911  0.93492170  0.18676332  1
  Zn  Zn133  1  0.94120834  0.93613889  0.69254748  1
  Zn  Zn134  1  0.05606879  0.06127791  0.31825915  1
  Zn  Zn135  1  0.06714841  0.07195130  0.80533690  1
  Zn  Zn136  1  0.06162990  0.56534330  0.31054323  1
  Zn  Zn137  1  0.06251335  0.56586762  0.81128858  1
  Zn  Zn138  1  0.44405178  0.05561865  0.31446080  1
  Zn  Zn139  1  0.64599686  -0.00207386  0.84873666  1
  Zn  Zn140  1  0.55431845  0.44049673  0.32040397  1
  Zn  Zn141  1  0.55578459  0.57140861  0.81619241  1
  Zn  Zn142  1  0.44543593  0.18996529  0.44889499  1
  Zn  Zn143  1  0.51230245  0.14259652  0.87651277  1
  Zn  Zn144  1  0.43577940  0.68869196  0.44087305  1
  Zn  Zn145  1  0.43186965  0.69893114  0.92956256  1
  Zn  Zn146  1  0.93536865  0.18927826  0.43832365  1
  Zn  Zn147  1  0.93842597  0.09116473  0.93903066  1
  Zn  Zn148  1  0.93731557  0.68574975  0.43506595  1
  Zn  Zn149  1  0.94988574  0.67951490  0.93426779  1
  Zn  Zn150  1  0.05876550  0.30509106  0.06318105  1
  Zn  Zn151  1  0.08372706  0.27952856  0.58107561  1
  Zn  Zn152  1  0.05333068  0.81997097  0.06270111  1
  Zn  Zn153  1  0.05930087  0.80930199  0.55770168  1
  Zn  Zn154  1  0.53007670  0.27955162  0.00883746  1
  Zn  Zn155  1  0.56052185  0.31238983  0.68681282  1
  Zn  Zn156  1  0.53818516  0.82343776  0.08095729  1
  Zn  Zn157  1  0.56379894  0.81700308  0.56407022  1
  O  O158  1  0.11537205  0.13710839  0.11323520  1
  O  O159  1  0.11150416  0.16304763  0.60698278  1
  O  O160  1  0.11400022  0.62774772  0.11455434  1
  O  O161  1  0.13065566  0.62115612  0.60808420  1
  O  O162  1  0.60844166  0.13090891  0.11434009  1
  O  O163  1  0.61939161  0.11266918  0.62100771  1
  O  O164  1  0.59696599  0.60938568  0.12270314  1
  O  O165  1  0.62480810  0.62001689  0.61889570  1
  O  O166  1  0.37634686  0.38756192  0.39328857  1
  O  O167  1  0.37680540  0.38686888  0.89158337  1
  O  O168  1  0.37161372  0.87360883  0.39108846  1
  O  O169  1  0.37435245  0.87607030  0.89004895  1
  O  O170  1  0.88624356  0.38239112  0.37097344  1
  O  O171  1  0.88576532  0.37981049  0.87862467  1
  O  O172  1  0.87512937  0.87867648  0.37931290  1
  O  O173  1  0.91298341  0.88491325  0.85617113  1
  O  O174  1  0.24192889  0.00215368  0.35762535  1
  O  O175  1  0.23938229  -0.00732876  0.85503675  1
  O  O176  1  0.26243059  0.49679870  0.37079004  1
  O  O177  1  0.26027970  0.51075731  0.86713298  1
  O  O178  1  0.76047198  0.00869764  0.38588419  1
  O  O179  1  0.73570587  -0.06241665  0.88226744  1
  O  O180  1  0.75840273  0.50196084  0.36932829  1
  O  O181  1  0.76426106  0.50851243  0.86597970  1
  O  O182  1  0.24533782  0.49298007  0.13472197  1
  O  O183  1  0.26153782  0.49332452  0.63678797  1
  O  O184  1  0.24571691  0.99726045  0.14960867  1
  O  O185  1  0.24611206  0.99077015  0.61210763  1
  O  O186  1  0.74957373  0.49664882  0.13308863  1
  O  O187  1  0.74088942  0.49274745  0.61821111  1
  O  O188  1  0.78966338  0.96627266  0.11425351  1
  O  O189  1  0.73651304  0.99335396  0.61617222  1
  O  O190  1  0.00872549  0.37193744  0.25701073  1
  O  O191  1  0.01829410  0.38489880  0.75895630  1
  O  O192  1  0.00514323  0.87974176  0.25961912  1
  O  O193  1  0.00658135  0.85311264  0.72986407  1
  O  O194  1  0.49719276  0.38654543  0.24306592  1
  O  O195  1  0.48761676  0.36473525  0.75542842  1
  O  O196  1  0.51110851  0.89731145  0.25697579  1
  O  O197  1  0.48400788  0.87979240  0.76084510  1
  O  O198  1  0.49732697  0.11521342  0.22763597  1
  O  O199  1  0.50393576  0.11970698  0.73497477  1
  O  O200  1  0.53128922  0.58547142  0.15572750  1
  O  O201  1  0.49259009  0.64146650  0.74864140  1
  O  O202  1  0.99173782  0.13113105  0.24775840  1
  O  O203  1  0.98712003  0.12785079  0.74451616  1
  O  O204  1  0.99328335  0.62126853  0.23409302  1
  O  O205  1  0.99181697  0.62721694  0.74236109  1
  O  O206  1  0.36550417  0.27371388  0.01011652  1
  O  O207  1  0.37145910  0.26112676  0.50622993  1
  O  O208  1  0.36551327  0.75886313  0.00144970  1
  O  O209  1  0.37205981  0.76340094  0.50766343  1
  O  O210  1  0.85786696  0.25550466  0.01099352  1
  O  O211  1  0.86553551  0.25387109  0.50600559  1
  O  O212  1  0.88184983  0.75861727  -0.02930097  1
  O  O213  1  0.87059533  0.75492287  0.50523933  1
  O  O214  1  0.14207922  0.26354343  0.48491640  1
  O  O215  1  0.13425590  0.25217601  0.99363088  1
  O  O216  1  0.13404034  0.75485829  0.48730859  1
  O  O217  1  0.11549083  0.73936012  1.00159012  1
  O  O218  1  0.64348067  0.24766335  0.48710072  1
  O  O219  1  0.64352851  0.24971667  1.01201937  1
  O  O220  1  0.63023447  0.74411753  0.50131484  1
  O  O221  1  0.57820773  0.73464826  1.00358613  1
  O  O222  1  0.49153461  0.24404207  0.11607323  1
  O  O223  1  0.49755674  0.23508232  0.62162088  1
  O  O224  1  0.46007031  0.76242311  0.13339053  1
  O  O225  1  0.49170913  0.75244073  0.63172786  1
  O  O226  1  0.98980946  0.24243101  0.13291280  1
  O  O227  1  0.97769313  0.26932754  0.61463703  1
  O  O228  1  0.99497518  0.73632582  0.12000466  1
  O  O229  1  0.98861869  0.74102923  0.62012655  1
  O  O230  1  0.00569041  0.25820397  0.37087380  1
  O  O231  1  0.01504357  0.26583761  0.87734614  1
  O  O232  1  0.01051285  0.76080026  0.38439560  1
  O  O233  1  -0.00096679  0.74400479  0.85222705  1
  O  O234  1  0.52268267  0.24973092  0.38593446  1
  O  O235  1  0.53252748  0.26019843  0.89824982  1
  O  O236  1  0.51377198  0.74967579  0.38987771  1
  O  O237  1  0.48790522  0.77228117  0.86107476  1
  O  O238  1  0.25373666  0.14100683  0.50641169  1
  O  O239  1  0.23603605  0.14262353  1.01457584  1
  O  O240  1  0.25783996  0.64549815  0.50260585  1
  O  O241  1  0.23293177  0.62541001  0.99300002  1
  O  O242  1  0.75268994  0.13271452  0.49195262  1
  O  O243  1  0.74122128  0.13734777  1.01094722  1
  O  O244  1  0.74319185  0.62813094  0.49625717  1
  O  O245  1  0.76293281  0.62647806  0.97956166  1
  O  O246  1  0.25155361  0.37380324  0.01120761  1
  O  O247  1  0.25857439  0.37203996  0.50874475  1
  O  O248  1  0.25204089  0.87811298  -0.00164852  1
  O  O249  1  0.26216570  0.87244819  0.50544701  1
  O  O250  1  0.75580470  0.36574261  0.01241154  1
  O  O251  1  0.75418772  0.36966397  0.51112349  1
  O  O252  1  0.72485479  0.83451975  0.01405640  1
  O  O253  1  0.76085790  0.86950344  0.50084317  1
  O  O254  1  0.12837774  0.49021870  0.25150575  1
  O  O255  1  0.13912602  0.49350532  0.75899878  1
  O  O256  1  0.12059896  0.99027354  0.25443259  1
  O  O257  1  0.13604303  1.01350936  0.73617892  1
  O  O258  1  0.64110841  0.49720871  0.26036230  1
  O  O259  1  0.62936914  0.50796430  0.74437501  1
  O  O260  1  0.62934167  1.00367266  0.25416091  1
  O  O261  1  0.62680094  1.00083293  0.73582625  1
  O  O262  1  0.36550778  -0.00541460  0.25386686  1
  O  O263  1  0.35218382  0.01014601  0.74070197  1
  O  O264  1  0.36586357  0.50435775  0.26629531  1
  O  O265  1  0.37001760  0.51181759  0.76182611  1
  O  O266  1  0.88164243  0.01108162  0.26426388  1
  O  O267  1  0.88189917  0.01248281  0.75238565  1
  O  O268  1  0.87267825  0.50778626  0.25861063  1
  O  O269  1  0.88818677  0.50499286  0.75906938  1
  O  O270  1  0.11912591  0.36711352  0.36431521  1
  O  O271  1  0.12409968  0.37164958  0.86953198  1
  O  O272  1  0.11290016  0.86959375  0.36561966  1
  O  O273  1  0.09362736  0.87632678  0.88177771  1
  O  O274  1  0.62840728  0.36764805  0.37745079  1
  O  O275  1  0.64395637  0.39824780  0.86487315  1
  O  O276  1  0.62625017  0.86229811  0.36543456  1
  O  O277  1  0.58920202  0.88758053  0.88119509  1
  O  O278  1  0.38405754  0.14449662  0.11337140  1
  O  O279  1  0.39274046  0.13320436  0.61953718  1
  O  O280  1  0.36631510  0.62851779  0.13516701  1
  O  O281  1  0.38040083  0.64019640  0.63170308  1
  O  O282  1  0.88285528  0.13406733  0.13514995  1
  O  O283  1  0.88337582  0.13873514  0.62144950  1
  O  O284  1  0.88803426  0.61890179  0.12964056  1
  O  O285  1  0.87135554  0.63137269  0.62995050  1
  O  O286  1  0.26002724  0.26042572  0.11989345  1
  O  O287  1  0.26015489  0.26110716  0.61367671  1
  O  O288  1  0.26749080  0.76322801  0.13806701  1
  O  O289  1  0.25864751  0.76454389  0.61671721  1
  O  O290  1  0.76224159  0.24336527  0.12852006  1
  O  O291  1  0.75921054  0.25793185  0.61601503  1
  O  O292  1  0.75025004  0.72659089  0.13318736  1
  O  O293  1  0.75971641  0.75763219  0.61997992  1
  O  O294  1  0.24380385  0.25240283  0.38235062  1
  O  O295  1  0.24296114  0.25737175  0.89133766  1
  O  O296  1  0.23448464  0.76193305  0.38437312  1
  O  O297  1  0.25098464  0.74110537  0.86248848  1
  O  O298  1  0.75073599  0.24473648  0.38111029  1
  O  O299  1  0.74583569  0.25848709  0.89215745  1
  O  O300  1  0.73824056  0.74173934  0.38402341  1
  O  O301  1  0.74781196  0.74000248  0.86362706  1
  O  O302  1  0.01459059  0.13165240  0.01193604  1
  O  O303  1  -0.00537934  0.10708947  0.49504128  1
  O  O304  1  0.00965400  0.61578886  0.00863650  1
  O  O305  1  -0.00202042  0.60827179  0.49629472  1
  O  O306  1  0.51618013  0.10448094  0.00335228  1
  O  O307  1  0.50554777  0.10962807  0.51047478  1
  O  O308  1  0.53162759  0.67349180  -0.00863937  1
  O  O309  1  0.50660018  0.61945722  0.51115003  1
  O  O310  1  0.49082099  0.39447703  0.51382663  1
  O  O311  1  0.48026445  0.38758998  1.01509196  1
  O  O312  1  0.48952167  0.88489878  0.50584123  1
  O  O313  1  0.47466836  0.89421198  0.99600740  1
  O  O314  1  0.99926185  0.38560604  0.48358494  1
  O  O315  1  0.99836587  0.37987452  0.99220667  1
  O  O316  1  0.98741565  0.88125372  0.49109824  1
  O  O317  1  0.99493185  0.89652500  1.00687606  1
  O  O318  1  0.48461631  0.50274718  0.38902388  1
  O  O319  1  0.48478495  0.52324970  0.89430672  1
  O  O320  1  0.50721910  1.00117028  0.39295906  1
  O  O321  1  0.48327085  0.99757167  0.88872291  1
  O  O322  1  0.99335060  0.49458425  0.37672575  1
  O  O323  1  0.99641604  0.49401073  0.88441724  1
  O  O324  1  0.98600013  0.98935178  0.38414411  1
  O  O325  1  1.00867591  1.01325512  0.88548125  1
  O  O326  1  -0.00666850  0.01705427  0.13194265  1
  O  O327  1  -0.00580201  -0.00309050  0.60620307  1
  O  O328  1  0.00274596  0.50463006  0.11410455  1
  O  O329  1  -0.00588164  0.49467205  0.60379952  1
  O  O330  1  0.48105429  0.01386679  0.10813318  1
  O  O331  1  0.51224159  0.00615557  0.62128405  1
  O  O332  1  0.49425891  0.52244989  0.11123892  1
  O  O333  1  0.50940684  0.50999689  0.62511001  1
  O  O334  1  0.23829441  0.38575202  0.24054298  1
  O  O335  1  0.24506559  0.38842443  0.74117788  1
  O  O336  1  0.23342969  0.88740750  0.25460272  1
  O  O337  1  0.24897917  0.88948096  0.72961654  1
  O  O338  1  0.75908828  0.39043437  0.25177253  1
  O  O339  1  0.75458176  0.38516014  0.74848133  1
  O  O340  1  0.72307785  0.86928537  0.24772412  1
  O  O341  1  0.76219255  0.87329590  0.73558455  1
  O  O342  1  0.25252827  0.11958219  0.24783890  1
  O  O343  1  0.24973967  0.11693705  0.74812328  1
  O  O344  1  0.23050541  0.61032608  0.24552953  1
  O  O345  1  0.25366894  0.62079902  0.75562076  1
  O  O346  1  0.76401795  0.12883861  0.25921360  1
  O  O347  1  0.77559592  0.12183441  0.73888325  1
  O  O348  1  0.75761816  0.60843375  0.25670829  1
  O  O349  1  0.76622835  0.62766972  0.75845927  1
  O  O350  1  0.38729386  0.13081141  0.37493189  1
  O  O351  1  0.40801316  0.17854964  0.85938007  1
  O  O352  1  0.37258173  0.61397156  0.38416853  1
  O  O353  1  0.36320673  0.62430984  0.87300789  1
  O  O354  1  0.86889219  0.11955283  0.36920237  1
  O  O355  1  0.87688147  0.14239992  0.85852223  1
  O  O356  1  0.87050414  0.61724940  0.36709198  1
  O  O357  1  0.87421738  0.61372158  0.86430291  1
  O  O358  1  0.13032573  0.37090724  0.13469434  1
  O  O359  1  0.14065896  0.36601474  0.63582247  1
  O  O360  1  0.12071040  0.86539753  0.14498790  1
  O  O361  1  0.13780195  0.87303502  0.61136789  1
  O  O362  1  0.63003415  0.37257033  0.12265957  1
  O  O363  1  0.63576954  0.38881700  0.63014079  1
  O  O364  1  0.61291172  0.88002151  0.14189185  1
  O  O365  1  0.63434921  0.88635316  0.62331290  1
  O  O366  1  0.12262937  0.25664383  0.25732803  1
  O  O367  1  0.13945844  0.26414628  0.76289925  1
  O  O368  1  0.12916608  0.76078431  0.26602349  1
  O  O369  1  0.11335854  0.73556625  0.74137335  1
  O  O370  1  0.62758338  0.24947463  0.26325148  1
  O  O371  1  0.63724893  0.25372267  0.74397738  1
  O  O372  1  0.61493629  0.73114043  0.27041074  1
  O  O373  1  0.61026311  0.75325550  0.74232150  1
  O  O374  1  0.37178496  0.25314909  0.23078312  1
  O  O375  1  0.36596820  0.25207970  0.72839218  1
  O  O376  1  0.36906809  0.73707573  0.26123922  1
  O  O377  1  0.37743821  0.75338335  0.73940725  1
  O  O378  1  0.88094960  0.24233384  0.24636821  1
  O  O379  1  0.87253117  0.24592609  0.73306000  1
  O  O380  1  0.86803282  0.73535697  0.26117506  1
  O  O381  1  0.88641957  0.73872550  0.73854364  1
  O  O382  1  0.37904854  0.49961076  0.49630846  1
  O  O383  1  0.36074268  0.49264653  0.99453323  1
  O  O384  1  0.38876872  0.98968371  0.50476409  1
  O  O385  1  0.36500206  1.01880189  0.99438962  1
  O  O386  1  0.88272743  0.49736755  0.48431226  1
  O  O387  1  0.88579576  0.49314946  0.98983098  1
  O  O388  1  0.88021056  0.99062588  0.49280289  1
  O  O389  1  0.85605682  1.01326356  0.96597309  1
  O  O390  1  0.13873074  0.02219830  -0.00216369  1
  O  O391  1  0.10835819  -0.00166340  0.48848465  1
  O  O392  1  0.11641931  0.50451435  0.00212074  1
  O  O393  1  0.11145960  0.49833615  0.48457282  1
  O  O394  1  0.65301530  0.00600814  0.01978711  1
  O  O395  1  0.61434440  -0.00429653  0.50731186  1
  O  O396  1  0.64151066  0.48642879  0.00813125  1
  O  O397  1  0.61815577  0.50816581  0.50823873  1
  O  O398  1  0.36318436  0.37522298  0.12016654  1
  O  O399  1  0.36752212  0.37160643  0.61752331  1
  O  O400  1  0.36511766  0.88731014  0.10120647  1
  O  O401  1  0.36878096  0.87099674  0.61660640  1
  O  O402  1  0.88559589  0.36455365  0.11806838  1
  O  O403  1  0.86125698  0.37097098  0.62712182  1
  O  O404  1  0.84583223  0.89886543  0.12349465  1
  O  O405  1  0.87010811  0.86726219  0.61488693  1
  O  O406  1  0.11596027  0.13927924  0.38284424  1
  O  O407  1  0.11935588  0.14139413  0.89088625  1
  O  O408  1  0.11786853  0.64172466  0.37719650  1
  O  O409  1  0.12852291  0.62256267  0.88928968  1
  O  O410  1  0.64198174  0.13832989  0.37763657  1
  O  O411  1  0.62183516  0.10216272  0.89765902  1
  O  O412  1  0.62884683  0.63213462  0.39398866  1
  O  O413  1  0.64535881  0.61732102  0.87061736  1
