# generated using pymatgen
data_V79Zn79O256
_symmetry_space_group_name_H-M   'P 1'
_cell_length_a   16.95432540
_cell_length_b   16.91712606
_cell_length_c   16.99410350
_cell_angle_alpha   89.74226851
_cell_angle_beta   89.79128276
_cell_angle_gamma   89.84254331
_symmetry_Int_Tables_number   1
_chemical_formula_structural   V79Zn79O256
_chemical_formula_sum   'V79 Zn79 O256'
_cell_volume   4874.12275319
_cell_formula_units_Z   1
loop_
 _symmetry_equiv_pos_site_id
 _symmetry_equiv_pos_as_xyz
  1  'x, y, z'
loop_
 _atom_site_type_symbol
 _atom_site_label
 _atom_site_symmetry_multiplicity
 _atom_site_fract_x
 _atom_site_fract_y
 _atom_site_fract_z
 _atom_site_occupancy
  V  V0  1  0.87626872  0.48837102  0.37340394  1
  V  V1  1  0.12396936  0.75031336  0.37313036  1
  V  V2  1  0.49892798  0.37200639  0.87592104  1
  V  V3  1  0.37695136  0.50091066  0.37734045  1
  V  V4  1  0.50604545  0.75673776  0.75060780  1
  V  V5  1  0.62728863  0.37610229  0.75224659  1
  V  V6  1  0.63019866  0.24380092  0.37342419  1
  V  V7  1  0.00066236  0.63985359  0.12537752  1
  V  V8  1  0.87949170  0.23944918  0.12656326  1
  V  V9  1  0.75753092  0.37671444  0.61911167  1
  V  V10  1  0.50079165  0.62592528  0.62625863  1
  V  V11  1  -0.00020316  -0.00104646  0.49878987  1
  V  V12  1  0.73669925  0.74437227  0.50207720  1
  V  V13  1  0.37286477  0.50325876  0.87324561  1
  V  V14  1  0.02581934  0.37016297  0.37058478  1
  V  V15  1  0.37365904  0.12577772  0.75031492  1
  V  V16  1  0.50512583  0.50380466  0.50158565  1
  V  V17  1  0.13375673  0.87023328  0.24216539  1
  V  V18  1  0.62419658  0.49793814  0.12472529  1
  V  V19  1  0.49511274  0.12746647  0.62179206  1
  V  V20  1  0.01140534  0.50086112  0.00791021  1
  V  V21  1  0.87594462  0.38126638  -0.00357366  1
  V  V22  1  -0.01146402  0.62648622  0.62565435  1
  V  V23  1  0.49474386  0.11323842  0.11857919  1
  V  V24  1  0.62177684  0.12396334  0.00103689  1
  V  V25  1  0.75184205  0.37555242  0.12485078  1
  V  V26  1  0.24116542  0.00666135  0.74904804  1
  V  V27  1  0.50278477  0.87645491  0.87739527  1
  V  V28  1  0.12909356  0.62720632  0.49922114  1
  V  V29  1  0.50150207  0.62790045  0.12264069  1
  V  V30  1  0.87661968  0.24490456  0.62535521  1
  V  V31  1  0.37458550  0.00163241  0.87655043  1
  V  V32  1  0.86275631  0.12476558  0.27733016  1
  V  V33  1  0.25007582  0.11070490  0.37372721  1
  V  V34  1  0.50954682  0.75682695  0.25205761  1
  V  V35  1  0.24072560  0.87550062  0.62229562  1
  V  V36  1  0.12688528  0.49543842  0.62667819  1
  V  V37  1  0.51141451  0.87027150  0.37005853  1
  V  V38  1  0.68088287  0.19493957  0.82673524  1
  V  V39  1  0.49519546  -0.00216543  0.49443876  1
  V  V40  1  0.75753979  0.50447243  0.76430940  1
  V  V41  1  0.73843815  0.62793522  0.37418740  1
  V  V42  1  0.75439948  0.75516700  0.02740875  1
  V  V43  1  0.63502975  0.74467834  0.87592260  1
  V  V44  1  0.63326104  -0.01060460  0.62891256  1
  V  V45  1  0.11066759  0.12081507  0.00363024  1
  V  V46  1  0.25496966  0.25362234  0.00182432  1
  V  V47  1  0.62640646  0.37256411  0.24828976  1
  V  V48  1  0.25210190  0.62912409  0.37955027  1
  V  V49  1  0.37264628  0.87510908  0.49411496  1
  V  V50  1  0.86587402  0.01385259  0.87330693  1
  V  V51  1  0.00484456  0.11760431  0.63050727  1
  V  V52  1  0.25184004  0.50330924  0.75116452  1
  V  V53  1  0.50254760  0.37369509  0.37671393  1
  V  V54  1  0.37895308  0.36474466  0.50502088  1
  V  V55  1  0.49799838  0.24782383  0.24607472  1
  V  V56  1  0.24483999  0.24884626  0.49128730  1
  V  V57  1  0.37469224  0.10948651  0.25627567  1
  V  V58  1  0.37560594  0.62711233  0.25387699  1
  V  V59  1  0.36493252  0.87785972  0.00038186  1
  V  V60  1  -0.00391301  0.87238318  0.37195939  1
  V  V61  1  0.49601228  0.49510711  -0.00105827  1
  V  V62  1  0.00197498  0.37890956  0.87526215  1
  V  V63  1  0.24867060  0.73444123  -0.02683095  1
  V  V64  1  0.88293236  0.63649396  0.25001169  1
  V  V65  1  0.00384956  0.87731739  0.88749065  1
  V  V66  1  0.25530399  0.36601011  0.62438122  1
  V  V67  1  0.63538839  -0.00917532  0.13320383  1
  V  V68  1  -0.00236628  0.24997693  0.75310741  1
  V  V69  1  0.01355616  0.24672105  0.25000804  1
  V  V70  1  0.36523480  0.75379964  0.12481351  1
  V  V71  1  0.62731509  0.50806242  0.62248109  1
  V  V72  1  0.74789636  0.24518647  0.00009750  1
  V  V73  1  0.87460440  0.86423323  0.51133504  1
  V  V74  1  -0.00340487  0.49182108  0.49618861  1
  V  V75  1  0.63112342  0.12160647  0.49294055  1
  V  V76  1  0.37090021  0.75130062  0.62262564  1
  V  V77  1  0.75665475  0.25191356  0.49589065  1
  V  V78  1  0.49403632  0.24897407  0.74846606  1
  Zn  Zn79  1  0.75358807  0.49954499  0.25024010  1
  Zn  Zn80  1  0.86797656  0.87985342  0.00188789  1
  Zn  Zn81  1  0.12468577  0.12164533  0.49720309  1
  Zn  Zn82  1  0.74645470  0.97892574  0.75344111  1
  Zn  Zn83  1  0.37102155  0.26204615  0.12213174  1
  Zn  Zn84  1  0.36999923  0.63181634  0.75565120  1
  Zn  Zn85  1  0.12808577  0.37099242  0.75248957  1
  Zn  Zn86  1  0.24464515  0.48320956  0.24675221  1
  Zn  Zn87  1  -0.01677231  0.75994043  0.74843588  1
  Zn  Zn88  1  0.14353902  1.00657488  0.12677551  1
  Zn  Zn89  1  0.84519563  0.64550433  0.78365843  1
  Zn  Zn90  1  0.12028118  0.88488906  0.75258214  1
  Zn  Zn91  1  0.13056519  0.48292066  0.13345675  1
  Zn  Zn92  1  0.13861023  0.23701907  0.87196964  1
  Zn  Zn93  1  0.63639111  0.62134062  -0.00618649  1
  Zn  Zn94  1  0.19125779  0.18329214  0.18092283  1
  Zn  Zn95  1  0.18354449  0.18809445  0.68385613  1
  Zn  Zn96  1  0.20582308  0.64345416  0.15979794  1
  Zn  Zn97  1  0.18384838  0.68444330  0.68583544  1
  Zn  Zn98  1  0.68913130  0.17898532  0.18553596  1
  Zn  Zn99  1  0.68736568  0.18012735  0.66438976  1
  Zn  Zn100  1  0.68929396  0.68436417  0.19203682  1
  Zn  Zn101  1  0.79607964  0.80278451  0.67216155  1
  Zn  Zn102  1  0.31915482  0.30575761  0.31617114  1
  Zn  Zn103  1  0.31404803  0.31515117  0.81507190  1
  Zn  Zn104  1  0.31071693  0.80871599  0.31458823  1
  Zn  Zn105  1  0.31428723  0.81901336  0.80634488  1
  Zn  Zn106  1  0.81551517  0.30781987  0.30909763  1
  Zn  Zn107  1  0.82079023  0.32101194  0.80857364  1
  Zn  Zn108  1  0.81570459  0.81050679  0.32063437  1
  Zn  Zn109  1  0.81453097  0.82364868  0.82617853  1
  Zn  Zn110  1  0.19339045  0.44178700  0.43817238  1
  Zn  Zn111  1  0.18659511  0.43139496  0.93740998  1
  Zn  Zn112  1  0.18287322  0.93756819  0.44063966  1
  Zn  Zn113  1  0.18562153  0.94448971  0.93698133  1
  Zn  Zn114  1  0.68902279  0.43738140  0.43478761  1
  Zn  Zn115  1  0.68340728  0.43515016  0.94006783  1
  Zn  Zn116  1  0.68575563  0.92731636  0.44418050  1
  Zn  Zn117  1  0.68979858  0.93888480  0.94247230  1
  Zn  Zn118  1  0.30374468  0.07425114  0.05520501  1
  Zn  Zn119  1  0.31087720  0.06005570  0.56340811  1
  Zn  Zn120  1  0.31342635  0.55428329  0.05669140  1
  Zn  Zn121  1  0.31636085  0.55932127  0.56402979  1
  Zn  Zn122  1  0.81297631  0.05814692  0.06092148  1
  Zn  Zn123  1  0.81896782  0.05855748  0.55695629  1
  Zn  Zn124  1  0.81769796  0.56847180  0.06116273  1
  Zn  Zn125  1  0.80963586  0.56348859  0.55781874  1
  Zn  Zn126  1  0.43905790  0.44010178  0.19171150  1
  Zn  Zn127  1  0.43633341  0.43649225  0.68863188  1
  Zn  Zn128  1  0.31810482  0.93567143  0.18629820  1
  Zn  Zn129  1  0.43734101  0.93881686  0.68508368  1
  Zn  Zn130  1  0.93829718  0.43316353  0.19210488  1
  Zn  Zn131  1  0.93840322  0.43855870  0.68704745  1
  Zn  Zn132  1  0.97903815  0.97532151  0.22364919  1
  Zn  Zn133  1  0.93311504  0.94134544  0.69876575  1
  Zn  Zn134  1  0.06686183  0.06535168  0.31719535  1
  Zn  Zn135  1  0.05425829  0.06272392  0.82281677  1
  Zn  Zn136  1  0.06618688  0.56101407  0.30579891  1
  Zn  Zn137  1  0.01409571  0.58853185  0.83509829  1
  Zn  Zn138  1  0.56087290  0.05527886  0.30942695  1
  Zn  Zn139  1  0.55903239  0.05537116  0.80890405  1
  Zn  Zn140  1  0.56042262  0.56145841  0.30826325  1
  Zn  Zn141  1  0.56469638  0.56475135  0.80898821  1
  Zn  Zn142  1  0.43766202  0.18485621  0.43432998  1
  Zn  Zn143  1  0.43198142  0.19135031  0.93547119  1
  Zn  Zn144  1  0.44096071  0.69089230  0.44059599  1
  Zn  Zn145  1  0.43493085  0.68819246  0.93933863  1
  Zn  Zn146  1  0.94205667  0.19085762  0.43868131  1
  Zn  Zn147  1  0.93670215  0.18763663  0.93917347  1
  Zn  Zn148  1  0.93755971  0.68229705  0.43760320  1
  Zn  Zn149  1  0.92985286  0.69951555  0.94340301  1
  Zn  Zn150  1  0.06846505  0.30639519  0.06401910  1
  Zn  Zn151  1  0.06475548  0.30998592  0.55992026  1
  Zn  Zn152  1  0.07458100  0.80944173  0.05488038  1
  Zn  Zn153  1  0.05955962  0.80731925  0.56114249  1
  Zn  Zn154  1  0.56329406  0.30830398  0.06063104  1
  Zn  Zn155  1  0.56816337  0.31353816  0.56343223  1
  Zn  Zn156  1  0.55871138  0.81463006  0.05798330  1
  Zn  Zn157  1  0.56163461  0.81020998  0.56115952  1
  O  O158  1  0.12368666  0.12278870  0.11329961  1
  O  O159  1  0.10802299  0.12939658  0.61844511  1
  O  O160  1  0.09955966  0.61721868  0.13313223  1
  O  O161  1  0.12334395  0.61209796  0.61426814  1
  O  O162  1  0.61335005  0.12256095  0.11946750  1
  O  O163  1  0.61309589  0.11569409  0.60979392  1
  O  O164  1  0.61180232  0.61729067  0.13020999  1
  O  O165  1  0.61293153  0.61072159  0.62411600  1
  O  O166  1  0.38409052  0.37967985  0.38554327  1
  O  O167  1  0.39251940  0.38679951  0.86541989  1
  O  O168  1  0.37437383  0.86797123  0.39145604  1
  O  O169  1  0.38095140  0.88405768  0.87806262  1
  O  O170  1  0.87159825  0.38616776  0.37211705  1
  O  O171  1  0.88682551  0.36995147  0.88638245  1
  O  O172  1  0.89298075  0.86807625  0.38455873  1
  O  O173  1  0.88534107  0.88599105  0.88432473  1
  O  O174  1  0.25393241  0.01127741  0.38350744  1
  O  O175  1  0.26120623  -0.00529290  0.85497398  1
  O  O176  1  0.26063471  0.50810097  0.36980883  1
  O  O177  1  0.26080827  0.48631527  0.86386550  1
  O  O178  1  0.74950399  -0.03731125  0.34182090  1
  O  O179  1  0.75601443  -0.00271110  0.87049991  1
  O  O180  1  0.75842036  0.50968847  0.37677951  1
  O  O181  1  0.74631699  0.48999358  0.86345278  1
  O  O182  1  0.24122010  0.53255257  0.13746928  1
  O  O183  1  0.24601684  0.48889462  0.62739911  1
  O  O184  1  0.25601559  1.00426088  0.12668508  1
  O  O185  1  0.25616090  0.98698611  0.63715010  1
  O  O186  1  0.74480235  0.48815969  0.12248899  1
  O  O187  1  0.74229062  0.49206824  0.62060059  1
  O  O188  1  0.73515180  1.00336005  0.12240198  1
  O  O189  1  0.73545143  1.00760074  0.62047030  1
  O  O190  1  -0.00071614  0.36372163  0.26462806  1
  O  O191  1  0.00067247  0.36914127  0.75673834  1
  O  O192  1  0.00767787  0.86836929  0.26973059  1
  O  O193  1  0.00838451  0.87264674  0.74803964  1
  O  O194  1  0.50635629  0.36639145  0.25611330  1
  O  O195  1  0.50888117  0.36698089  0.75057906  1
  O  O196  1  0.49302786  0.86984959  0.26896306  1
  O  O197  1  0.49125408  0.86777764  0.76227926  1
  O  O198  1  0.49379007  0.12821946  0.24081364  1
  O  O199  1  0.49486173  0.13029504  0.74113180  1
  O  O200  1  0.49287444  0.63463181  0.24602548  1
  O  O201  1  0.49739474  0.63230443  0.73792704  1
  O  O202  1  0.99064707  0.14393951  0.27022120  1
  O  O203  1  1.00246243  0.13331010  0.73597988  1
  O  O204  1  0.99023793  0.62565443  0.24323807  1
  O  O205  1  0.99507913  0.60162997  0.72268302  1
  O  O206  1  0.36451614  0.25183947  0.00223638  1
  O  O207  1  0.37252198  0.25983440  0.49750153  1
  O  O208  1  0.36514772  0.75581789  0.00575414  1
  O  O209  1  0.38065856  0.75869143  0.51476902  1
  O  O210  1  0.86751164  0.25925235  0.00708523  1
  O  O211  1  0.86263026  0.24951071  0.50649140  1
  O  O212  1  0.85931423  0.75682765  0.01113993  1
  O  O213  1  0.87650095  0.76022308  0.49794030  1
  O  O214  1  0.14038186  0.24461921  0.50151233  1
  O  O215  1  0.13047982  0.23764534  0.99639519  1
  O  O216  1  0.12490158  0.73366574  0.49425963  1
  O  O217  1  0.15222497  0.75103318  0.99867100  1
  O  O218  1  0.63049607  0.24162353  0.49238353  1
  O  O219  1  0.63588383  0.24227431  1.00076399  1
  O  O220  1  0.63735053  0.75535242  0.49579663  1
  O  O221  1  0.63098522  0.74783051  0.99094165  1
  O  O222  1  0.49645387  0.25038224  0.13545094  1
  O  O223  1  0.51215795  0.23995199  0.63663862  1
  O  O224  1  0.49150223  0.74349390  0.12884633  1
  O  O225  1  0.49581107  0.74453517  0.63056511  1
  O  O226  1  0.99052119  0.26009754  0.14239447  1
  O  O227  1  0.99321744  0.24674362  0.62860652  1
  O  O228  1  0.99991203  0.73757146  0.11152316  1
  O  O229  1  1.01066777  0.72939909  0.63038669  1
  O  O230  1  0.00193063  0.26521260  0.37127028  1
  O  O231  1  -0.00532107  0.25657135  0.86182902  1
  O  O232  1  0.01355651  0.75943375  0.38691014  1
  O  O233  1  -0.00864147  0.77283533  0.87232385  1
  O  O234  1  0.51086254  0.25295036  0.36801753  1
  O  O235  1  0.49719356  0.25894399  0.86096063  1
  O  O236  1  0.49577828  0.76032992  0.36860456  1
  O  O237  1  0.49578594  0.75985529  0.86824142  1
  O  O238  1  0.25560115  0.13007857  0.49035369  1
  O  O239  1  0.23891572  0.14116498  0.99318450  1
  O  O240  1  0.24296783  0.61273737  0.48944051  1
  O  O241  1  0.26341396  0.63564431  0.99215930  1
  O  O242  1  0.73866420  0.13496077  0.50581615  1
  O  O243  1  0.74135726  0.13958059  1.00332361  1
  O  O244  1  0.75392322  0.63184682  0.48295141  1
  O  O245  1  0.74816196  0.64399329  1.01296974  1
  O  O246  1  0.23598679  0.35818223  0.00776874  1
  O  O247  1  0.25993935  0.36837640  0.50360593  1
  O  O248  1  0.26240427  0.86494723  -0.01404181  1
  O  O249  1  0.25653122  0.88409384  0.51634058  1
  O  O250  1  0.75403513  0.36683403  0.00589962  1
  O  O251  1  0.73837180  0.36322210  0.51009396  1
  O  O252  1  0.74594686  0.85725580  -0.00194773  1
  O  O253  1  0.76508312  0.85876674  0.49029411  1
  O  O254  1  0.13059549  0.49167627  0.24941707  1
  O  O255  1  0.13523675  0.49327884  0.73414784  1
  O  O256  1  0.09726220  0.98574083  0.23577225  1
  O  O257  1  0.14035384  1.01098571  0.75199200  1
  O  O258  1  0.62617213  0.49019605  0.24235191  1
  O  O259  1  0.63258923  0.49272448  0.74102486  1
  O  O260  1  0.62058723  1.00300054  0.23249948  1
  O  O261  1  0.62706631  1.00552880  0.73241645  1
  O  O262  1  0.38051557  0.01101918  0.25036403  1
  O  O263  1  0.37075017  0.00828686  0.75437783  1
  O  O264  1  0.38582851  0.51634710  0.26169581  1
  O  O265  1  0.36881343  0.50111371  0.75519317  1
  O  O266  1  0.88637226  0.02891957  0.25191785  1
  O  O267  1  0.86125054  0.00061875  0.76149948  1
  O  O268  1  0.87382352  0.50464352  0.25882177  1
  O  O269  1  0.85733374  0.49134830  0.74593621  1
  O  O270  1  0.12460762  0.37484458  0.37209918  1
  O  O271  1  0.11098914  0.36774217  0.87260993  1
  O  O272  1  0.12075476  0.86684674  0.37471317  1
  O  O273  1  0.10988623  0.88926500  0.87022134  1
  O  O274  1  0.62110390  0.36567856  0.36897137  1
  O  O275  1  0.61482810  0.37929933  0.86007148  1
  O  O276  1  0.60991708  0.87166063  0.37857253  1
  O  O277  1  0.60704527  0.86545959  0.88474812  1
  O  O278  1  0.38750636  0.12642209  0.13518441  1
  O  O279  1  0.38891321  0.11834559  0.63235329  1
  O  O280  1  0.38733709  0.63047845  0.13538887  1
  O  O281  1  0.38360542  0.63288659  0.62454712  1
  O  O282  1  0.87160529  0.13949930  0.12015160  1
  O  O283  1  0.88529415  0.13752751  0.61766032  1
  O  O284  1  0.88490778  0.61697392  0.14269844  1
  O  O285  1  0.88952526  0.62277092  0.61117654  1
  O  O286  1  0.25710936  0.24102697  0.11134491  1
  O  O287  1  0.24852180  0.26038500  0.61592468  1
  O  O288  1  0.26502283  0.73736876  0.12722042  1
  O  O289  1  0.25850678  0.76296322  0.63729771  1
  O  O290  1  0.75537667  0.25808990  0.11797745  1
  O  O291  1  0.75631852  0.25643824  0.61661491  1
  O  O292  1  0.74287098  0.75998451  0.12649868  1
  O  O293  1  0.75114055  0.73270937  0.59948110  1
  O  O294  1  0.25851770  0.24062760  0.38560409  1
  O  O295  1  0.25178962  0.25780364  0.88730456  1
  O  O296  1  0.24126177  0.73810669  0.37759955  1
  O  O297  1  0.26050655  0.74436055  0.87313977  1
  O  O298  1  0.73769659  0.25817706  0.38263096  1
  O  O299  1  0.74746053  0.25531477  0.87960190  1
  O  O300  1  0.75326971  0.73391737  0.37946590  1
  O  O301  1  0.73443183  0.74637107  0.87381894  1
  O  O302  1  0.00990667  0.13292683  0.00579045  1
  O  O303  1  -0.00010441  0.11835474  0.50758780  1
  O  O304  1  -0.01294439  0.60745922  0.01701860  1
  O  O305  1  0.01076975  0.61276336  0.50439662  1
  O  O306  1  0.50593978  0.13903078  0.01277133  1
  O  O307  1  0.50534036  0.11793105  0.50334049  1
  O  O308  1  0.49902792  0.61676057  0.01161491  1
  O  O309  1  0.49481606  0.61299703  0.51004912  1
  O  O310  1  0.49617558  0.37942778  0.49835682  1
  O  O311  1  0.50996062  0.38300240  0.98876806  1
  O  O312  1  0.49225068  0.87878366  0.49176240  1
  O  O313  1  0.48146152  0.86686263  0.98345603  1
  O  O314  1  1.00947665  0.38118148  0.48412866  1
  O  O315  1  0.99375352  0.37876150  0.99490623  1
  O  O316  1  0.99291008  0.87762610  0.49815985  1
  O  O317  1  1.00477102  0.87411707  0.98986572  1
  O  O318  1  0.49895609  0.49537860  0.38426597  1
  O  O319  1  0.49755443  0.49325027  0.88023947  1
  O  O320  1  0.50340428  0.98833615  0.38667685  1
  O  O321  1  0.49173264  0.98505843  0.86845602  1
  O  O322  1  0.99795490  0.48613459  0.37704990  1
  O  O323  1  1.00479344  0.48810313  0.89369727  1
  O  O324  1  1.00727876  0.98229386  0.38381955  1
  O  O325  1  0.98064693  0.98878850  0.86476420  1
  O  O326  1  -0.04929276  -0.05445410  0.11478840  1
  O  O327  1  -0.00844131  0.01503586  0.62196462  1
  O  O328  1  0.00260121  0.48725673  0.11331206  1
  O  O329  1  0.00838121  0.49702909  0.61213031  1
  O  O330  1  0.50583910  0.01637877  0.11778129  1
  O  O331  1  0.50977651  0.00670579  0.61534413  1
  O  O332  1  0.50232965  0.50358776  0.11749285  1
  O  O333  1  0.50583433  0.50458580  0.62098065  1
  O  O334  1  0.29122311  0.37583023  0.22803150  1
  O  O335  1  0.25187178  0.38020756  0.73819574  1
  O  O336  1  0.23791157  0.88238009  0.25826823  1
  O  O337  1  0.24400997  0.88670869  0.74040485  1
  O  O338  1  0.74531695  0.37291997  0.23849972  1
  O  O339  1  0.74259369  0.37882134  0.73962744  1
  O  O340  1  0.75330657  0.90803932  0.28865667  1
  O  O341  1  0.74452071  0.86591273  0.74760559  1
  O  O342  1  0.26518043  0.12947611  0.26232644  1
  O  O343  1  0.26116366  0.11537801  0.73467396  1
  O  O344  1  0.26664471  0.63043321  0.26469119  1
  O  O345  1  0.25340802  0.60738805  0.73921980  1
  O  O346  1  0.76357463  0.13404208  0.25504292  1
  O  O347  1  0.73443665  0.14013904  0.76278576  1
  O  O348  1  0.76095148  0.62129507  0.25994241  1
  O  O349  1  0.74625830  0.60403529  0.74956715  1
  O  O350  1  0.37255392  0.12224065  0.36353814  1
  O  O351  1  0.38693111  0.11484533  0.85978897  1
  O  O352  1  0.37138963  0.62399781  0.37403349  1
  O  O353  1  0.38563430  0.60794476  0.87101758  1
  O  O354  1  0.86637557  0.13199707  0.37754023  1
  O  O355  1  0.87669054  0.11460558  0.87712899  1
  O  O356  1  0.87646769  0.61415098  0.36325714  1
  O  O357  1  0.90978936  0.62030610  0.86902146  1
  O  O358  1  0.14302046  0.37130333  0.11470162  1
  O  O359  1  0.13617702  0.38180136  0.62015106  1
  O  O360  1  0.12385736  0.86708344  0.14243194  1
  O  O361  1  0.13897725  0.86489913  0.62585403  1
  O  O362  1  0.63320286  0.37682742  0.12785894  1
  O  O363  1  0.63243894  0.38077942  0.63582553  1
  O  O364  1  0.61453042  0.89456868  0.11234164  1
  O  O365  1  0.62140634  0.89079598  0.61609471  1
  O  O366  1  0.11182061  0.24168256  0.24444990  1
  O  O367  1  0.11298553  0.25137700  0.75072473  1
  O  O368  1  0.12777083  0.76442698  0.26453217  1
  O  O369  1  0.10552874  0.71380435  0.77019389  1
  O  O370  1  0.61809709  0.25035556  0.25582931  1
  O  O371  1  0.62281845  0.25270588  0.75571123  1
  O  O372  1  0.60820574  0.74827295  0.24323727  1
  O  O373  1  0.60889893  0.75154501  0.76777424  1
  O  O374  1  0.39093904  0.23751988  0.25324354  1
  O  O375  1  0.38454407  0.24062120  0.75057742  1
  O  O376  1  0.38311060  0.74589137  0.24399373  1
  O  O377  1  0.38448481  0.75002589  0.73836054  1
  O  O378  1  0.88097007  0.24002347  0.24430550  1
  O  O379  1  0.88468565  0.25563801  0.73649861  1
  O  O380  1  0.87133311  0.73567963  0.25401470  1
  O  O381  1  0.86843777  0.74996558  0.74821066  1
  O  O382  1  0.38676316  0.48975467  0.49658685  1
  O  O383  1  0.38824623  0.49781205  0.99135660  1
  O  O384  1  0.38771250  0.98992311  0.50904976  1
  O  O385  1  0.36547010  0.99582028  0.98347301  1
  O  O386  1  0.88993193  0.50508765  0.48876970  1
  O  O387  1  0.87955888  0.48457856  1.00863809  1
  O  O388  1  0.88649386  0.98342863  0.50095762  1
  O  O389  1  0.86451160  0.99683959  0.98323606  1
  O  O390  1  0.12910736  0.01240920  0.00753901  1
  O  O391  1  0.10710467  -0.00029950  0.50262569  1
  O  O392  1  0.11285639  0.49998010  0.00201337  1
  O  O393  1  0.11915791  0.50553904  0.50466270  1
  O  O394  1  0.62906497  0.01986962  0.00414264  1
  O  O395  1  0.61987739  0.00554478  0.50290264  1
  O  O396  1  0.61486432  0.50319869  0.00578591  1
  O  O397  1  0.61306053  0.48944799  0.50875800  1
  O  O398  1  0.34836420  0.37586585  0.16247202  1
  O  O399  1  0.36801983  0.37981357  0.61463652  1
  O  O400  1  0.37453218  0.86459069  0.11395340  1
  O  O401  1  0.36919027  0.86805589  0.61879138  1
  O  O402  1  0.86547820  0.36586110  0.12014824  1
  O  O403  1  0.86320046  0.36694851  0.62388399  1
  O  O404  1  0.89606849  0.89133124  0.11877868  1
  O  O405  1  0.87627637  0.87228019  0.61337058  1
  O  O406  1  0.14538050  0.12291698  0.37559574  1
  O  O407  1  0.11855164  0.12344594  0.89052916  1
  O  O408  1  0.13151927  0.62929515  0.37962372  1
  O  O409  1  0.11042233  0.66118483  0.83191258  1
  O  O410  1  0.61735632  0.13182780  0.38271976  1
  O  O411  1  0.61852812  0.13013272  0.87936867  1
  O  O412  1  0.63984205  0.61842579  0.36772239  1
  O  O413  1  0.61299994  0.64068520  0.87893864  1
