# generated using pymatgen
data_V79Zn79O256
_symmetry_space_group_name_H-M   'P 1'
_cell_length_a   16.90235258
_cell_length_b   16.95910306
_cell_length_c   16.96875668
_cell_angle_alpha   90.49100593
_cell_angle_beta   89.91136188
_cell_angle_gamma   89.82627351
_symmetry_Int_Tables_number   1
_chemical_formula_structural   V79Zn79O256
_chemical_formula_sum   'V79 Zn79 O256'
_cell_volume   4863.86572712
_cell_formula_units_Z   1
loop_
 _symmetry_equiv_pos_site_id
 _symmetry_equiv_pos_as_xyz
  1  'x, y, z'
loop_
 _atom_site_type_symbol
 _atom_site_label
 _atom_site_symmetry_multiplicity
 _atom_site_fract_x
 _atom_site_fract_y
 _atom_site_fract_z
 _atom_site_occupancy
  V  V0  1  0.00460612  0.00959428  0.00147992  1
  V  V1  1  0.89009411  0.00677417  0.37934061  1
  V  V2  1  0.13437666  0.37759555  0.74679740  1
  V  V3  1  -0.00050763  0.63526753  0.63378486  1
  V  V4  1  -0.00151292  0.37538905  0.87313166  1
  V  V5  1  0.25937582  0.86504720  0.12362443  1
  V  V6  1  0.10422628  0.00455894  0.62029309  1
  V  V7  1  0.75011388  0.24917554  0.50547355  1
  V  V8  1  0.50338625  0.62386418  0.62320645  1
  V  V9  1  0.12439397  0.00159327  0.12488466  1
  V  V10  1  0.63529422  0.00152935  0.11719057  1
  V  V11  1  -0.00078394  0.50641725  0.49859772  1
  V  V12  1  0.35504632  -0.00229106  0.87338787  1
  V  V13  1  0.38309223  0.62636873  0.24601934  1
  V  V14  1  0.37557139  0.12127489  0.25120987  1
  V  V15  1  0.87542342  0.37325233  -0.00151734  1
  V  V16  1  0.89104974  0.87889618  0.49131074  1
  V  V17  1  0.11075824  0.63397627  -0.02838464  1
  V  V18  1  0.26563346  0.74510868  -0.01767900  1
  V  V19  1  0.74692692  0.24284013  0.00341488  1
  V  V20  1  0.62699101  0.37147589  0.24872487  1
  V  V21  1  0.00128663  0.86569171  0.86884905  1
  V  V22  1  0.37778641  0.00022974  0.37950066  1
  V  V23  1  0.63030796  0.23792045  0.37728134  1
  V  V24  1  0.12636352  0.86771321  0.74673099  1
  V  V25  1  0.75259983  0.75365111  0.49772550  1
  V  V26  1  0.25617853  0.37165751  0.59892061  1
  V  V27  1  0.13092624  0.25352041  0.37607156  1
  V  V28  1  0.25366831  0.62646323  0.37512738  1
  V  V29  1  0.36212993  0.60846967  0.74985384  1
  V  V30  1  0.63380268  0.74807235  0.37367068  1
  V  V31  1  0.11413223  0.87067620  0.25834222  1
  V  V32  1  0.87863146  0.00686612  0.87303279  1
  V  V33  1  0.25332055  0.75310728  0.49874820  1
  V  V34  1  0.62489758  0.87567276  0.74843862  1
  V  V35  1  0.50406720  0.00366051  0.51839019  1
  V  V36  1  0.50038592  0.12127292  0.11896123  1
  V  V37  1  0.87853038  0.12833258  0.74044058  1
  V  V38  1  0.38322459  0.36844311  0.00107889  1
  V  V39  1  0.37303110  0.75109693  0.62477497  1
  V  V40  1  0.63997992  0.49498459  0.63231825  1
  V  V41  1  0.50227215  0.49722525  0.49919988  1
  V  V42  1  -0.00482140  0.50348756  0.00401522  1
  V  V43  1  0.49752883  0.37232793  0.37793497  1
  V  V44  1  0.87783813  0.72130129  0.15487343  1
  V  V45  1  0.11656360  0.37988058  0.24753679  1
  V  V46  1  0.62471234  0.35565438  0.76110225  1
  V  V47  1  0.75073862  0.01009815  0.26287049  1
  V  V48  1  0.87938151  0.75491109  0.63515972  1
  V  V49  1  0.75496227  0.36559002  0.13259534  1
  V  V50  1  0.50426404  0.87662128  0.37790503  1
  V  V51  1  0.11868026  0.13385064  0.50606533  1
  V  V52  1  0.49055328  -0.00819501  -0.00151705  1
  V  V53  1  0.62708875  0.11803900  0.51649927  1
  V  V54  1  0.63658201  0.87864858  0.24797311  1
  V  V55  1  0.37965025  0.49684702  0.37527409  1
  V  V56  1  0.51180467  0.60730039  0.12324123  1
  V  V57  1  0.13834858  0.24087742  0.87547668  1
  V  V58  1  0.86319924  0.88248405  0.00702723  1
  V  V59  1  0.74439817  0.13073294  0.87918788  1
  V  V60  1  0.86820573  0.37701422  0.50785973  1
  V  V61  1  0.37407269  0.87763091  0.50560943  1
  V  V62  1  0.74508231  0.00183035  0.74519667  1
  V  V63  1  0.88939763  0.13195538  0.24754738  1
  V  V64  1  0.24851891  0.01080848  0.73431867  1
  V  V65  1  0.50465718  0.75197365  0.24665240  1
  V  V66  1  0.12675992  0.50168668  0.62803575  1
  V  V67  1  0.63707486  0.74490528  0.88215487  1
  V  V68  1  0.25317114  -0.00317886  0.25459793  1
  V  V69  1  0.00189136  0.24791789  0.74124707  1
  V  V70  1  0.50019838  0.74738137  0.75405092  1
  V  V71  1  -0.00380256  0.37034056  0.37297503  1
  V  V72  1  0.74869270  0.50684705  0.25193893  1
  V  V73  1  0.86680476  0.51122141  0.37311226  1
  V  V74  1  0.49514604  0.24613694  0.24977611  1
  V  V75  1  0.11643648  0.52409381  0.13316923  1
  V  V76  1  0.40039369  0.23255710  0.62285164  1
  V  V77  1  0.63238331  0.62671667  0.49543661  1
  V  V78  1  0.63473975  0.60434778  0.00162836  1
  Zn  Zn79  1  0.12568148  0.62987573  0.49757131  1
  Zn  Zn80  1  0.91223220  0.24327296  0.12646717  1
  Zn  Zn81  1  0.24254613  0.37160375  0.11842100  1
  Zn  Zn82  1  0.49019649  0.85915056  0.89051862  1
  Zn  Zn83  1  0.59090010  0.23857579  0.89364021  1
  Zn  Zn84  1  0.25806143  0.50323554  0.23856133  1
  Zn  Zn85  1  0.38677088  0.74968737  0.10617231  1
  Zn  Zn86  1  0.75511349  0.74459518  0.01027505  1
  Zn  Zn87  1  0.87436006  0.25699350  0.62651930  1
  Zn  Zn88  1  0.14347288  0.12392650  -0.00280045  1
  Zn  Zn89  1  0.25741248  0.13701963  0.38715532  1
  Zn  Zn90  1  0.12049366  0.75597399  0.37432288  1
  Zn  Zn91  1  0.30852427  0.21913704  0.08486485  1
  Zn  Zn92  1  0.37538261  0.49024055  0.88422078  1
  Zn  Zn93  1  0.74858387  0.88115373  0.62310562  1
  Zn  Zn94  1  0.12160250  0.20852846  0.16897497  1
  Zn  Zn95  1  0.19427532  0.19238116  0.68264291  1
  Zn  Zn96  1  0.19476427  0.69221762  0.18819296  1
  Zn  Zn97  1  0.18695957  0.68519436  0.68482317  1
  Zn  Zn98  1  0.68953344  0.18262621  0.19052635  1
  Zn  Zn99  1  0.69142845  0.18724866  0.68769343  1
  Zn  Zn100  1  0.69451110  0.69021373  0.18220733  1
  Zn  Zn101  1  0.69037731  0.68884629  0.68704781  1
  Zn  Zn102  1  0.28075268  0.28768506  0.26135337  1
  Zn  Zn103  1  0.32164770  0.31250698  0.80583878  1
  Zn  Zn104  1  0.31558745  0.81457291  0.31391977  1
  Zn  Zn105  1  0.31175411  0.82112646  0.80863342  1
  Zn  Zn106  1  0.81473353  0.30897728  0.32073130  1
  Zn  Zn107  1  0.80882739  0.31601740  0.81240644  1
  Zn  Zn108  1  0.81644918  0.81898837  0.31296114  1
  Zn  Zn109  1  0.81382919  0.81729762  0.81783923  1
  Zn  Zn110  1  0.18750298  0.44275231  0.43153636  1
  Zn  Zn111  1  0.20900987  0.41526943  0.91935126  1
  Zn  Zn112  1  0.18624755  0.94195345  0.44122091  1
  Zn  Zn113  1  0.18353529  0.92333239  0.94000294  1
  Zn  Zn114  1  0.68624833  0.43286873  0.43715203  1
  Zn  Zn115  1  0.66162644  0.40367671  0.95288164  1
  Zn  Zn116  1  0.69197648  0.93898524  0.43772158  1
  Zn  Zn117  1  0.68182745  0.93987420  0.92757673  1
  Zn  Zn118  1  0.31238354  0.05092405  0.06621922  1
  Zn  Zn119  1  0.31016666  0.07318535  0.56441669  1
  Zn  Zn120  1  0.27329295  0.53553654  0.01596609  1
  Zn  Zn121  1  0.31458963  0.55949216  0.56302418  1
  Zn  Zn122  1  0.81702503  0.06474837  0.06688674  1
  Zn  Zn123  1  0.81161712  0.06420565  0.55878519  1
  Zn  Zn124  1  0.81190533  0.55735095  0.07084316  1
  Zn  Zn125  1  0.81641875  0.56966060  0.56508564  1
  Zn  Zn126  1  0.43177170  0.43046415  0.17828201  1
  Zn  Zn127  1  0.42591900  0.40165105  0.70191838  1
  Zn  Zn128  1  0.44199664  0.93441684  0.18685306  1
  Zn  Zn129  1  0.43384553  0.93464702  0.69499359  1
  Zn  Zn130  1  0.93384806  0.43970665  0.18612153  1
  Zn  Zn131  1  0.93318514  0.44517507  0.69243663  1
  Zn  Zn132  1  0.93736258  0.94216111  0.18877434  1
  Zn  Zn133  1  0.93594301  0.93637957  0.68791030  1
  Zn  Zn134  1  0.06820479  0.06301690  0.31696253  1
  Zn  Zn135  1  0.06323814  0.06223024  0.80930673  1
  Zn  Zn136  1  0.05752742  0.56800506  0.31716226  1
  Zn  Zn137  1  0.02912733  0.55561106  0.80628701  1
  Zn  Zn138  1  0.56084399  0.05982552  0.31648232  1
  Zn  Zn139  1  0.56324438  0.06098210  0.81903173  1
  Zn  Zn140  1  0.56836647  0.56102174  0.31165737  1
  Zn  Zn141  1  0.53548144  0.51640263  0.79606391  1
  Zn  Zn142  1  0.43945404  0.18908237  0.44559437  1
  Zn  Zn143  1  0.32207375  0.18389963  0.92614229  1
  Zn  Zn144  1  0.44282863  0.68801368  0.43509023  1
  Zn  Zn145  1  0.45895673  0.64449164  0.91856329  1
  Zn  Zn146  1  0.93920576  0.18678361  0.44011670  1
  Zn  Zn147  1  0.94097268  0.19229765  0.93562417  1
  Zn  Zn148  1  0.93316135  0.68820011  0.43726438  1
  Zn  Zn149  1  0.96128137  0.71888952  0.98595646  1
  Zn  Zn150  1  0.07100488  0.32015358  0.05562211  1
  Zn  Zn151  1  0.06220586  0.31796378  0.55953376  1
  Zn  Zn152  1  0.05483259  0.82239342  0.07511060  1
  Zn  Zn153  1  0.06893656  0.81668131  0.56300434  1
  Zn  Zn154  1  0.55997180  0.30834165  0.07029186  1
  Zn  Zn155  1  0.56792539  0.31434240  0.56717207  1
  Zn  Zn156  1  0.56981013  0.81558698  0.06604001  1
  Zn  Zn157  1  0.56164229  0.81400280  0.56454330  1
  O  O158  1  0.13332997  0.10281845  0.12562644  1
  O  O159  1  0.12661984  0.11838745  0.61502378  1
  O  O160  1  0.11202956  0.62322886  0.14559826  1
  O  O161  1  0.11454223  0.62206200  0.61723252  1
  O  O162  1  0.61511457  0.10769016  0.13692830  1
  O  O163  1  0.62686557  0.12270731  0.61504139  1
  O  O164  1  0.62102029  0.62612817  0.11678660  1
  O  O165  1  0.62064521  0.62805328  0.61151487  1
  O  O166  1  0.39188401  0.38811261  0.36736970  1
  O  O167  1  0.37172467  0.37107803  0.89113063  1
  O  O168  1  0.38462331  0.87905514  0.38639653  1
  O  O169  1  0.38220027  0.88980125  0.86949732  1
  O  O170  1  0.88083044  0.38143816  0.38682651  1
  O  O171  1  0.88549452  0.36640170  0.88724834  1
  O  O172  1  0.87488765  0.88603153  0.38597986  1
  O  O173  1  0.88331476  0.89280641  0.87435008  1
  O  O174  1  0.25983781  -0.00418092  0.36696248  1
  O  O175  1  0.25293668  -0.00639660  0.87711238  1
  O  O176  1  0.26505398  0.51101346  0.37711717  1
  O  O177  1  0.26176506  0.51135971  0.90313305  1
  O  O178  1  0.76064823  -0.00193361  0.36746669  1
  O  O179  1  0.75750878  0.01098408  0.86697346  1
  O  O180  1  0.75901036  0.49215895  0.36722309  1
  O  O181  1  0.78134562  0.52374963  0.81894717  1
  O  O182  1  0.22476742  0.50994620  0.12254215  1
  O  O183  1  0.23134949  0.49521888  0.60952770  1
  O  O184  1  0.24613201  0.98453925  0.13368229  1
  O  O185  1  0.24692290  0.99924450  0.63341379  1
  O  O186  1  0.75860794  0.48040385  0.14492142  1
  O  O187  1  0.73807543  0.50589409  0.61306101  1
  O  O188  1  0.73777241  1.00635282  0.13324147  1
  O  O189  1  0.75644478  1.00023437  0.64124475  1
  O  O190  1  0.00299198  0.38721224  0.26369587  1
  O  O191  1  0.00831109  0.36530920  0.75754650  1
  O  O192  1  0.01520009  0.87783352  0.24498706  1
  O  O193  1  0.00773446  0.88249727  0.76078302  1
  O  O194  1  0.50775427  0.36448495  0.25580250  1
  O  O195  1  0.52752311  0.40562704  0.75244651  1
  O  O196  1  0.51133261  0.86865624  0.25677371  1
  O  O197  1  0.50700290  0.86018303  0.74968368  1
  O  O198  1  0.49215000  0.12607731  0.24770032  1
  O  O199  1  0.49631587  0.15328156  0.78319987  1
  O  O200  1  0.50629340  0.63242246  0.24324938  1
  O  O201  1  0.49101226  0.63457307  0.73661197  1
  O  O202  1  0.98933784  0.11896260  0.25429731  1
  O  O203  1  0.98926202  0.13630781  0.75726318  1
  O  O204  1  1.00449363  0.66663203  0.29147325  1
  O  O205  1  1.00902362  0.64293707  0.73048798  1
  O  O206  1  0.37476260  0.25466657  0.00054322  1
  O  O207  1  0.38130673  0.24969360  0.52199959  1
  O  O208  1  0.36625654  0.72928710  -0.00829550  1
  O  O209  1  0.37574153  0.75704197  0.50470296  1
  O  O210  1  0.87098145  0.25695663  0.00730710  1
  O  O211  1  0.86866707  0.25748398  0.50159926  1
  O  O212  1  0.86310012  0.77694306  -0.01782997  1
  O  O213  1  0.86953937  0.76426878  0.49652469  1
  O  O214  1  0.12284854  0.24133296  0.49485239  1
  O  O215  1  0.12851890  0.25098930  0.97758406  1
  O  O216  1  0.13852672  0.75337186  0.49469396  1
  O  O217  1  0.08876665  0.73264962  1.00036551  1
  O  O218  1  0.62990416  0.23924149  0.49670418  1
  O  O219  1  0.63894965  0.25667314  1.00025803  1
  O  O220  1  0.63154964  0.74731482  0.49285272  1
  O  O221  1  0.63721108  0.76079557  0.99078252  1
  O  O222  1  0.50962513  0.23498829  0.14327400  1
  O  O223  1  0.50201266  0.24241774  0.62160288  1
  O  O224  1  0.50496655  0.74923992  0.13724953  1
  O  O225  1  0.49458644  0.74115590  0.62873847  1
  O  O226  1  1.02431567  0.24186349  0.11885804  1
  O  O227  1  0.99997378  0.25758740  0.63764845  1
  O  O228  1  0.96423531  0.75620450  0.10651360  1
  O  O229  1  0.99127682  0.74422752  0.61215061  1
  O  O230  1  0.00678512  0.26609906  0.38566017  1
  O  O231  1  0.01047711  0.25864346  0.86620343  1
  O  O232  1  0.00779324  0.72105345  0.35473376  1
  O  O233  1  -0.01369392  0.76919828  0.87527848  1
  O  O234  1  0.50703377  0.25537732  0.37007963  1
  O  O235  1  0.48847872  0.20751055  0.83809769  1
  O  O236  1  0.51421162  0.75504936  0.36719534  1
  O  O237  1  0.50971737  0.74330350  0.86638179  1
  O  O238  1  0.23028399  0.11384787  0.49512653  1
  O  O239  1  0.25810601  0.13355527  1.01191298  1
  O  O240  1  0.25657361  0.63561799  0.49064979  1
  O  O241  1  0.21911563  0.64673901  0.99918833  1
  O  O242  1  0.73641295  0.13067079  0.50058313  1
  O  O243  1  0.75881353  0.13292681  0.99350341  1
  O  O244  1  0.74350648  0.64174345  0.50336160  1
  O  O245  1  0.73832510  0.62400412  1.01096700  1
  O  O246  1  0.25839041  0.36460614  0.00587139  1
  O  O247  1  0.24280163  0.37204323  0.50003663  1
  O  O248  1  0.23883265  0.85065419  0.01084541  1
  O  O249  1  0.26463167  0.86658439  0.49268728  1
  O  O250  1  0.75664587  0.36620978  0.01149650  1
  O  O251  1  0.75881876  0.36634315  0.49643904  1
  O  O252  1  0.76258985  0.89084172  -0.00814690  1
  O  O253  1  0.75478028  0.86649363  0.50434847  1
  O  O254  1  0.11498621  0.50074609  0.24259865  1
  O  O255  1  0.10958773  0.49078520  0.73403737  1
  O  O256  1  0.13465421  0.99059816  0.24698208  1
  O  O257  1  0.13062118  0.99980508  0.73698374  1
  O  O258  1  0.63966868  0.48336091  0.26327207  1
  O  O259  1  0.62967897  0.52405903  0.72936310  1
  O  O260  1  0.63250638  0.99498211  0.25005891  1
  O  O261  1  0.63193590  0.98938863  0.76060990  1
  O  O262  1  0.37461767  0.00182194  0.25796829  1
  O  O263  1  0.35591902  -0.00850544  0.75808460  1
  O  O264  1  0.38068351  0.50962654  0.25734531  1
  O  O265  1  0.38362274  0.50792529  0.75026136  1
  O  O266  1  0.87120315  0.00551875  0.26220318  1
  O  O267  1  0.86915912  0.00859738  0.75657924  1
  O  O268  1  0.86381530  0.49482648  0.26464904  1
  O  O269  1  0.92515177  0.51503642  0.77554018  1
  O  O270  1  0.11396478  0.37627222  0.37075173  1
  O  O271  1  0.12151149  0.36217724  0.86476728  1
  O  O272  1  0.12772301  0.87808763  0.36308994  1
  O  O273  1  0.11018980  0.87802490  0.86248583  1
  O  O274  1  0.61678349  0.36356298  0.36805694  1
  O  O275  1  0.61227826  0.35030550  0.86933816  1
  O  O276  1  0.62349643  0.86795976  0.36814431  1
  O  O277  1  0.61814038  0.86189959  0.86631488  1
  O  O278  1  0.38306728  0.11933889  0.13845270  1
  O  O279  1  0.37555938  0.13455636  0.63466913  1
  O  O280  1  0.39833670  0.62972981  0.13864237  1
  O  O281  1  0.38548914  0.63090960  0.62700131  1
  O  O282  1  0.87822239  0.12563033  0.14208504  1
  O  O283  1  0.86964090  0.12804025  0.63774656  1
  O  O284  1  0.87855831  0.62092874  0.13954099  1
  O  O285  1  0.88809698  0.64245328  0.61826225  1
  O  O286  1  0.23240669  0.25367782  0.15887251  1
  O  O287  1  0.25328897  0.27156970  0.62572084  1
  O  O288  1  0.26102489  0.75216692  0.11794326  1
  O  O289  1  0.26305725  0.74343460  0.61028127  1
  O  O290  1  0.74975486  0.25406113  0.12008545  1
  O  O291  1  0.75223096  0.24941445  0.61062714  1
  O  O292  1  0.77635369  0.74669099  0.12603852  1
  O  O293  1  0.76672336  0.75237883  0.61657774  1
  O  O294  1  0.23567621  0.25233328  0.36449734  1
  O  O295  1  0.24261766  0.24522749  0.86025762  1
  O  O296  1  0.25764690  0.74180706  0.38348671  1
  O  O297  1  0.25111728  0.75911994  0.88511184  1
  O  O298  1  0.73902401  0.25331840  0.38890638  1
  O  O299  1  0.75838975  0.24153464  0.88907880  1
  O  O300  1  0.74093648  0.75773387  0.38195605  1
  O  O301  1  0.73802111  0.74862444  0.86969123  1
  O  O302  1  0.00523200  0.11200735  -0.00744376  1
  O  O303  1  0.01810348  0.12349823  0.49507528  1
  O  O304  1  -0.00730425  0.60945191  -0.01581754  1
  O  O305  1  0.00124344  0.61781470  0.50043937  1
  O  O306  1  0.49942307  0.10768801  0.01716673  1
  O  O307  1  0.51589076  0.11492246  0.49769352  1
  O  O308  1  0.51663759  0.62757453  0.01921139  1
  O  O309  1  0.51134909  0.62132476  0.50389084  1
  O  O310  1  0.51391707  0.38733514  0.48974100  1
  O  O311  1  0.48704503  0.36641191  1.01080708  1
  O  O312  1  0.49593818  0.88218825  0.49741292  1
  O  O313  1  0.50304257  0.88694334  1.00599042  1
  O  O314  1  0.99224364  0.38852948  0.49330747  1
  O  O315  1  0.99253294  0.37918772  0.99452919  1
  O  O316  1  0.98955340  0.87082444  0.49615043  1
  O  O317  1  0.99148832  0.88755714  0.98516879  1
  O  O318  1  0.50047809  0.49394550  0.37964740  1
  O  O319  1  0.48103631  0.53442689  0.88866416  1
  O  O320  1  0.49577475  0.99344917  0.38585424  1
  O  O321  1  0.50515637  0.99776392  0.89492434  1
  O  O322  1  0.98602116  0.49673548  0.38145291  1
  O  O323  1  1.01875885  0.47915233  0.89503275  1
  O  O324  1  0.98873196  0.99744414  0.37383095  1
  O  O325  1  0.99265887  0.99898064  0.87940578  1
  O  O326  1  0.01322714  -0.01184108  0.11267644  1
  O  O327  1  0.00536262  0.00858693  0.62990111  1
  O  O328  1  0.00676156  0.49686465  0.11579734  1
  O  O329  1  0.00267093  0.51717045  0.61517233  1
  O  O330  1  0.50664608  0.00202065  0.11878353  1
  O  O331  1  0.49679229  -0.00660595  0.61726537  1
  O  O332  1  0.50741848  0.50955747  0.13567903  1
  O  O333  1  0.51413881  0.51298079  0.61249956  1
  O  O334  1  0.22835060  0.39208022  0.25314946  1
  O  O335  1  0.23513001  0.38025324  0.74969611  1
  O  O336  1  0.25056316  0.88218241  0.24465885  1
  O  O337  1  0.23064091  0.88880681  0.75562503  1
  O  O338  1  0.74521964  0.37024132  0.24816228  1
  O  O339  1  0.72599697  0.37668547  0.76292459  1
  O  O340  1  0.74177924  0.88688214  0.25347210  1
  O  O341  1  0.74357412  0.88620486  0.75324912  1
  O  O342  1  0.26461669  0.10675832  0.25442486  1
  O  O343  1  0.24309878  0.10988666  0.74781655  1
  O  O344  1  0.26603387  0.62556655  0.25718452  1
  O  O345  1  0.26377777  0.61774954  0.72880587  1
  O  O346  1  0.76228639  0.11528571  0.25093468  1
  O  O347  1  0.75757557  0.12196888  0.75882103  1
  O  O348  1  0.73808692  0.60457426  0.24794338  1
  O  O349  1  0.77653235  0.62583212  0.73396462  1
  O  O350  1  0.37694587  0.11826417  0.37053724  1
  O  O351  1  0.37467778  0.09650333  0.87483021  1
  O  O352  1  0.37768283  0.61849330  0.36539541  1
  O  O353  1  0.36727320  0.63976806  0.84529873  1
  O  O354  1  0.87896710  0.11256393  0.37109675  1
  O  O355  1  0.86912320  0.11984131  0.86702884  1
  O  O356  1  0.86754807  0.60949886  0.38189683  1
  O  O357  1  0.75899259  0.59371050  0.80851137  1
  O  O358  1  0.12096004  0.39037291  0.13567900  1
  O  O359  1  0.13238735  0.38282486  0.62730484  1
  O  O360  1  0.13604559  0.87913885  0.13680442  1
  O  O361  1  0.11407813  0.89203068  0.63696948  1
  O  O362  1  0.63578839  0.36688981  0.14109119  1
  O  O363  1  0.62655323  0.39117350  0.63331587  1
  O  O364  1  0.62236636  0.89090121  0.13855518  1
  O  O365  1  0.63058928  0.86150782  0.64312902  1
  O  O366  1  0.11313057  0.26955914  0.26675883  1
  O  O367  1  0.11980887  0.25590079  0.75361798  1
  O  O368  1  0.13616639  0.76827672  0.25286692  1
  O  O369  1  0.12983737  0.76920733  0.73563441  1
  O  O370  1  0.61915351  0.25162824  0.25986244  1
  O  O371  1  0.61825368  0.25706589  0.74129312  1
  O  O372  1  0.62540876  0.75744357  0.25420599  1
  O  O373  1  0.61993992  0.74958074  0.76112678  1
  O  O374  1  0.38621045  0.23578711  0.25944135  1
  O  O375  1  0.38606762  0.28964687  0.71657793  1
  O  O376  1  0.39264679  0.74184279  0.25780248  1
  O  O377  1  0.38087262  0.75360851  0.73655823  1
  O  O378  1  0.87576534  0.23453383  0.25648283  1
  O  O379  1  0.88140085  0.24617846  0.74881136  1
  O  O380  1  0.87662391  0.74781260  0.25205392  1
  O  O381  1  0.87653521  0.76525686  0.73284911  1
  O  O382  1  0.39269566  0.51186868  0.48711844  1
  O  O383  1  0.37354467  0.47600980  1.01402157  1
  O  O384  1  0.38262504  0.99457380  0.49998262  1
  O  O385  1  0.38435026  0.99349240  0.99307661  1
  O  O386  1  0.87736723  0.49656605  0.49169835  1
  O  O387  1  0.88000931  0.48259065  1.01109830  1
  O  O388  1  0.87148420  0.99046808  0.49089859  1
  O  O389  1  0.88254260  0.99994147  0.99090579  1
  O  O390  1  0.12202172  -0.00206441  0.00669137  1
  O  O391  1  0.12204976  0.00098643  0.51641100  1
  O  O392  1  0.11255680  0.52837867  0.01696500  1
  O  O393  1  0.11139698  0.50221505  0.50380711  1
  O  O394  1  0.62133064  -0.00437021  0.01462333  1
  O  O395  1  0.62181241  0.01028152  0.49813530  1
  O  O396  1  0.63540362  0.50561434  -0.00738482  1
  O  O397  1  0.62161290  0.50957761  0.50156282  1
  O  O398  1  0.36331894  0.36302213  0.12230943  1
  O  O399  1  0.35298404  0.40219811  0.61191865  1
  O  O400  1  0.36578043  0.86888160  0.12894585  1
  O  O401  1  0.38231579  0.86400780  0.61424139  1
  O  O402  1  0.87064806  0.36320134  0.12217422  1
  O  O403  1  0.88345762  0.38128752  0.61206663  1
  O  O404  1  0.87294921  0.89161211  0.10641234  1
  O  O405  1  0.87791196  0.86790356  0.61121082  1
  O  O406  1  0.12732269  0.13662160  0.38231037  1
  O  O407  1  0.12352351  0.13818282  0.87261230  1
  O  O408  1  0.14508093  0.62477059  0.37625069  1
  O  O409  1  0.10624699  0.62307512  0.87398800  1
  O  O410  1  0.62065843  0.13520041  0.37980973  1
  O  O411  1  0.63929901  0.13163174  0.87258918  1
  O  O412  1  0.62193060  0.63604582  0.38451305  1
  O  O413  1  0.62280953  0.63953653  0.89906032  1
