# generated using pymatgen
data_V79Zn79O256
_symmetry_space_group_name_H-M   'P 1'
_cell_length_a   16.87994346
_cell_length_b   16.88702664
_cell_length_c   16.87543152
_cell_angle_alpha   90.07403378
_cell_angle_beta   90.06214300
_cell_angle_gamma   89.91049590
_symmetry_Int_Tables_number   1
_chemical_formula_structural   V79Zn79O256
_chemical_formula_sum   'V79 Zn79 O256'
_cell_volume   4810.36372615
_cell_formula_units_Z   1
loop_
 _symmetry_equiv_pos_site_id
 _symmetry_equiv_pos_as_xyz
  1  'x, y, z'
loop_
 _atom_site_type_symbol
 _atom_site_label
 _atom_site_symmetry_multiplicity
 _atom_site_fract_x
 _atom_site_fract_y
 _atom_site_fract_z
 _atom_site_occupancy
  V  V0  1  0.12466607  0.12146172  0.50044571  1
  V  V1  1  -0.00145208  0.49873314  0.49128617  1
  V  V2  1  0.49770584  0.13470797  0.12785837  1
  V  V3  1  0.62733554  0.73723987  0.87094409  1
  V  V4  1  0.12743938  0.87760390  0.73829108  1
  V  V5  1  0.75374771  0.76058379  0.00222775  1
  V  V6  1  0.13147955  0.88777200  0.24371529  1
  V  V7  1  0.37624813  -0.00179211  0.37426838  1
  V  V8  1  0.49795620  -0.00143104  0.49782802  1
  V  V9  1  0.37005100  0.87817666  0.00756307  1
  V  V10  1  0.01908859  0.74680528  0.25885943  1
  V  V11  1  0.25486115  0.00450243  0.23783006  1
  V  V12  1  0.75264831  0.50532157  0.75114811  1
  V  V13  1  0.63069673  0.12590831  -0.00173863  1
  V  V14  1  0.24044724  0.75629021  0.48619295  1
  V  V15  1  0.61898900  0.86720518  0.74753349  1
  V  V16  1  0.86268790  0.00002521  0.37255032  1
  V  V17  1  0.63920641  -0.01233804  0.12900002  1
  V  V18  1  0.00379833  -0.00261181  0.50030677  1
  V  V19  1  0.50198638  0.50678052  0.00853637  1
  V  V20  1  0.49890884  0.86744197  0.87134790  1
  V  V21  1  0.24555001  0.62895430  0.87993903  1
  V  V22  1  0.87748729  0.36377917  0.49664359  1
  V  V23  1  0.49357328  0.13515522  0.63961429  1
  V  V24  1  0.39066023  0.74116320  0.12768609  1
  V  V25  1  0.50504758  0.24547004  0.26499670  1
  V  V26  1  0.87593016  0.50228863  0.87456539  1
  V  V27  1  0.86117270  0.12090015  0.25153330  1
  V  V28  1  0.62695053  0.86404848  0.26958396  1
  V  V29  1  0.87321519  0.63006464  0.74968625  1
  V  V30  1  0.63006913  0.62063994  0.01543279  1
  V  V31  1  0.63947626  0.12845006  0.48871840  1
  V  V32  1  0.00129082  0.12292991  0.62434361  1
  V  V33  1  0.12506699  0.75097951  0.88428071  1
  V  V34  1  0.37412852  0.00334308  0.87043043  1
  V  V35  1  0.75939229  0.36472203  0.62049903  1
  V  V36  1  0.75142417  0.86430304  0.62556470  1
  V  V37  1  0.49881790  -0.00011847  0.00316178  1
  V  V38  1  0.62509673  0.50535698  0.61704674  1
  V  V39  1  0.12294150  0.12929774  0.00201545  1
  V  V40  1  0.74489833  0.50331301  0.22913115  1
  V  V41  1  0.36398296  0.87877359  0.50399782  1
  V  V42  1  0.87410965  0.12960164  0.74394234  1
  V  V43  1  0.37719924  0.50340991  0.86989767  1
  V  V44  1  0.25389289  0.12726960  0.37565320  1
  V  V45  1  0.00160516  0.00467093  0.00416287  1
  V  V46  1  0.24331543  0.49329060  0.74946617  1
  V  V47  1  0.87128190  0.63101106  0.25067308  1
  V  V48  1  -0.00285263  0.75368522  0.74576253  1
  V  V49  1  0.12894309  0.62776674  0.48821703  1
  V  V50  1  0.63598522  0.36875170  0.23740041  1
  V  V51  1  0.37816730  0.63209645  0.74467870  1
  V  V52  1  0.36805536  0.75243132  0.62468919  1
  V  V53  1  0.12375805  0.49091869  0.63158596  1
  V  V54  1  0.24614904  -0.00334144  0.74038456  1
  V  V55  1  0.75423780  0.26041275  0.00254690  1
  V  V56  1  0.74665920  0.74250764  0.48469787  1
  V  V57  1  0.00583972  0.12495082  0.13247290  1
  V  V58  1  0.24838640  0.75501937  0.01103362  1
  V  V59  1  0.62249927  0.37128451  0.74484856  1
  V  V60  1  -0.00110362  0.87793552  0.87855234  1
  V  V61  1  0.00208195  0.37605433  0.87475644  1
  V  V62  1  0.62252519  -0.00229841  0.62507657  1
  V  V63  1  0.86054485  0.50384307  0.37750031  1
  V  V64  1  0.37532046  0.59439629  0.27870921  1
  V  V65  1  0.00106842  0.25723844  0.26486758  1
  V  V66  1  0.25143981  0.12584544  0.87473125  1
  V  V67  1  0.75076304  -0.00191567  0.75011964  1
  V  V68  1  0.51193119  0.38393634  0.38570150  1
  V  V69  1  0.12743704  0.25509905  0.87080312  1
  V  V70  1  0.87421377  0.86737453  0.50186361  1
  V  V71  1  -0.00064036  0.25345135  0.74540344  1
  V  V72  1  0.01432953  0.62552082  0.12036529  1
  V  V73  1  0.26321063  0.25145297  0.51920370  1
  V  V74  1  0.87523909  -0.00185046  0.87732851  1
  V  V75  1  0.37391493  0.36457879  0.00050588  1
  V  V76  1  0.50203314  0.37190709  0.86241064  1
  V  V77  1  0.62299333  0.62089200  0.48133348  1
  V  V78  1  -0.00135814  0.62992352  0.62438256  1
  Zn  Zn79  1  0.19567449  0.30472100  0.05720939  1
  Zn  Zn80  1  0.75118110  0.12926265  0.87164750  1
  Zn  Zn81  1  0.86645441  0.76186475  0.13006371  1
  Zn  Zn82  1  0.14451563  0.49125756  0.11896566  1
  Zn  Zn83  1  0.62371711  0.24712588  0.86644148  1
  Zn  Zn84  1  0.86784777  0.26032857  0.13697364  1
  Zn  Zn85  1  0.49678258  0.63164185  0.61753004  1
  Zn  Zn86  1  0.12074703  0.27224897  0.38550306  1
  Zn  Zn87  1  0.16290055  0.38798041  0.25017408  1
  Zn  Zn88  1  0.33568234  0.29206958  0.16358497  1
  Zn  Zn89  1  0.00606187  0.87016370  0.37697975  1
  Zn  Zn90  1  0.00991105  0.51041174  -0.00313178  1
  Zn  Zn91  1  0.49786541  0.75470004  0.27923159  1
  Zn  Zn92  1  0.86744811  0.38921659  0.00696215  1
  Zn  Zn93  1  0.39193893  0.47762867  0.43954470  1
  Zn  Zn94  1  0.19753451  0.21143805  0.20699890  1
  Zn  Zn95  1  0.18324752  0.18009083  0.69181067  1
  Zn  Zn96  1  0.19982009  0.67678944  0.19605514  1
  Zn  Zn97  1  0.18894988  0.68832347  0.68520233  1
  Zn  Zn98  1  0.68414640  0.18555909  0.18134625  1
  Zn  Zn99  1  0.68702767  0.18508661  0.67928806  1
  Zn  Zn100  1  0.68526724  0.69397969  0.19092844  1
  Zn  Zn101  1  0.68705351  0.68774188  0.68367100  1
  Zn  Zn102  1  0.32277190  0.31202897  0.33474487  1
  Zn  Zn103  1  0.30991928  0.31577369  0.81623086  1
  Zn  Zn104  1  0.31300959  0.81568165  0.30953761  1
  Zn  Zn105  1  0.31153028  0.81515201  0.81272157  1
  Zn  Zn106  1  0.81003642  0.31260046  0.31824340  1
  Zn  Zn107  1  0.81042387  0.31457509  0.81443023  1
  Zn  Zn108  1  0.80959511  0.81780600  0.31031857  1
  Zn  Zn109  1  0.80905258  0.81112248  0.81856259  1
  Zn  Zn110  1  0.19819287  0.43422132  0.44279577  1
  Zn  Zn111  1  0.18756105  0.44142903  0.93968898  1
  Zn  Zn112  1  0.18533069  0.93749124  0.42940980  1
  Zn  Zn113  1  0.18515822  0.93877631  0.93664222  1
  Zn  Zn114  1  0.68759160  0.42630370  0.43272285  1
  Zn  Zn115  1  0.68573581  0.44135630  0.93411978  1
  Zn  Zn116  1  0.68682488  0.93755574  0.44048798  1
  Zn  Zn117  1  0.68615282  0.93654915  0.93563530  1
  Zn  Zn118  1  0.29505242  0.11537073  0.08037297  1
  Zn  Zn119  1  0.31525720  0.07126457  0.56657365  1
  Zn  Zn120  1  0.31351971  0.56322268  0.06506959  1
  Zn  Zn121  1  0.30666047  0.55539992  0.55926816  1
  Zn  Zn122  1  0.81610118  0.06584178  0.06310561  1
  Zn  Zn123  1  0.81535440  0.05571483  0.56477577  1
  Zn  Zn124  1  0.81858711  0.57527100  0.06138173  1
  Zn  Zn125  1  0.81180103  0.56259683  0.56460823  1
  Zn  Zn126  1  0.44780180  0.43267583  0.18943329  1
  Zn  Zn127  1  0.42609410  0.44306372  0.66356258  1
  Zn  Zn128  1  0.44438348  0.93565273  0.19096481  1
  Zn  Zn129  1  0.43497393  0.93728091  0.68394106  1
  Zn  Zn130  1  0.93757934  0.44444828  0.19248226  1
  Zn  Zn131  1  0.93969370  0.43871042  0.68546605  1
  Zn  Zn132  1  0.92846165  0.93520155  0.18906263  1
  Zn  Zn133  1  0.93718527  0.93796840  0.68629762  1
  Zn  Zn134  1  0.06264484  0.06195797  0.31688148  1
  Zn  Zn135  1  0.06476889  0.06384639  0.81175708  1
  Zn  Zn136  1  0.06565436  0.55049845  0.30670530  1
  Zn  Zn137  1  0.06135085  0.56687211  0.81346864  1
  Zn  Zn138  1  0.56842157  0.05456933  0.31016795  1
  Zn  Zn139  1  0.56310303  0.05804699  0.81365884  1
  Zn  Zn140  1  0.55792822  0.56231446  0.30157083  1
  Zn  Zn141  1  0.55914908  0.55845425  0.80356514  1
  Zn  Zn142  1  0.44349693  0.18408242  0.44736886  1
  Zn  Zn143  1  0.44380170  0.18532522  0.93016488  1
  Zn  Zn144  1  0.42641224  0.67681072  0.43585121  1
  Zn  Zn145  1  0.43602974  0.68763088  0.94090164  1
  Zn  Zn146  1  0.93030571  0.18107062  0.43654017  1
  Zn  Zn147  1  0.93689386  0.18838972  0.93359024  1
  Zn  Zn148  1  0.93553988  0.68425653  0.43467721  1
  Zn  Zn149  1  0.93758000  0.68885725  0.93542784  1
  Zn  Zn150  1  0.02348932  0.33778545  0.08973739  1
  Zn  Zn151  1  0.06222099  0.30863828  0.56222400  1
  Zn  Zn152  1  0.02376714  0.83455531  0.08657856  1
  Zn  Zn153  1  0.06266874  0.81184602  0.56091841  1
  Zn  Zn154  1  0.56306449  0.31757731  0.05616470  1
  Zn  Zn155  1  0.57259310  0.30547071  0.56465774  1
  Zn  Zn156  1  0.56564228  0.81054081  0.05705950  1
  Zn  Zn157  1  0.53643465  0.79052160  0.48996328  1
  O  O158  1  0.11495825  0.13270329  0.11181935  1
  O  O159  1  0.11045652  0.12150008  0.61593235  1
  O  O160  1  0.11600806  0.62666719  0.13315964  1
  O  O161  1  0.11130587  0.62280325  0.62010661  1
  O  O162  1  0.61936380  0.11257231  0.11431439  1
  O  O163  1  0.62099830  0.10947095  0.62067828  1
  O  O164  1  0.62256622  0.62594634  0.11361359  1
  O  O165  1  0.62500576  0.61407359  0.62162805  1
  O  O166  1  0.40319301  0.37336284  0.38086869  1
  O  O167  1  0.38265481  0.38491982  0.87795792  1
  O  O168  1  0.36317237  0.88876431  0.38927793  1
  O  O169  1  0.38247064  0.88021362  0.88259126  1
  O  O170  1  0.87077413  0.38614968  0.39123157  1
  O  O171  1  0.88121536  0.38812995  0.87365817  1
  O  O172  1  0.87809572  0.88412499  0.38234170  1
  O  O173  1  0.88634008  0.88641187  0.86668327  1
  O  O174  1  0.25753922  0.00999295  0.37069914  1
  O  O175  1  0.25832322  0.00504816  0.87131362  1
  O  O176  1  0.28104204  0.50263281  0.45734413  1
  O  O177  1  0.25788146  0.51008268  0.87102592  1
  O  O178  1  0.76403752  -0.00483131  0.37762099  1
  O  O179  1  0.75895233  -0.00076893  0.86875803  1
  O  O180  1  0.75837864  0.49842637  0.37036903  1
  O  O181  1  0.76027928  0.49496293  0.86043189  1
  O  O182  1  0.25806182  0.48963998  0.12257551  1
  O  O183  1  0.22943847  0.50885738  0.63519009  1
  O  O184  1  0.25985716  1.01897138  0.14040149  1
  O  O185  1  0.25471926  1.00590366  0.64213728  1
  O  O186  1  0.75856269  0.49795267  0.13080842  1
  O  O187  1  0.74654041  0.49502580  0.63499316  1
  O  O188  1  0.73786628  1.00246141  0.11653306  1
  O  O189  1  0.74198518  0.98777245  0.63037988  1
  O  O190  1  -0.01273269  0.35633133  0.25455101  1
  O  O191  1  -0.00845577  0.36420028  0.75829373  1
  O  O192  1  0.00911082  0.86051586  0.25185667  1
  O  O193  1  0.00484701  0.87148506  0.75592943  1
  O  O194  1  0.51502441  0.36221766  0.25647031  1
  O  O195  1  0.51114710  0.38926234  0.75149666  1
  O  O196  1  0.51908201  0.87226605  0.24499660  1
  O  O197  1  0.50765959  0.88106433  0.75898355  1
  O  O198  1  0.51813171  0.13594346  0.23815680  1
  O  O199  1  0.50880664  0.12247658  0.74020768  1
  O  O200  1  0.47560095  0.63365549  0.26230617  1
  O  O201  1  0.48286736  0.61928660  0.74050082  1
  O  O202  1  0.99505045  0.12560681  0.24610804  1
  O  O203  1  0.99397612  0.12878842  0.74258807  1
  O  O204  1  0.99572383  0.63290716  0.24755826  1
  O  O205  1  0.99502092  0.63560069  0.74367490  1
  O  O206  1  0.38544248  0.26567006  -0.01006085  1
  O  O207  1  0.36335472  0.24306794  0.50173879  1
  O  O208  1  0.36875645  0.75873501  0.00729283  1
  O  O209  1  0.35369689  0.75771374  0.50230572  1
  O  O210  1  0.85968259  0.24871330  -0.00477743  1
  O  O211  1  0.88071551  0.26476262  0.49759175  1
  O  O212  1  0.85497467  0.74029147  -0.00642979  1
  O  O213  1  0.86461473  0.75835099  0.49420916  1
  O  O214  1  0.12726801  0.23573142  0.49906442  1
  O  O215  1  0.12470933  0.24083230  0.98466290  1
  O  O216  1  0.12788433  0.74143649  0.49802076  1
  O  O217  1  0.13300257  0.76063892  0.98676736  1
  O  O218  1  0.62844998  0.22729907  0.50312801  1
  O  O219  1  0.63492849  0.24281018  0.99869847  1
  O  O220  1  0.63682462  0.73465330  0.49967577  1
  O  O221  1  0.63064228  0.73596583  0.99204703  1
  O  O222  1  0.50848217  0.23757592  0.12453757  1
  O  O223  1  0.50924674  0.23408740  0.62458354  1
  O  O224  1  0.49052647  0.74880473  0.11467495  1
  O  O225  1  0.47241110  0.74799283  0.59973119  1
  O  O226  1  0.99181227  0.23519462  0.14284399  1
  O  O227  1  1.00178909  0.23898598  0.63486878  1
  O  O228  1  0.99994410  0.73590551  0.14463995  1
  O  O229  1  1.00163211  0.74534575  0.63648531  1
  O  O230  1  -0.00093449  0.24290128  0.36913059  1
  O  O231  1  0.00641479  0.25565745  0.86626624  1
  O  O232  1  -0.00203227  0.74774806  0.36190849  1
  O  O233  1  0.00595767  0.75861539  0.86868361  1
  O  O234  1  0.50675361  0.24580772  0.36700982  1
  O  O235  1  0.50414632  0.26600292  0.87246218  1
  O  O236  1  0.48401647  0.76019718  0.39284407  1
  O  O237  1  0.50727024  0.76167056  0.88288657  1
  O  O238  1  0.24090451  0.12341439  0.49480053  1
  O  O239  1  0.23612898  0.11587389  0.98343448  1
  O  O240  1  0.23272442  0.64083236  0.50607883  1
  O  O241  1  0.26007309  0.63789587  0.98594035  1
  O  O242  1  0.73862088  0.11180414  0.50629025  1
  O  O243  1  0.74298579  0.13235365  0.99612074  1
  O  O244  1  0.74636894  0.63746085  0.50453465  1
  O  O245  1  0.73290301  0.62342867  0.99770678  1
  O  O246  1  0.26886311  0.37181332  -0.01000856  1
  O  O247  1  0.24085559  0.34841349  0.51203599  1
  O  O248  1  0.25906015  0.86815363  -0.00739296  1
  O  O249  1  0.24706812  0.86633527  0.49947076  1
  O  O250  1  0.74870209  0.36537979  -0.00446308  1
  O  O251  1  0.76180228  0.38084507  0.51201233  1
  O  O252  1  0.74593656  0.86053938  -0.00433023  1
  O  O253  1  0.75356136  0.86298852  0.50525927  1
  O  O254  1  0.12328337  0.49207495  0.23328858  1
  O  O255  1  0.12583917  0.50665224  0.73941770  1
  O  O256  1  0.13672462  0.99616063  0.24860029  1
  O  O257  1  0.13591486  0.99188959  0.75589878  1
  O  O258  1  0.63947146  0.49526428  0.24658250  1
  O  O259  1  0.63634391  0.49561149  0.73955467  1
  O  O260  1  0.62294771  0.98771750  0.23421101  1
  O  O261  1  0.63098473  0.98854922  0.74539664  1
  O  O262  1  0.36383188  -0.00850603  0.25913745  1
  O  O263  1  0.36250911  -0.01098343  0.76217988  1
  O  O264  1  0.37733236  0.49750453  0.24940483  1
  O  O265  1  0.36509314  0.50782296  0.75391017  1
  O  O266  1  0.87963203  0.00635454  0.26235387  1
  O  O267  1  0.87094725  0.00711308  0.75596776  1
  O  O268  1  0.86337254  0.50597439  0.25741338  1
  O  O269  1  0.87145375  0.50845253  0.75391016  1
  O  O270  1  0.13997377  0.38188237  0.36632730  1
  O  O271  1  0.11902165  0.36409490  0.87680213  1
  O  O272  1  0.12102177  0.87965596  0.35509093  1
  O  O273  1  0.11619819  0.86946177  0.86456979  1
  O  O274  1  0.62046050  0.37562648  0.35598050  1
  O  O275  1  0.61774022  0.38013210  0.86097667  1
  O  O276  1  0.62143463  0.87783817  0.37051804  1
  O  O277  1  0.61691345  0.86828663  0.86615019  1
  O  O278  1  0.39927103  0.12041801  0.12363680  1
  O  O279  1  0.39395109  0.12109329  0.62901856  1
  O  O280  1  0.37804375  0.64073158  0.12206790  1
  O  O281  1  0.36725516  0.63271941  0.63163770  1
  O  O282  1  0.88306115  0.12248140  0.14086066  1
  O  O283  1  0.88390527  0.11921814  0.63497858  1
  O  O284  1  0.88333532  0.63283878  0.13836614  1
  O  O285  1  0.88846068  0.62011573  0.63546534  1
  O  O286  1  0.25973634  0.22253863  0.11123239  1
  O  O287  1  0.25061362  0.22774244  0.61778699  1
  O  O288  1  0.25639121  0.74613999  0.11349040  1
  O  O289  1  0.25683452  0.75031861  0.61546994  1
  O  O290  1  0.75295593  0.24656832  0.10861841  1
  O  O291  1  0.75215091  0.26587270  0.62712082  1
  O  O292  1  0.74855794  0.74576028  0.10777654  1
  O  O293  1  0.74796701  0.76088609  0.61814134  1
  O  O294  1  0.25010693  0.23311697  0.38960595  1
  O  O295  1  0.24181746  0.23817062  0.86147784  1
  O  O296  1  0.25043486  0.75325505  0.38675988  1
  O  O297  1  0.24352414  0.74637888  0.88008222  1
  O  O298  1  0.74566214  0.25134904  0.38354154  1
  O  O299  1  0.74400777  0.24866893  0.88413963  1
  O  O300  1  0.74980253  0.74945392  0.38653829  1
  O  O301  1  0.73642652  0.75042542  0.88362289  1
  O  O302  1  0.00368895  0.12385586  0.00684827  1
  O  O303  1  0.00269058  0.11785681  0.50539347  1
  O  O304  1  -0.00060042  0.63451035  0.01641905  1
  O  O305  1  0.00570690  0.62190548  0.50630214  1
  O  O306  1  0.50916933  0.12007298  0.00585822  1
  O  O307  1  0.51011564  0.11222126  0.51184171  1
  O  O308  1  0.50878113  0.61341922  -0.00689799  1
  O  O309  1  0.51996041  0.62327651  0.49959975  1
  O  O310  1  0.52637383  0.36978916  0.48445383  1
  O  O311  1  0.49748554  0.38855956  0.98548942  1
  O  O312  1  0.48476002  0.89288314  0.50273911  1
  O  O313  1  0.49482242  0.88344989  0.99054531  1
  O  O314  1  0.98611212  0.38579613  0.51041711  1
  O  O315  1  0.99419481  0.37565154  0.97980655  1
  O  O316  1  0.99141907  0.87877461  0.50010777  1
  O  O317  1  1.01041294  0.88847272  0.98364892  1
  O  O318  1  0.50768421  0.48653124  0.37795936  1
  O  O319  1  0.49022733  0.49432341  0.87384480  1
  O  O320  1  0.48520532  1.01144402  0.38333378  1
  O  O321  1  0.49407248  0.99243636  0.88226663  1
  O  O322  1  0.99087374  0.50321670  0.38736106  1
  O  O323  1  0.99440556  0.49338201  0.87087714  1
  O  O324  1  0.99107000  0.99836845  0.38761625  1
  O  O325  1  0.99344653  0.99638712  0.87743984  1
  O  O326  1  -0.00525884  0.01142315  0.11338664  1
  O  O327  1  -0.00770213  0.00775922  0.61134497  1
  O  O328  1  -0.00482987  0.52023525  0.12475322  1
  O  O329  1  0.00700323  0.51004906  0.61967286  1
  O  O330  1  0.50895394  0.00751385  0.11488083  1
  O  O331  1  0.50774402  0.00361595  0.62062766  1
  O  O332  1  0.49864630  0.49856520  0.10680017  1
  O  O333  1  0.52550406  0.49783366  0.62752129  1
  O  O334  1  0.25480403  0.31872817  0.24443022  1
  O  O335  1  0.24823235  0.39399745  0.75846953  1
  O  O336  1  0.24148390  0.89051187  0.24917387  1
  O  O337  1  0.24071448  0.88679074  0.75646996  1
  O  O338  1  0.74459213  0.38542230  0.24785962  1
  O  O339  1  0.74791861  0.38432683  0.73814900  1
  O  O340  1  0.72910962  0.86816230  0.24848330  1
  O  O341  1  0.74349457  0.87707197  0.74429935  1
  O  O342  1  0.24395266  0.11611249  0.26686187  1
  O  O343  1  0.24107376  0.10739054  0.76389548  1
  O  O344  1  0.28425798  0.63671647  0.25773131  1
  O  O345  1  0.25599985  0.62014385  0.76085704  1
  O  O346  1  0.76267822  0.12536122  0.24386418  1
  O  O347  1  0.75705459  0.11806464  0.74727062  1
  O  O348  1  0.75618600  0.61290441  0.24143316  1
  O  O349  1  0.76209488  0.61871061  0.74106757  1
  O  O350  1  0.36115036  0.11586610  0.38397517  1
  O  O351  1  0.36765108  0.11472581  0.88023632  1
  O  O352  1  0.37806853  0.59008814  0.38414315  1
  O  O353  1  0.36999346  0.62097975  0.86656490  1
  O  O354  1  0.87402628  0.11025827  0.36571217  1
  O  O355  1  0.87613544  0.11468111  0.86182330  1
  O  O356  1  0.87695483  0.61558642  0.36250920  1
  O  O357  1  0.88610962  0.61486690  0.85984721  1
  O  O358  1  0.12664159  0.36501258  0.12583652  1
  O  O359  1  0.11525086  0.39233584  0.62313764  1
  O  O360  1  0.11680829  0.87168574  0.14413668  1
  O  O361  1  0.12033395  0.87252303  0.63864625  1
  O  O362  1  0.61986331  0.37718568  0.13786262  1
  O  O363  1  0.64020673  0.38540183  0.62555042  1
  O  O364  1  0.62601709  0.88766898  0.11408595  1
  O  O365  1  0.63207720  0.88285575  0.63420714  1
  O  O366  1  0.10566671  0.24533112  0.26201185  1
  O  O367  1  0.11116997  0.24209698  0.75876272  1
  O  O368  1  0.12155345  0.75049424  0.25352241  1
  O  O369  1  0.11590584  0.75704046  0.75810087  1
  O  O370  1  0.62334333  0.26034540  0.24483655  1
  O  O371  1  0.63348847  0.26719752  0.74563102  1
  O  O372  1  0.61753184  0.75699330  0.25504503  1
  O  O373  1  0.62891065  0.75954501  0.75467192  1
  O  O374  1  0.40348872  0.25095617  0.25004441  1
  O  O375  1  0.38139448  0.28290263  0.72266963  1
  O  O376  1  0.38088215  0.76858903  0.23009166  1
  O  O377  1  0.36681542  0.74362074  0.74117281  1
  O  O378  1  0.88014382  0.23389578  0.25754309  1
  O  O379  1  0.88379743  0.23827663  0.75828441  1
  O  O380  1  0.87584613  0.74196236  0.25239832  1
  O  O381  1  0.88613114  0.74414811  0.75934331  1
  O  O382  1  0.39493479  0.48042856  0.55820714  1
  O  O383  1  0.38702407  0.49805370  0.98683219  1
  O  O384  1  0.37653591  0.99681238  0.49621195  1
  O  O385  1  0.38551022  0.99388008  0.98959098  1
  O  O386  1  0.88120811  0.50159357  0.49390366  1
  O  O387  1  0.87927626  0.50817629  0.98538134  1
  O  O388  1  0.88006773  0.99060034  0.48957169  1
  O  O389  1  0.88654444  1.01186150  0.98603202  1
  O  O390  1  0.11075861  0.01422878  -0.01209643  1
  O  O391  1  0.11394813  0.00628719  0.49473567  1
  O  O392  1  0.12262180  0.50081108  0.00687775  1
  O  O393  1  0.11625451  0.51256119  0.51311025  1
  O  O394  1  0.61702373  0.00586653  0.00217623  1
  O  O395  1  0.61661116  -0.00135196  0.50968963  1
  O  O396  1  0.61392949  0.51093304  -0.00845670  1
  O  O397  1  0.64326166  0.51075199  0.50924428  1
  O  O398  1  0.39024069  0.37375178  0.10488530  1
  O  O399  1  0.37747073  0.32950448  0.66216568  1
  O  O400  1  0.38218759  0.87352244  0.11015716  1
  O  O401  1  0.37057811  0.87227787  0.61216081  1
  O  O402  1  0.90602983  0.36760109  0.11284525  1
  O  O403  1  0.86602999  0.38150363  0.61553432  1
  O  O404  1  0.91018654  0.86359340  0.10814329  1
  O  O405  1  0.86414303  0.88274739  0.61275331  1
  O  O406  1  0.13638172  0.12137914  0.38670595  1
  O  O407  1  0.12800040  0.13441732  0.88028870  1
  O  O408  1  0.12106486  0.61469026  0.39035876  1
  O  O409  1  0.13396635  0.63761662  0.86950469  1
  O  O410  1  0.62574746  0.10989840  0.38987312  1
  O  O411  1  0.62518057  0.12502868  0.88551658  1
  O  O412  1  0.62781124  0.61343583  0.38323304  1
  O  O413  1  0.61578303  0.63529965  0.86886297  1
