# generated using pymatgen
data_V79Zn79O256
_symmetry_space_group_name_H-M   'P 1'
_cell_length_a   16.88114862
_cell_length_b   16.87473391
_cell_length_c   16.87393475
_cell_angle_alpha   89.99600042
_cell_angle_beta   89.83690327
_cell_angle_gamma   90.04403399
_symmetry_Int_Tables_number   1
_chemical_formula_structural   V79Zn79O256
_chemical_formula_sum   'V79 Zn79 O256'
_cell_volume   4806.77067928
_cell_formula_units_Z   1
loop_
 _symmetry_equiv_pos_site_id
 _symmetry_equiv_pos_as_xyz
  1  'x, y, z'
loop_
 _atom_site_type_symbol
 _atom_site_label
 _atom_site_symmetry_multiplicity
 _atom_site_fract_x
 _atom_site_fract_y
 _atom_site_fract_z
 _atom_site_occupancy
  V  V0  1  0.00298937  0.24801772  0.75251646  1
  V  V1  1  0.87510718  0.87417889  0.50268708  1
  V  V2  1  0.75182481  0.12923277  0.37538897  1
  V  V3  1  0.00014312  0.87352847  0.37472748  1
  V  V4  1  0.50316049  0.38125970  0.38177557  1
  V  V5  1  0.87352619  0.00090165  0.87280183  1
  V  V6  1  0.61977854  0.25530436  0.86748190  1
  V  V7  1  0.00392993  0.00253184  0.51135717  1
  V  V8  1  0.61956291  0.61158228  0.50758241  1
  V  V9  1  0.74952415  0.38296733  0.13012145  1
  V  V10  1  0.12944943  0.23864078  0.37040752  1
  V  V11  1  0.12687838  0.37400390  0.76229520  1
  V  V12  1  0.14301140  0.74191508  0.37504797  1
  V  V13  1  0.49002727  0.75182639  0.74948033  1
  V  V14  1  0.62661564  0.25325289  0.37088341  1
  V  V15  1  0.86955729  0.87640663  0.00908054  1
  V  V16  1  0.73636757  0.87576323  0.63140535  1
  V  V17  1  0.24818892  0.50981261  0.24898064  1
  V  V18  1  0.25275518  0.87844236  0.61258058  1
  V  V19  1  0.75618489  0.61361062  0.88138047  1
  V  V20  1  0.50329266  0.87783666  0.87020779  1
  V  V21  1  0.23952067  0.37907951  0.61669862  1
  V  V22  1  0.13027630  0.87633275  0.24930099  1
  V  V23  1  0.25207224  0.24552049  0.49494103  1
  V  V24  1  0.12363707  0.87663822  0.74527760  1
  V  V25  1  0.75111069  0.25599433  -0.00126926  1
  V  V26  1  0.37439185  0.25457468  0.61935596  1
  V  V27  1  0.74865218  0.74828669  0.50546448  1
  V  V28  1  0.60686437  0.50447563  0.13014871  1
  V  V29  1  0.62824326  0.75299130  0.86894944  1
  V  V30  1  0.75460118  0.62433027  0.37235653  1
  V  V31  1  0.63053770  -0.00852642  0.12493466  1
  V  V32  1  0.87356803  0.25122187  0.12003472  1
  V  V33  1  0.36967179  0.12602767  0.75333414  1
  V  V34  1  0.00412416  0.50705507  0.51329124  1
  V  V35  1  0.24638121  0.51338447  0.75114320  1
  V  V36  1  0.74999116  -0.00546510  0.24805786  1
  V  V37  1  0.37391235  0.52158026  0.87263357  1
  V  V38  1  0.74392518  0.37952116  0.62748318  1
  V  V39  1  0.49193980  0.24304637  0.24782059  1
  V  V40  1  0.37377548  0.87408830  -0.00018626  1
  V  V41  1  0.49418258  -0.00977461  0.48963100  1
  V  V42  1  0.62330954  0.12807824  0.00781681  1
  V  V43  1  0.88077753  0.12147959  0.74031938  1
  V  V44  1  0.37309274  0.49844117  0.38449281  1
  V  V45  1  0.12829903  0.13293507  -0.01570324  1
  V  V46  1  0.24804436  0.87033299  0.12514955  1
  V  V47  1  0.11722081  0.61685734  0.01112500  1
  V  V48  1  0.87537135  0.00591676  0.37035997  1
  V  V49  1  0.00058200  0.86730577  0.86985943  1
  V  V50  1  0.88597810  0.61966188  0.75236586  1
  V  V51  1  -0.00293168  0.12528523  0.12597831  1
  V  V52  1  0.87426824  0.37115221  0.50128848  1
  V  V53  1  0.12482957  0.37555042  0.24692053  1
  V  V54  1  0.24952164  0.00161398  0.75263387  1
  V  V55  1  -0.00516767  0.24553120  0.24920249  1
  V  V56  1  0.49955498  0.00666415  0.00761981  1
  V  V57  1  0.13278712  0.74190699  0.87267603  1
  V  V58  1  0.25439486  0.25273866  -0.01198219  1
  V  V59  1  0.87717948  0.50257634  0.37091201  1
  V  V60  1  0.12417687  0.12113511  0.51931244  1
  V  V61  1  0.13366124  0.62617717  0.50802240  1
  V  V62  1  0.39121487  0.62567446  0.24919916  1
  V  V63  1  0.87529436  0.24746257  0.62215580  1
  V  V64  1  0.62705453  0.12325701  0.50068407  1
  V  V65  1  0.73651848  -0.00324688  0.74644733  1
  V  V66  1  0.61163988  0.75462650  0.37428433  1
  V  V67  1  0.26304857  0.37835440  0.11867569  1
  V  V68  1  0.00258767  0.00060495  -0.00156849  1
  V  V69  1  0.86879033  0.74242386  0.12958091  1
  V  V70  1  0.36723910  0.00156848  0.36487910  1
  V  V71  1  0.50314364  0.11972460  0.62329544  1
  V  V72  1  0.38757352  0.74356198  0.12876467  1
  V  V73  1  0.88727392  0.74548623  0.63392123  1
  V  V74  1  -0.00574324  0.73859602  0.24652804  1
  V  V75  1  0.49616325  0.61419578  0.62871988  1
  V  V76  1  0.37220822  0.75412366  0.60630399  1
  V  V77  1  -0.01964786  0.38351981  0.88386814  1
  V  V78  1  0.60806589  0.62665447  0.00657231  1
  Zn  Zn79  1  0.37269633  0.00783179  0.87799086  1
  Zn  Zn80  1  0.60724797  0.39919637  0.74550015  1
  Zn  Zn81  1  0.25390456  0.73977679  -0.00543794  1
  Zn  Zn82  1  0.49498774  0.25310349  0.75221074  1
  Zn  Zn83  1  0.74735902  0.75349820  0.00702288  1
  Zn  Zn84  1  0.25509498  0.01757825  0.24789292  1
  Zn  Zn85  1  0.11051497  0.50035257  0.12136590  1
  Zn  Zn86  1  0.43832191  0.40681473  -0.04044564  1
  Zn  Zn87  1  0.74823479  0.12522885  0.87239187  1
  Zn  Zn88  1  0.74847130  0.50029310  0.75197132  1
  Zn  Zn89  1  0.12705737  0.00155691  0.12451837  1
  Zn  Zn90  1  0.00160369  0.37480403  0.37707568  1
  Zn  Zn91  1  0.37661565  0.23688833  0.12918152  1
  Zn  Zn92  1  0.74927066  0.49957268  0.25290129  1
  Zn  Zn93  1  0.61647403  0.87219376  0.25607918  1
  Zn  Zn94  1  0.18176188  0.19337513  0.17324194  1
  Zn  Zn95  1  0.18879690  0.19164370  0.69024609  1
  Zn  Zn96  1  0.18442654  0.68821053  0.18214207  1
  Zn  Zn97  1  0.18134528  0.69889256  0.68263550  1
  Zn  Zn98  1  0.68696346  0.18410818  0.19304996  1
  Zn  Zn99  1  0.69431666  0.18512845  0.68341004  1
  Zn  Zn100  1  0.68616301  0.68674811  0.19014549  1
  Zn  Zn101  1  0.68768754  0.68205315  0.69198957  1
  Zn  Zn102  1  0.31375727  0.31694354  0.31351133  1
  Zn  Zn103  1  0.31991094  0.32272439  0.80857956  1
  Zn  Zn104  1  0.32762051  0.81864927  0.31544230  1
  Zn  Zn105  1  0.31120025  0.81528211  0.80857726  1
  Zn  Zn106  1  0.81316799  0.31341722  0.31260229  1
  Zn  Zn107  1  0.80927952  0.31194231  0.81111748  1
  Zn  Zn108  1  0.80820420  0.81418916  0.31403505  1
  Zn  Zn109  1  0.81041985  0.81149608  0.81364452  1
  Zn  Zn110  1  0.18594813  0.43920702  0.43390523  1
  Zn  Zn111  1  0.19212753  0.44372522  0.93609767  1
  Zn  Zn112  1  0.19023163  0.94213533  0.43172303  1
  Zn  Zn113  1  0.18762505  0.93611567  0.93396321  1
  Zn  Zn114  1  0.69077532  0.43321214  0.44106172  1
  Zn  Zn115  1  0.64267788  0.42374983  0.95482146  1
  Zn  Zn116  1  0.68580979  0.93904499  0.44172270  1
  Zn  Zn117  1  0.68731503  0.93895207  0.93709238  1
  Zn  Zn118  1  0.30533545  0.06006103  0.06030182  1
  Zn  Zn119  1  0.31542018  0.06250240  0.56051571  1
  Zn  Zn120  1  0.30789226  0.56387952  0.05667738  1
  Zn  Zn121  1  0.31272403  0.56549807  0.56973464  1
  Zn  Zn122  1  0.81095107  0.06661663  0.06303553  1
  Zn  Zn123  1  0.81082275  0.05892300  0.56073074  1
  Zn  Zn124  1  0.82636892  0.56277127  0.05996375  1
  Zn  Zn125  1  0.81560533  0.56123517  0.56291109  1
  Zn  Zn126  1  0.43968160  0.42930437  0.20183856  1
  Zn  Zn127  1  0.42647997  0.43409531  0.69638932  1
  Zn  Zn128  1  0.44323211  0.93569219  0.19314270  1
  Zn  Zn129  1  0.43616460  0.93877474  0.68371049  1
  Zn  Zn130  1  0.93051790  0.42868390  0.19011123  1
  Zn  Zn131  1  0.93729877  0.43566938  0.69198710  1
  Zn  Zn132  1  0.93897286  0.93549491  0.18875494  1
  Zn  Zn133  1  0.93110928  0.93029711  0.68825744  1
  Zn  Zn134  1  0.06318085  0.05994900  0.31224737  1
  Zn  Zn135  1  0.06291300  0.05874997  0.80569198  1
  Zn  Zn136  1  0.06247064  0.56101597  0.31833127  1
  Zn  Zn137  1  0.06427870  0.55659344  0.81310182  1
  Zn  Zn138  1  0.56117051  0.06274038  0.31139474  1
  Zn  Zn139  1  0.55700793  0.07144541  0.81742221  1
  Zn  Zn140  1  0.56657233  0.56456099  0.31623880  1
  Zn  Zn141  1  0.56412037  0.56685464  0.81224815  1
  Zn  Zn142  1  0.43910404  0.18230466  0.43218843  1
  Zn  Zn143  1  0.43703164  0.19161852  0.93927651  1
  Zn  Zn144  1  0.43436425  0.67898746  0.43776943  1
  Zn  Zn145  1  0.43247423  0.68826189  0.93243617  1
  Zn  Zn146  1  0.94280191  0.18597773  0.43799537  1
  Zn  Zn147  1  0.93819552  0.19102496  0.93353527  1
  Zn  Zn148  1  0.93923449  0.68741075  0.44037771  1
  Zn  Zn149  1  0.93705283  0.68781611  0.93919602  1
  Zn  Zn150  1  0.06475177  0.31479735  0.05852257  1
  Zn  Zn151  1  0.05983470  0.31136703  0.56328390  1
  Zn  Zn152  1  0.05922181  0.80727270  0.05943840  1
  Zn  Zn153  1  0.06824900  0.81056594  0.55924506  1
  Zn  Zn154  1  0.56344910  0.31265641  0.07196308  1
  Zn  Zn155  1  0.56041373  0.30883880  0.55769329  1
  Zn  Zn156  1  0.56224591  0.81513839  0.06226566  1
  Zn  Zn157  1  0.56089793  0.80726509  0.56000068  1
  O  O158  1  0.11207005  0.12277961  0.11128360  1
  O  O159  1  0.11966331  0.12746119  0.61766623  1
  O  O160  1  0.11476117  0.62193537  0.11769882  1
  O  O161  1  0.11707983  0.64289360  0.60577055  1
  O  O162  1  0.62853700  0.11755979  0.11379969  1
  O  O163  1  0.61638396  0.13606489  0.61335872  1
  O  O164  1  0.62561560  0.62228738  0.11536944  1
  O  O165  1  0.61396806  0.63048272  0.61535615  1
  O  O166  1  0.38507199  0.39010910  0.37161069  1
  O  O167  1  0.36989798  0.39818161  0.87207484  1
  O  O168  1  0.37369485  0.89513696  0.38045150  1
  O  O169  1  0.38373167  0.87265520  0.88659391  1
  O  O170  1  0.87511702  0.38128911  0.38497792  1
  O  O171  1  0.87993020  0.37889695  0.87030268  1
  O  O172  1  0.88238596  0.88207774  0.38188704  1
  O  O173  1  0.88295459  0.88211860  0.88033568  1
  O  O174  1  0.25801736  0.00361711  0.36622042  1
  O  O175  1  0.25521772  -0.00619841  0.86005860  1
  O  O176  1  0.26382708  0.48985468  0.36193337  1
  O  O177  1  0.24835487  0.50637109  0.85706516  1
  O  O178  1  0.75835292  0.00519637  0.37160603  1
  O  O179  1  0.76073231  -0.00156429  0.86695900  1
  O  O180  1  0.75777658  0.50635556  0.37820412  1
  O  O181  1  0.74904895  0.51473663  0.88269943  1
  O  O182  1  0.24594362  0.48891856  0.12999677  1
  O  O183  1  0.25576943  0.48306922  0.63035601  1
  O  O184  1  0.24693857  0.98190167  0.12684976  1
  O  O185  1  0.25921649  0.98476710  0.63269591  1
  O  O186  1  0.76479995  0.48763808  0.12367450  1
  O  O187  1  0.75427371  0.48353074  0.62245407  1
  O  O188  1  0.74549059  1.00791082  0.13681914  1
  O  O189  1  0.75605637  0.98837893  0.63417491  1
  O  O190  1  0.00842457  0.36443563  0.24874845  1
  O  O191  1  0.01065739  0.37075801  0.75738524  1
  O  O192  1  0.01098070  0.87229419  0.25898846  1
  O  O193  1  0.00993191  0.88455098  0.75898038  1
  O  O194  1  0.50339506  0.36251288  0.26721007  1
  O  O195  1  0.50398220  0.36263479  0.73046671  1
  O  O196  1  0.50839774  0.85871961  0.23509078  1
  O  O197  1  0.49518972  0.87166409  0.76259397  1
  O  O198  1  0.50044781  0.14261017  0.25631465  1
  O  O199  1  0.49124252  0.12988782  0.74027723  1
  O  O200  1  0.48960302  0.62285011  0.24641242  1
  O  O201  1  0.50630615  0.63853921  0.73445561  1
  O  O202  1  1.00875581  0.13359238  0.23838794  1
  O  O203  1  0.99009967  0.13056058  0.75342744  1
  O  O204  1  1.00004621  0.64021748  0.25695741  1
  O  O205  1  0.98517246  0.62239099  0.75739946  1
  O  O206  1  0.35997638  0.23939142  0.00997867  1
  O  O207  1  0.36156995  0.23954473  0.50567991  1
  O  O208  1  0.37366752  0.75604350  0.01033401  1
  O  O209  1  0.37637687  0.75108601  0.50692934  1
  O  O210  1  0.86396912  0.24225906  0.00805350  1
  O  O211  1  0.88972569  0.26001186  0.50852801  1
  O  O212  1  0.87994259  0.75918862  0.01457781  1
  O  O213  1  0.86767387  0.75164789  0.51150335  1
  O  O214  1  0.12679864  0.23732844  0.49263336  1
  O  O215  1  0.13540175  0.23942241  1.00080970  1
  O  O216  1  0.12055995  0.74075058  0.48240641  1
  O  O217  1  0.12575410  0.74635882  0.98671000  1
  O  O218  1  0.61859039  0.23594120  0.48333519  1
  O  O219  1  0.63132583  0.24374535  0.99468894  1
  O  O220  1  0.63361008  0.74139195  0.49354856  1
  O  O221  1  0.62657395  0.73972725  0.99750639  1
  O  O222  1  0.49703985  0.25522349  0.14067372  1
  O  O223  1  0.48709660  0.23824274  0.61658028  1
  O  O224  1  0.48621393  0.74934749  0.12113822  1
  O  O225  1  0.48731529  0.75204759  0.63062924  1
  O  O226  1  0.99409328  0.24483786  0.12819648  1
  O  O227  1  0.98795451  0.25791485  0.63933124  1
  O  O228  1  0.99409324  0.75556770  0.14140589  1
  O  O229  1  0.98553138  0.75532390  0.62087655  1
  O  O230  1  0.00940218  0.25006887  0.36436983  1
  O  O231  1  -0.00840328  0.26145543  0.85922279  1
  O  O232  1  -0.00361865  0.76067966  0.36554559  1
  O  O233  1  0.00795543  0.76322516  0.87806978  1
  O  O234  1  0.50424736  0.25898656  0.36919452  1
  O  O235  1  0.51515489  0.24986270  0.87666153  1
  O  O236  1  0.51290853  0.74269818  0.38175625  1
  O  O237  1  0.50559736  0.75641201  0.86930445  1
  O  O238  1  0.23440732  0.13211839  0.50687788  1
  O  O239  1  0.23664716  0.13401569  1.00012428  1
  O  O240  1  0.23361171  0.61670843  0.50367492  1
  O  O241  1  0.22840530  0.62875588  1.00488103  1
  O  O242  1  0.74090002  0.11667576  0.48856182  1
  O  O243  1  0.74184409  0.13470166  0.99861862  1
  O  O244  1  0.73999385  0.63039951  0.50005031  1
  O  O245  1  0.76044176  0.63046166  0.98998201  1
  O  O246  1  0.24164550  0.36628952  0.00997569  1
  O  O247  1  0.23957013  0.36577033  0.50980394  1
  O  O248  1  0.26037503  0.87573312  0.00539790  1
  O  O249  1  0.24169160  0.87907189  0.51388010  1
  O  O250  1  0.73868720  0.36206458  0.01279362  1
  O  O251  1  0.76577315  0.37588082  0.50943000  1
  O  O252  1  0.76528480  0.87438065  -0.00583959  1
  O  O253  1  0.75514690  0.86805138  0.50907670  1
  O  O254  1  0.12834799  0.49276060  0.24863869  1
  O  O255  1  0.13282045  0.48395590  0.74853225  1
  O  O256  1  0.12982467  0.98901864  0.24790075  1
  O  O257  1  0.13456912  0.98920832  0.75028493  1
  O  O258  1  0.63249462  0.51606771  0.23286362  1
  O  O259  1  0.63492100  0.50654466  0.75193883  1
  O  O260  1  0.62988440  0.99953285  0.24021818  1
  O  O261  1  0.63834505  1.01002237  0.75862465  1
  O  O262  1  0.37492901  -0.00273757  0.25780868  1
  O  O263  1  0.36872685  0.00871359  0.75064402  1
  O  O264  1  0.36840461  0.51276235  0.24921326  1
  O  O265  1  0.35410414  0.50292031  0.75367822  1
  O  O266  1  0.86962455  -0.00696078  0.26261883  1
  O  O267  1  0.87321788  0.00465058  0.75666057  1
  O  O268  1  0.87354230  0.49348522  0.26637474  1
  O  O269  1  0.86893130  0.51613632  0.74311049  1
  O  O270  1  0.12533567  0.36574220  0.36103040  1
  O  O271  1  0.12761425  0.37230433  0.86307135  1
  O  O272  1  0.11963062  0.86453109  0.36962976  1
  O  O273  1  0.11758267  0.87003004  0.86777091  1
  O  O274  1  0.61703899  0.36842457  0.38086137  1
  O  O275  1  0.63797277  0.35798662  0.86142555  1
  O  O276  1  0.62851181  0.85766152  0.38269002  1
  O  O277  1  0.61314155  0.86514199  0.88721168  1
  O  O278  1  0.33583264  0.12628552  0.15120016  1
  O  O279  1  0.38014985  0.13316725  0.63177068  1
  O  O280  1  0.37027494  0.63600362  0.13193562  1
  O  O281  1  0.38723847  0.64014097  0.61845986  1
  O  O282  1  0.88814911  0.13376386  0.12080508  1
  O  O283  1  0.87213743  0.13073208  0.63062545  1
  O  O284  1  0.87847067  0.64361394  0.12600461  1
  O  O285  1  0.86893269  0.63705432  0.63643211  1
  O  O286  1  0.25073327  0.26928614  0.11870145  1
  O  O287  1  0.25292329  0.25664628  0.61414357  1
  O  O288  1  0.25529762  0.75953194  0.12127957  1
  O  O289  1  0.26622900  0.75933622  0.62850255  1
  O  O290  1  0.75429578  0.25510872  0.12243817  1
  O  O291  1  0.76732957  0.25879558  0.62819561  1
  O  O292  1  0.76366515  0.75068341  0.12901019  1
  O  O293  1  0.75340336  0.75313996  0.61876160  1
  O  O294  1  0.24194761  0.25944070  0.38515136  1
  O  O295  1  0.25728859  0.25960490  0.88985683  1
  O  O296  1  0.24075149  0.75265223  0.36759842  1
  O  O297  1  0.23663993  0.75789972  0.87600278  1
  O  O298  1  0.74395362  0.23976893  0.36768994  1
  O  O299  1  0.74396478  0.24628883  0.88366395  1
  O  O300  1  0.75368147  0.74221075  0.39098753  1
  O  O301  1  0.73977793  0.74782165  0.88006895  1
  O  O302  1  0.00779362  0.12073130  0.00251216  1
  O  O303  1  0.01478357  0.11675411  0.49547216  1
  O  O304  1  0.01802427  0.63128244  -0.00884261  1
  O  O305  1  0.00530424  0.61230805  0.49655334  1
  O  O306  1  0.50634810  0.11576756  -0.00340945  1
  O  O307  1  0.50750312  0.11706010  0.50501743  1
  O  O308  1  0.51006448  0.62746860  -0.00259005  1
  O  O309  1  0.51132580  0.62669902  0.51158750  1
  O  O310  1  0.49779739  0.37048043  0.48264837  1
  O  O311  1  0.53739188  0.38775746  0.99536018  1
  O  O312  1  0.50739764  0.89275551  0.50877012  1
  O  O313  1  0.49060609  0.88292079  0.99430743  1
  O  O314  1  0.99566723  0.38598066  0.49868487  1
  O  O315  1  0.99978069  0.36270279  0.98199985  1
  O  O316  1  0.99931008  0.88036065  0.49047506  1
  O  O317  1  0.99440587  0.88494346  0.99246041  1
  O  O318  1  0.49176236  0.49106416  0.36856486  1
  O  O319  1  0.47647727  0.51516255  0.86263742  1
  O  O320  1  0.49641112  0.99847672  0.38403988  1
  O  O321  1  0.49844299  0.99288409  0.88541128  1
  O  O322  1  0.99116784  0.49640787  0.38238324  1
  O  O323  1  1.00273241  0.48201629  0.87221539  1
  O  O324  1  0.99494374  0.99172678  0.37969821  1
  O  O325  1  0.99266399  0.99374298  0.88190395  1
  O  O326  1  -0.00108452  0.00664811  0.11424939  1
  O  O327  1  -0.00634178  -0.01003889  0.60999751  1
  O  O328  1  -0.02401089  0.50136160  0.10960580  1
  O  O329  1  -0.00222384  0.49797664  0.61235508  1
  O  O330  1  0.50993499  -0.00359549  0.11274072  1
  O  O331  1  0.49361236  0.01399084  0.61599876  1
  O  O332  1  0.50890130  0.49611474  0.13205374  1
  O  O333  1  0.48606872  0.51645323  0.63220553  1
  O  O334  1  0.24407614  0.38211102  0.23710409  1
  O  O335  1  0.23737219  0.37404061  0.73939933  1
  O  O336  1  0.23985290  0.86759240  0.24257442  1
  O  O337  1  0.24359809  0.88283919  0.74181936  1
  O  O338  1  0.75168284  0.37541302  0.23491725  1
  O  O339  1  0.75109469  0.37690347  0.73502210  1
  O  O340  1  0.73976933  0.88943060  0.25972118  1
  O  O341  1  0.75475549  0.88448407  0.74379607  1
  O  O342  1  0.27180258  0.12844233  0.20984728  1
  O  O343  1  0.25680781  0.11381458  0.73882271  1
  O  O344  1  0.24966685  0.61264800  0.24252798  1
  O  O345  1  0.23490287  0.60992327  0.73117999  1
  O  O346  1  0.74629006  0.11129322  0.26512051  1
  O  O347  1  0.76373577  0.11447645  0.74992621  1
  O  O348  1  0.74964359  0.62499212  0.26911407  1
  O  O349  1  0.75613826  0.62680437  0.76682640  1
  O  O350  1  0.37835088  0.10521395  0.37817623  1
  O  O351  1  0.38061998  0.12830513  0.85849622  1
  O  O352  1  0.37952407  0.61346375  0.35952844  1
  O  O353  1  0.36085882  0.62387867  0.87380478  1
  O  O354  1  0.86895447  0.11495342  0.38257523  1
  O  O355  1  0.87554898  0.11297342  0.86720619  1
  O  O356  1  0.86555921  0.61404403  0.38866650  1
  O  O357  1  0.86571047  0.63396883  0.86498995  1
  O  O358  1  0.12631535  0.37952428  0.13418672  1
  O  O359  1  0.13557795  0.37003020  0.63102637  1
  O  O360  1  0.12932737  0.87169995  0.13213441  1
  O  O361  1  0.14032173  0.86070938  0.63389159  1
  O  O362  1  0.63898889  0.39635786  0.12443444  1
  O  O363  1  0.64274084  0.36186420  0.61885148  1
  O  O364  1  0.63229574  0.88893527  0.11587633  1
  O  O365  1  0.63748969  0.86566086  0.62539651  1
  O  O366  1  0.11949163  0.25586481  0.25155465  1
  O  O367  1  0.11604628  0.26049401  0.74547808  1
  O  O368  1  0.11416761  0.75465254  0.25949878  1
  O  O369  1  0.12717516  0.76299160  0.76244609  1
  O  O370  1  0.61642559  0.24636704  0.26296374  1
  O  O371  1  0.62789195  0.23513298  0.76583960  1
  O  O372  1  0.63384081  0.74643923  0.27201803  1
  O  O373  1  0.61569896  0.74571859  0.76364316  1
  O  O374  1  0.38619333  0.25558332  0.25046236  1
  O  O375  1  0.36934102  0.24222930  0.73824921  1
  O  O376  1  0.37015944  0.73680083  0.24078681  1
  O  O377  1  0.38657589  0.75163814  0.74751014  1
  O  O378  1  0.88779872  0.25358679  0.24120143  1
  O  O379  1  0.87991553  0.23875357  0.74366649  1
  O  O380  1  0.88484238  0.76046693  0.24233663  1
  O  O381  1  0.87337679  0.74393038  0.73973243  1
  O  O382  1  0.36981090  0.51060206  0.48263061  1
  O  O383  1  0.36727230  0.50396789  0.98052884  1
  O  O384  1  0.38825963  1.00217375  0.49429489  1
  O  O385  1  0.38134912  0.99468411  1.00112022  1
  O  O386  1  0.88678491  0.49302436  0.49552179  1
  O  O387  1  0.93248393  0.50478029  1.04259869  1
  O  O388  1  0.88355947  0.99431002  0.49091839  1
  O  O389  1  0.88203862  0.99755732  0.99298623  1
  O  O390  1  0.11686421  0.00891279  -0.00212011  1
  O  O391  1  0.12006680  0.01386652  0.49513419  1
  O  O392  1  0.12433819  0.51124706  0.00066587  1
  O  O393  1  0.11390578  0.51106542  0.49179120  1
  O  O394  1  0.62079334  0.00820362  0.00464500  1
  O  O395  1  0.61343698  0.01381696  0.49276829  1
  O  O396  1  0.63294423  0.52048523  0.01584729  1
  O  O397  1  0.62767551  0.51297944  0.49957357  1
  O  O398  1  0.36445482  0.37941312  0.12345310  1
  O  O399  1  0.35769200  0.36145443  0.62887734  1
  O  O400  1  0.36890002  0.86319949  0.11880868  1
  O  O401  1  0.36603283  0.86478508  0.62518315  1
  O  O402  1  0.86382705  0.36074294  0.12204178  1
  O  O403  1  0.87012855  0.36824745  0.61973628  1
  O  O404  1  0.88150493  0.87024508  0.11514411  1
  O  O405  1  0.86520901  0.86021943  0.62234384  1
  O  O406  1  0.12924517  0.13632479  0.36930532  1
  O  O407  1  0.11836336  0.12368998  0.88557055  1
  O  O408  1  0.12633773  0.63782234  0.37770325  1
  O  O409  1  0.12241241  0.64028333  0.87090045  1
  O  O410  1  0.63311879  0.13073083  0.38035642  1
  O  O411  1  0.62752940  0.13328696  0.88910975  1
  O  O412  1  0.63193624  0.63144225  0.38957240  1
  O  O413  1  0.63539406  0.63262653  0.89043889  1
