# generated using pymatgen
data_V79Zn79O256
_symmetry_space_group_name_H-M   'P 1'
_cell_length_a   16.93284458
_cell_length_b   16.92050703
_cell_length_c   16.92272069
_cell_angle_alpha   89.99798322
_cell_angle_beta   90.01588190
_cell_angle_gamma   90.06466835
_symmetry_Int_Tables_number   1
_chemical_formula_structural   V79Zn79O256
_chemical_formula_sum   'V79 Zn79 O256'
_cell_volume   4848.56461507
_cell_formula_units_Z   1
loop_
 _symmetry_equiv_pos_site_id
 _symmetry_equiv_pos_as_xyz
  1  'x, y, z'
loop_
 _atom_site_type_symbol
 _atom_site_label
 _atom_site_symmetry_multiplicity
 _atom_site_fract_x
 _atom_site_fract_y
 _atom_site_fract_z
 _atom_site_occupancy
  V  V0  1  0.88280811  0.88084955  0.50202985  1
  V  V1  1  0.13050777  0.37762505  0.24565518  1
  V  V2  1  0.11868549  0.00499824  0.61621795  1
  V  V3  1  0.60699141  0.50110586  0.13914430  1
  V  V4  1  -0.00265733  0.63033768  0.12145979  1
  V  V5  1  0.26622252  0.49882524  0.74355349  1
  V  V6  1  0.50257391  0.01568867  0.00325297  1
  V  V7  1  0.87337925  0.75061436  0.62908276  1
  V  V8  1  0.74564724  -0.00392653  0.25043648  1
  V  V9  1  0.62676533  0.36733485  0.75368271  1
  V  V10  1  0.88309137  -0.00553093  0.87262092  1
  V  V11  1  0.50381543  0.75742231  0.25147651  1
  V  V12  1  0.75029175  0.62484395  0.37015692  1
  V  V13  1  0.25792942  0.00181182  0.75372945  1
  V  V14  1  0.38444966  0.86974757  0.49906668  1
  V  V15  1  0.00509976  0.01321173  0.00634271  1
  V  V16  1  0.87222627  0.37413234  -0.01216655  1
  V  V17  1  0.88062910  0.12099238  0.75174280  1
  V  V18  1  0.24779320  0.74977264  -0.00645799  1
  V  V19  1  -0.00625502  0.49668999  -0.00622323  1
  V  V20  1  0.12069731  0.63155679  0.49384385  1
  V  V21  1  0.62483706  0.87508599  0.75203908  1
  V  V22  1  0.62318759  0.02140292  0.12476123  1
  V  V23  1  0.61808034  0.62895997  0.50262864  1
  V  V24  1  0.24288444  0.88095942  0.12718933  1
  V  V25  1  0.37898183  0.49733617  0.89612550  1
  V  V26  1  0.88134154  0.87184266  0.00601389  1
  V  V27  1  0.12445224  0.23597736  0.87874396  1
  V  V28  1  0.37407919  0.62359707  0.25650032  1
  V  V29  1  0.50874678  0.25639552  0.26041903  1
  V  V30  1  0.87532349  0.35718586  0.50518388  1
  V  V31  1  0.65393960  0.12638175  0.48754062  1
  V  V32  1  0.87525442  0.00048382  0.37520197  1
  V  V33  1  0.12123689  0.87028066  0.76579274  1
  V  V34  1  0.50077064  0.01831046  0.49446005  1
  V  V35  1  0.12481760  0.62514862  -0.00662290  1
  V  V36  1  0.00337780  0.75006257  0.76402931  1
  V  V37  1  -0.00248292  0.62556216  0.62621797  1
  V  V38  1  0.48488034  0.24748428  0.73078271  1
  V  V39  1  0.73302039  0.86856376  0.12507159  1
  V  V40  1  0.62604874  0.75856322  0.37042541  1
  V  V41  1  0.00816022  0.74958670  0.25237225  1
  V  V42  1  0.24376235  0.62104490  0.37203530  1
  V  V43  1  0.00118864  0.24375586  0.24592780  1
  V  V44  1  0.12311931  0.49673240  0.63330924  1
  V  V45  1  0.75286176  0.74710622  0.00315732  1
  V  V46  1  0.87040026  0.24910943  0.12521446  1
  V  V47  1  0.62905622  0.74624538  0.87477856  1
  V  V48  1  0.87402184  0.63052788  0.24406464  1
  V  V49  1  0.24452701  0.36173004  0.62362893  1
  V  V50  1  0.75192687  0.88248016  0.63125789  1
  V  V51  1  0.69836768  0.05690019  0.80816324  1
  V  V52  1  0.25570156  0.25231864  -0.00325628  1
  V  V53  1  0.87086127  0.60878792  0.75219476  1
  V  V54  1  0.24344077  0.75305192  0.49653942  1
  V  V55  1  0.37435714  0.49357067  0.38064953  1
  V  V56  1  0.75147136  0.60912037  0.87360744  1
  V  V57  1  0.26824958  0.11944450  0.87683932  1
  V  V58  1  0.38222293  0.24438268  0.12352213  1
  V  V59  1  0.25542132  0.38132121  0.11990791  1
  V  V60  1  0.48931268  0.73747561  0.73803070  1
  V  V61  1  0.24799686  0.13200557  0.38819174  1
  V  V62  1  0.87382216  0.50217869  0.36695696  1
  V  V63  1  0.74064885  0.24025920  -0.01375595  1
  V  V64  1  0.49222605  0.87388700  0.87852593  1
  V  V65  1  0.62277011  0.00846029  0.62456719  1
  V  V66  1  0.37349960  0.74521666  0.12678608  1
  V  V67  1  0.75255678  0.38945423  0.14056398  1
  V  V68  1  0.25102629  0.62462800  0.86603287  1
  V  V69  1  0.00207388  0.24828571  0.74853359  1
  V  V70  1  0.00734901  0.87116628  0.37656211  1
  V  V71  1  0.24942133  0.87350339  0.62328950  1
  V  V72  1  0.00823021  0.37275982  0.87752419  1
  V  V73  1  0.49684216  0.37078897  0.88424052  1
  V  V74  1  0.36766476  0.36085230  0.49942666  1
  V  V75  1  0.87641095  0.12096058  0.24633599  1
  V  V76  1  0.62501091  0.50428717  0.63289006  1
  V  V77  1  -0.00305508  0.50083365  0.49953906  1
  V  V78  1  0.00338905  0.37340632  0.37042574  1
  Zn  Zn79  1  0.58671300  0.59392920  0.00232348  1
  Zn  Zn80  1  0.37208395  0.00362486  0.36956397  1
  Zn  Zn81  1  0.00179155  0.12432134  0.61268588  1
  Zn  Zn82  1  0.07794692  0.06545465  0.15627227  1
  Zn  Zn83  1  0.24493574  0.00947688  0.24944737  1
  Zn  Zn84  1  0.53032897  0.46025204  0.47415244  1
  Zn  Zn85  1  0.12046305  0.88420838  0.24642436  1
  Zn  Zn86  1  0.50568954  0.88153123  0.36915875  1
  Zn  Zn87  1  0.37300064  0.87855856  -0.00088699  1
  Zn  Zn88  1  0.75315809  0.75280582  0.49697354  1
  Zn  Zn89  1  0.12783696  0.24491633  0.38559580  1
  Zn  Zn90  1  0.75682714  0.37451729  0.62796814  1
  Zn  Zn91  1  0.63358540  0.27986961  0.39352554  1
  Zn  Zn92  1  0.37971347  0.11888927  0.24803783  1
  Zn  Zn93  1  0.12538489  0.49791381  0.12403904  1
  Zn  Zn94  1  0.19776993  0.19140300  0.19649847  1
  Zn  Zn95  1  0.18446056  0.18270366  0.69628060  1
  Zn  Zn96  1  0.18661439  0.68837810  0.18370566  1
  Zn  Zn97  1  0.18829663  0.68735138  0.68417329  1
  Zn  Zn98  1  0.70336280  0.20702235  0.23033332  1
  Zn  Zn99  1  0.69132619  0.19670557  0.67754923  1
  Zn  Zn100  1  0.68382166  0.67943731  0.18320778  1
  Zn  Zn101  1  0.68862366  0.68743591  0.69089966  1
  Zn  Zn102  1  0.31215255  0.30721288  0.30701689  1
  Zn  Zn103  1  0.31300984  0.31559948  0.80773155  1
  Zn  Zn104  1  0.31067458  0.81398015  0.31465876  1
  Zn  Zn105  1  0.31365187  0.81150411  0.80612293  1
  Zn  Zn106  1  0.81425560  0.31337309  0.31996589  1
  Zn  Zn107  1  0.79627248  0.29570032  0.78974948  1
  Zn  Zn108  1  0.81589651  0.81295088  0.30815836  1
  Zn  Zn109  1  0.81338525  0.81126417  0.81457781  1
  Zn  Zn110  1  0.18731127  0.43834771  0.43958391  1
  Zn  Zn111  1  0.18567830  0.43700612  0.93550852  1
  Zn  Zn112  1  0.19037671  0.94629018  0.43693495  1
  Zn  Zn113  1  0.18562607  0.94064882  0.94143822  1
  Zn  Zn114  1  0.70101276  0.44169845  0.44630546  1
  Zn  Zn115  1  0.67992452  0.42716119  0.94635617  1
  Zn  Zn116  1  0.69424943  0.93921596  0.44219787  1
  Zn  Zn117  1  0.68376651  0.93299179  0.94637180  1
  Zn  Zn118  1  0.31611000  0.06273641  0.05698359  1
  Zn  Zn119  1  0.31509234  0.18033430  0.56725944  1
  Zn  Zn120  1  0.31191659  0.56614020  0.06524993  1
  Zn  Zn121  1  0.30751120  0.55568238  0.56437985  1
  Zn  Zn122  1  0.81192164  0.06073890  0.06326508  1
  Zn  Zn123  1  0.81819515  0.06216830  0.56810208  1
  Zn  Zn124  1  0.81239217  0.56228387  0.05761165  1
  Zn  Zn125  1  0.80641603  0.56224303  0.56159669  1
  Zn  Zn126  1  0.43206798  0.43574552  0.19620171  1
  Zn  Zn127  1  0.44623678  0.43036464  0.67178358  1
  Zn  Zn128  1  0.43541709  0.93814008  0.18222936  1
  Zn  Zn129  1  0.39548675  1.01042567  0.63440060  1
  Zn  Zn130  1  0.93901641  0.43753005  0.18016437  1
  Zn  Zn131  1  0.94219600  0.43101200  0.68961109  1
  Zn  Zn132  1  0.93396684  0.93186710  0.18563677  1
  Zn  Zn133  1  0.94432255  0.93649876  0.68979328  1
  Zn  Zn134  1  0.06673902  0.05549189  0.32659363  1
  Zn  Zn135  1  0.06427104  0.05677420  0.81606479  1
  Zn  Zn136  1  0.06135922  0.56037197  0.30839730  1
  Zn  Zn137  1  0.06075186  0.56294714  0.81257767  1
  Zn  Zn138  1  0.56242414  0.07201251  0.30830410  1
  Zn  Zn139  1  0.52166044  0.07288238  0.82337735  1
  Zn  Zn140  1  0.55713871  0.56668164  0.31317125  1
  Zn  Zn141  1  0.55815616  0.56175862  0.81515104  1
  Zn  Zn142  1  0.44087814  0.19310615  0.42556433  1
  Zn  Zn143  1  0.44004590  0.19791384  0.93486813  1
  Zn  Zn144  1  0.41066702  0.66111751  0.48354778  1
  Zn  Zn145  1  0.43074204  0.68708156  0.92585260  1
  Zn  Zn146  1  0.93779492  0.18315262  0.43002915  1
  Zn  Zn147  1  0.92706066  0.18614296  0.93429027  1
  Zn  Zn148  1  0.93556221  0.69207359  0.43661544  1
  Zn  Zn149  1  0.93068736  0.68338617  0.93631851  1
  Zn  Zn150  1  0.08480467  0.26468209  0.08357504  1
  Zn  Zn151  1  0.05729793  0.31202370  0.56540040  1
  Zn  Zn152  1  0.06292049  0.81041165  0.05754925  1
  Zn  Zn153  1  0.06242497  0.81522521  0.57012863  1
  Zn  Zn154  1  0.57330232  0.31668863  0.07270142  1
  Zn  Zn155  1  0.57363520  0.31540347  0.55628319  1
  Zn  Zn156  1  0.54687014  0.77271627  0.04696763  1
  Zn  Zn157  1  0.56742162  0.81249181  0.56356156  1
  O  O158  1  0.12009855  0.16036741  0.12206400  1
  O  O159  1  0.12227500  0.10779186  0.63770746  1
  O  O160  1  0.11784404  0.62127696  0.11322205  1
  O  O161  1  0.11804343  0.61677696  0.61523118  1
  O  O162  1  0.62839642  0.11681013  0.12274434  1
  O  O163  1  0.64224807  0.11245669  0.61628634  1
  O  O164  1  0.62646443  0.60610500  0.12030842  1
  O  O165  1  0.63591177  0.61863236  0.61219677  1
  O  O166  1  0.35864418  0.38501942  0.38333803  1
  O  O167  1  0.38068152  0.39046016  0.87142495  1
  O  O168  1  0.37200218  0.88228678  0.39093187  1
  O  O169  1  0.38961185  0.87148444  0.87467262  1
  O  O170  1  0.88474836  0.38280651  0.38328577  1
  O  O171  1  0.88532029  0.36347627  0.88594132  1
  O  O172  1  0.88203247  0.87746337  0.38447814  1
  O  O173  1  0.86499363  0.88781509  0.88652834  1
  O  O174  1  0.25173231  0.01384963  0.37179298  1
  O  O175  1  0.24841488  0.00956196  0.86968276  1
  O  O176  1  0.25402284  0.51216796  0.37836112  1
  O  O177  1  0.26146029  0.50028074  0.86531237  1
  O  O178  1  0.76393446  -0.01398795  0.36253834  1
  O  O179  1  0.75293379  -0.00146482  0.87433328  1
  O  O180  1  0.76450995  0.50974242  0.37844102  1
  O  O181  1  0.74225500  0.51226101  0.88413088  1
  O  O182  1  0.24617363  0.48539430  0.11755179  1
  O  O183  1  0.23834998  0.49369199  0.62904408  1
  O  O184  1  0.25519809  0.98234432  0.11554772  1
  O  O185  1  0.23427481  0.99087774  0.64530741  1
  O  O186  1  0.75800941  0.49036278  0.12472529  1
  O  O187  1  0.73386110  0.49034867  0.61190588  1
  O  O188  1  0.73642714  0.99153943  0.12667916  1
  O  O189  1  0.74374884  0.98802018  0.62238812  1
  O  O190  1  0.00255241  0.37022120  0.25644394  1
  O  O191  1  -0.01128312  0.35643148  0.76293977  1
  O  O192  1  -0.00289605  0.86500127  0.25601806  1
  O  O193  1  0.01299748  0.86526464  0.75026530  1
  O  O194  1  0.48739468  0.35658863  0.25351771  1
  O  O195  1  0.50640485  0.37116189  0.75216475  1
  O  O196  1  0.49333941  0.86181558  0.25227457  1
  O  O197  1  0.51799252  0.87507084  0.76412197  1
  O  O198  1  0.49250312  0.14270094  0.25405333  1
  O  O199  1  0.50082094  0.14606788  0.74746100  1
  O  O200  1  0.48140366  0.63986808  0.26078998  1
  O  O201  1  0.50214620  0.63898359  0.75430905  1
  O  O202  1  0.99402938  0.13356216  0.25349296  1
  O  O203  1  0.99433344  0.12961511  0.75566758  1
  O  O204  1  0.99664766  0.63063028  0.24155403  1
  O  O205  1  0.99181014  0.63001965  0.74545355  1
  O  O206  1  0.36406439  0.25108487  0.00451749  1
  O  O207  1  0.36682097  0.25745567  0.49322002  1
  O  O208  1  0.36125105  0.74740730  0.00818680  1
  O  O209  1  0.36315469  0.76783436  0.49971392  1
  O  O210  1  0.86907740  0.25607652  0.00904414  1
  O  O211  1  0.88633916  0.25840889  0.49926404  1
  O  O212  1  0.86728496  0.76450954  -0.00977047  1
  O  O213  1  0.87575426  0.75770869  0.51377872  1
  O  O214  1  0.08575867  0.22195046  0.49851116  1
  O  O215  1  0.14277859  0.25124761  0.98640617  1
  O  O216  1  0.12651547  0.73921404  0.50584326  1
  O  O217  1  0.13483817  0.73733472  1.00004605  1
  O  O218  1  0.63162796  0.22512614  0.50674508  1
  O  O219  1  0.64302466  0.25599588  1.00630998  1
  O  O220  1  0.63222271  0.74381486  0.49222548  1
  O  O221  1  0.64251444  0.75359513  0.98552376  1
  O  O222  1  0.48109183  0.26142351  0.11286095  1
  O  O223  1  0.50519694  0.26050558  0.63281515  1
  O  O224  1  0.48552088  0.75433057  0.14198649  1
  O  O225  1  0.51107484  0.75448261  0.64073952  1
  O  O226  1  0.98286259  0.26212194  0.13818985  1
  O  O227  1  1.00293595  0.24671981  0.64611821  1
  O  O228  1  1.00237248  0.73642726  0.12864771  1
  O  O229  1  0.99015043  0.74440078  0.63363532  1
  O  O230  1  -0.00394863  0.26178020  0.36180000  1
  O  O231  1  0.00909439  0.25163580  0.87690068  1
  O  O232  1  -0.00333360  0.75854842  0.36584853  1
  O  O233  1  -0.00188048  0.74187707  0.86317426  1
  O  O234  1  0.52022694  0.25089778  0.36594724  1
  O  O235  1  0.49013610  0.26798371  0.86017395  1
  O  O236  1  0.51071010  0.75614879  0.36256667  1
  O  O237  1  0.50831494  0.76032357  0.86125947  1
  O  O238  1  0.24919765  0.12979824  0.48837685  1
  O  O239  1  0.25560916  0.13070580  0.98300793  1
  O  O240  1  0.23619349  0.63196385  0.49289479  1
  O  O241  1  0.24241687  0.62877107  0.99168593  1
  O  O242  1  0.75406550  0.11955657  0.49524116  1
  O  O243  1  0.75801219  0.14159484  1.00592625  1
  O  O244  1  0.74870167  0.63185984  0.48472618  1
  O  O245  1  0.76235193  0.63508315  0.98463964  1
  O  O246  1  0.24537046  0.36756208  0.00954698  1
  O  O247  1  0.24994792  0.37385362  0.51209159  1
  O  O248  1  0.25103961  0.86600917  0.00347135  1
  O  O249  1  0.24898861  0.86890541  0.50388187  1
  O  O250  1  0.75949354  0.36464208  0.00696827  1
  O  O251  1  0.77390494  0.36977764  0.49838736  1
  O  O252  1  0.75660772  0.86632455  0.00748386  1
  O  O253  1  0.76299428  0.87215536  0.51224314  1
  O  O254  1  0.11705847  0.48337896  0.24453494  1
  O  O255  1  0.12639376  0.50208975  0.73635170  1
  O  O256  1  0.12422392  1.00145837  0.24040921  1
  O  O257  1  0.12712929  0.98233569  0.75153536  1
  O  O258  1  0.62076677  0.50584049  0.24163066  1
  O  O259  1  0.61805259  0.50327341  0.73479258  1
  O  O260  1  0.63348471  1.00550221  0.23746925  1
  O  O261  1  0.63219102  0.99693530  0.74553597  1
  O  O262  1  0.37009096  -0.00002252  0.25046014  1
  O  O263  1  0.35548932  -0.01186235  0.74764848  1
  O  O264  1  0.37385423  0.51137453  0.26561987  1
  O  O265  1  0.36589146  0.49816771  0.73575028  1
  O  O266  1  0.86980472  0.00409349  0.25315284  1
  O  O267  1  0.88328712  0.00118059  0.76489468  1
  O  O268  1  0.88890415  0.51191883  0.26112943  1
  O  O269  1  0.87910690  0.51000358  0.74330187  1
  O  O270  1  0.11594655  0.37363992  0.37113889  1
  O  O271  1  0.11390500  0.36376677  0.87726603  1
  O  O272  1  0.11001985  0.88511370  0.37408705  1
  O  O273  1  0.13147833  0.87005951  0.86414116  1
  O  O274  1  0.61095405  0.37455099  0.45338605  1
  O  O275  1  0.60369456  0.39213667  0.86307150  1
  O  O276  1  0.62934086  0.86221765  0.38238224  1
  O  O277  1  0.62458128  0.86500759  0.86974367  1
  O  O278  1  0.37107230  0.14159949  0.12029816  1
  O  O279  1  0.37234104  0.11780945  0.63395409  1
  O  O280  1  0.36075699  0.63577495  0.14089352  1
  O  O281  1  0.37933224  0.63327072  0.58782465  1
  O  O282  1  0.87346287  0.13326628  0.13661695  1
  O  O283  1  0.88591756  0.11094432  0.64480878  1
  O  O284  1  0.88542812  0.61724186  0.13301767  1
  O  O285  1  0.87544535  0.63220724  0.63173371  1
  O  O286  1  0.26050717  0.25938408  0.11372772  1
  O  O287  1  0.24034004  0.25843871  0.62793244  1
  O  O288  1  0.25417879  0.75646936  0.11493222  1
  O  O289  1  0.24363589  0.76220321  0.61340935  1
  O  O290  1  0.76324928  0.26317166  0.13237206  1
  O  O291  1  0.77167417  0.27300303  0.67479357  1
  O  O292  1  0.74561248  0.75072600  0.11216384  1
  O  O293  1  0.76116146  0.75925300  0.62772879  1
  O  O294  1  0.24605559  0.24014255  0.37150983  1
  O  O295  1  0.24769656  0.23992506  0.87396259  1
  O  O296  1  0.25090478  0.74241729  0.38959793  1
  O  O297  1  0.26104355  0.73697832  0.88171326  1
  O  O298  1  0.72470317  0.25123344  0.33618485  1
  O  O299  1  0.75350779  0.25045027  0.88703691  1
  O  O300  1  0.74412326  0.74375366  0.37083958  1
  O  O301  1  0.74366435  0.74462924  0.87994684  1
  O  O302  1  -0.00896351  0.11232065  -0.00176167  1
  O  O303  1  0.02789278  0.15704382  0.49999258  1
  O  O304  1  0.00335867  0.61988159  0.00154608  1
  O  O305  1  0.00230762  0.62026167  0.50388430  1
  O  O306  1  0.50033892  0.11362794  -0.01294073  1
  O  O307  1  0.50522444  0.11785418  0.49398888  1
  O  O308  1  0.50915959  0.66919375  0.00148542  1
  O  O309  1  0.52047349  0.63423628  0.49175200  1
  O  O310  1  0.46824280  0.36932350  0.51109848  1
  O  O311  1  0.50561728  0.36597563  0.98233646  1
  O  O312  1  0.48982795  0.87115319  0.49874433  1
  O  O313  1  0.50121928  0.86418803  0.98422594  1
  O  O314  1  0.99557963  0.38284425  0.49035519  1
  O  O315  1  0.99237451  0.38208839  0.99255404  1
  O  O316  1  0.99030096  0.86690771  0.49352749  1
  O  O317  1  0.98463422  0.87759414  1.00471053  1
  O  O318  1  0.48005923  0.50519381  0.37974941  1
  O  O319  1  0.48330270  0.49680145  0.87489504  1
  O  O320  1  0.50802497  0.99684370  0.38630956  1
  O  O321  1  0.50927906  0.98439059  0.89090364  1
  O  O322  1  0.99467885  0.49326664  0.38148529  1
  O  O323  1  1.00623222  0.48861657  0.88270377  1
  O  O324  1  0.98454664  0.98611608  0.36917954  1
  O  O325  1  0.98774048  0.99621091  0.88708903  1
  O  O326  1  -0.00586173  -0.00074664  0.11260616  1
  O  O327  1  0.01293451  -0.00009958  0.62563160  1
  O  O328  1  0.00269780  0.50927139  0.11156893  1
  O  O329  1  0.00489401  0.50384864  0.61788294  1
  O  O330  1  0.51381985  -0.00130792  0.11649426  1
  O  O331  1  0.51439156  -0.00216830  0.60669091  1
  O  O332  1  0.50705527  0.49124140  0.13034485  1
  O  O333  1  0.52477701  0.48920510  0.60431190  1
  O  O334  1  0.24027387  0.36642553  0.23470295  1
  O  O335  1  0.25047951  0.38353775  0.73227192  1
  O  O336  1  0.24524053  0.87269466  0.23566138  1
  O  O337  1  0.23913242  0.87680987  0.74597196  1
  O  O338  1  0.76985999  0.38528598  0.23823250  1
  O  O339  1  0.72500889  0.38804959  0.77200042  1
  O  O340  1  0.76017206  0.88496608  0.23614566  1
  O  O341  1  0.73999774  0.86963584  0.74214749  1
  O  O342  1  0.26139749  0.12566989  0.25800496  1
  O  O343  1  0.24671666  0.11023614  0.76255226  1
  O  O344  1  0.25604480  0.63837172  0.26435281  1
  O  O345  1  0.24244043  0.61502272  0.75738316  1
  O  O346  1  0.76289401  0.10685652  0.24524968  1
  O  O347  1  0.76080860  0.11859700  0.75071148  1
  O  O348  1  0.76093717  0.63091381  0.25929640  1
  O  O349  1  0.75716326  0.62684678  0.76323367  1
  O  O350  1  0.36352997  0.12521404  0.37514709  1
  O  O351  1  0.36721944  0.12581724  0.87168461  1
  O  O352  1  0.36237919  0.61574850  0.37882045  1
  O  O353  1  0.36296720  0.60787845  0.87641146  1
  O  O354  1  0.88093456  0.11131072  0.36355613  1
  O  O355  1  0.87262091  0.10547056  0.86726620  1
  O  O356  1  0.87101458  0.62092519  0.36688195  1
  O  O357  1  0.86218082  0.62419079  0.86520584  1
  O  O358  1  0.13458362  0.36748159  0.13046075  1
  O  O359  1  0.13284972  0.38376166  0.61524797  1
  O  O360  1  0.13944183  0.86926830  0.12048648  1
  O  O361  1  0.13205710  0.88412678  0.63185745  1
  O  O362  1  0.64427470  0.38841515  0.13102058  1
  O  O363  1  0.63080964  0.38448865  0.63973388  1
  O  O364  1  0.63411912  0.86680162  0.12084121  1
  O  O365  1  0.63325086  0.88474873  0.63170378  1
  O  O366  1  0.11326869  0.26323469  0.25491928  1
  O  O367  1  0.10980157  0.24427716  0.76286575  1
  O  O368  1  0.11133797  0.75295739  0.24548493  1
  O  O369  1  0.11752707  0.76030081  0.74284852  1
  O  O370  1  0.60107078  0.25235294  0.21960290  1
  O  O371  1  0.61726267  0.26508228  0.74860476  1
  O  O372  1  0.61097666  0.74120959  0.25356729  1
  O  O373  1  0.62242985  0.75636185  0.75849366  1
  O  O374  1  0.38244080  0.24917787  0.23355345  1
  O  O375  1  0.38443472  0.26045260  0.73945117  1
  O  O376  1  0.37971246  0.74555253  0.24796494  1
  O  O377  1  0.39001292  0.75394542  0.74758301  1
  O  O378  1  0.88121157  0.24018868  0.24722643  1
  O  O379  1  0.89224806  0.22886280  0.76987825  1
  O  O380  1  0.88725849  0.73732745  0.25091557  1
  O  O381  1  0.88301868  0.74734105  0.74291535  1
  O  O382  1  0.36581484  0.48820389  0.48646684  1
  O  O383  1  0.37454329  0.49934888  0.99479750  1
  O  O384  1  0.39758755  0.99448606  0.49746976  1
  O  O385  1  0.39856074  0.99342665  1.01066835  1
  O  O386  1  0.88732828  0.50297715  0.49014512  1
  O  O387  1  0.88548378  0.49092409  0.99893415  1
  O  O388  1  0.87264288  0.98974079  0.49165114  1
  O  O389  1  0.87924214  0.99086898  0.99272989  1
  O  O390  1  0.10432484  -0.00206818  -0.00503305  1
  O  O391  1  0.12926505  -0.00043742  0.51776378  1
  O  O392  1  0.11592205  0.50890877  -0.00053988  1
  O  O393  1  0.11206166  0.50834991  0.50595592  1
  O  O394  1  0.61536550  -0.00345714  0.01365855  1
  O  O395  1  0.62226826  0.00841797  0.50522403  1
  O  O396  1  0.62530170  0.49271216  0.02008179  1
  O  O397  1  0.63000935  0.52359763  0.49529228  1
  O  O398  1  0.35876612  0.37001804  0.12931855  1
  O  O399  1  0.35435188  0.37906413  0.61067008  1
  O  O400  1  0.36269373  0.86097099  0.12216700  1
  O  O401  1  0.35769102  0.89606810  0.60499985  1
  O  O402  1  0.86910227  0.37088439  0.11397009  1
  O  O403  1  0.88397151  0.38103002  0.60613281  1
  O  O404  1  0.86265834  0.87924478  0.10916238  1
  O  O405  1  0.87224601  0.87136379  0.62290074  1
  O  O406  1  0.14015827  0.12747420  0.36971298  1
  O  O407  1  0.13272023  0.13232695  0.87343350  1
  O  O408  1  0.12740691  0.61737799  0.38491968  1
  O  O409  1  0.13717444  0.61678001  0.88280025  1
  O  O410  1  0.63483608  0.11554715  0.38882843  1
  O  O411  1  0.63316334  0.10999463  0.85893289  1
  O  O412  1  0.63358408  0.63482370  0.38010148  1
  O  O413  1  0.63740063  0.63083219  0.87384974  1
