# generated using pymatgen
data_V79Zn79O256
_symmetry_space_group_name_H-M   'P 1'
_cell_length_a   16.89927555
_cell_length_b   16.90389354
_cell_length_c   16.92025884
_cell_angle_alpha   90.01251697
_cell_angle_beta   89.96700520
_cell_angle_gamma   89.96671718
_symmetry_Int_Tables_number   1
_chemical_formula_structural   V79Zn79O256
_chemical_formula_sum   'V79 Zn79 O256'
_cell_volume   4833.49955479
_cell_formula_units_Z   1
loop_
 _symmetry_equiv_pos_site_id
 _symmetry_equiv_pos_as_xyz
  1  'x, y, z'
loop_
 _atom_site_type_symbol
 _atom_site_label
 _atom_site_symmetry_multiplicity
 _atom_site_fract_x
 _atom_site_fract_y
 _atom_site_fract_z
 _atom_site_occupancy
  V  V0  1  0.50131401  0.37825150  0.37707554  1
  V  V1  1  0.87645305  0.37069759  -0.00620345  1
  V  V2  1  0.74829807  0.00128160  0.74078176  1
  V  V3  1  0.37731085  0.00215824  0.88820812  1
  V  V4  1  0.37894342  0.74974813  0.63477479  1
  V  V5  1  0.50508676  0.62379063  0.61564124  1
  V  V6  1  0.74915205  0.87518456  0.12563355  1
  V  V7  1  0.63140815  0.36963860  0.77066776  1
  V  V8  1  0.60992737  0.87217014  0.25169736  1
  V  V9  1  0.37745530  -0.00139158  0.39388285  1
  V  V10  1  0.00227305  0.00824146  0.51393534  1
  V  V11  1  0.63946948  0.74722476  0.37097778  1
  V  V12  1  0.88057021  0.00104195  0.87906627  1
  V  V13  1  0.13188884  0.62521026  -0.00434834  1
  V  V14  1  0.24224264  0.12669452  0.88047150  1
  V  V15  1  0.74913458  0.13042039  0.37333903  1
  V  V16  1  0.50056065  0.88377113  0.88205195  1
  V  V17  1  0.75090568  0.37031890  0.13090969  1
  V  V18  1  0.13301944  0.24189351  0.36962553  1
  V  V19  1  0.88352190  0.23955242  0.11948055  1
  V  V20  1  0.87821967  0.35781604  0.51113926  1
  V  V21  1  0.61796472  0.12247151  -0.00266486  1
  V  V22  1  0.37957288  0.13132315  0.73981173  1
  V  V23  1  -0.00749580  0.24154792  0.25283181  1
  V  V24  1  0.87781546  0.75029368  0.13100729  1
  V  V25  1  0.12059593  0.37700067  0.25440402  1
  V  V26  1  0.74534397  0.12699969  0.87259917  1
  V  V27  1  -0.00589532  0.24922539  0.72923697  1
  V  V28  1  0.13263804  0.37160141  0.74686124  1
  V  V29  1  0.36413749  0.11752947  0.25125318  1
  V  V30  1  0.12507085  0.49279247  0.12448029  1
  V  V31  1  0.24545449  -0.00045278  0.74832368  1
  V  V32  1  0.12491198  -0.01887363  0.13261537  1
  V  V33  1  0.25212130  0.87755912  0.62491326  1
  V  V34  1  0.48015362  0.36894526  0.88317239  1
  V  V35  1  0.75210667  0.86099017  0.62481098  1
  V  V36  1  0.12425047  0.62460328  0.49689472  1
  V  V37  1  0.87335617  0.86715006  0.50547667  1
  V  V38  1  0.61370947  -0.00044386  0.12317130  1
  V  V39  1  0.74748440  -0.00057307  0.25083650  1
  V  V40  1  0.11542811  0.11441377  0.01093552  1
  V  V41  1  0.75125675  0.75102270  0.00439688  1
  V  V42  1  -0.00907751  0.63549864  0.62660805  1
  V  V43  1  0.74408951  0.24854690  -0.00601318  1
  V  V44  1  0.12819460  0.75773238  0.37240996  1
  V  V45  1  0.12605247  0.12289423  0.51213910  1
  V  V46  1  0.62151633  0.87946677  0.75342592  1
  V  V47  1  -0.00886536  0.49437446  0.49354209  1
  V  V48  1  0.12027751  0.87883633  0.74729176  1
  V  V49  1  0.25450547  0.49382892  0.24558078  1
  V  V50  1  0.62878588  0.49040270  0.61360553  1
  V  V51  1  0.57128051  -0.05108719  0.57318922  1
  V  V52  1  0.24549577  0.25896426  0.00325276  1
  V  V53  1  0.25849187  0.74923074  0.50371559  1
  V  V54  1  0.36884901  0.26818185  0.12422692  1
  V  V55  1  0.49461990  0.12478773  0.12508524  1
  V  V56  1  0.00068423  0.87526676  0.87665256  1
  V  V57  1  0.87894110  0.00086839  0.37455961  1
  V  V58  1  0.24960432  0.61908749  0.37459335  1
  V  V59  1  0.65140174  0.62689351  0.49206334  1
  V  V60  1  0.62336002  0.75371328  0.87680269  1
  V  V61  1  0.74808982  0.49849492  0.74899998  1
  V  V62  1  0.37380382  0.49300887  0.40788720  1
  V  V63  1  0.87573819  0.49998730  0.87714222  1
  V  V64  1  0.87813701  0.12725281  0.73654328  1
  V  V65  1  0.12810642  0.49609309  0.62785134  1
  V  V66  1  0.75407902  0.24550954  0.51760491  1
  V  V67  1  0.62171609  0.62320693  0.00692308  1
  V  V68  1  0.62493064  0.25056415  0.36463571  1
  V  V69  1  -0.00017531  0.36604964  0.86890002  1
  V  V70  1  0.25177577  0.25498734  0.51192004  1
  V  V71  1  0.61192486  0.12581468  0.51166429  1
  V  V72  1  0.12205016  0.74093956  0.86280642  1
  V  V73  1  0.00221052  0.62809016  0.12127578  1
  V  V74  1  0.87366093  0.63859921  0.74834433  1
  V  V75  1  0.48945687  0.49633047  -0.00051893  1
  V  V76  1  0.62695196  0.49045235  0.12644009  1
  V  V77  1  0.75057230  0.62620724  0.87978016  1
  V  V78  1  0.01461893  0.75906048  0.24714286  1
  Zn  Zn79  1  0.00157967  0.49951822  -0.00499416  1
  Zn  Zn80  1  0.88671981  0.88179448  0.00446975  1
  Zn  Zn81  1  -0.06199732  0.40956056  0.33500785  1
  Zn  Zn82  1  0.49837849  0.26302567  0.24498905  1
  Zn  Zn83  1  0.67968825  0.42333320  0.29040143  1
  Zn  Zn84  1  0.42447522  0.68597289  0.20487752  1
  Zn  Zn85  1  0.38577050  0.35792335  0.52083095  1
  Zn  Zn86  1  0.24587898  -0.01701967  0.25431323  1
  Zn  Zn87  1  0.00987975  0.88089004  0.37339925  1
  Zn  Zn88  1  0.49887014  0.87928929  0.38811858  1
  Zn  Zn89  1  0.47070186  0.70431730  0.77493404  1
  Zn  Zn90  1  0.87950707  0.11780131  0.24180092  1
  Zn  Zn91  1  0.25690592  0.74699166  -0.00516673  1
  Zn  Zn92  1  0.37438223  0.85781774  0.00847137  1
  Zn  Zn93  1  0.50027132  0.24796812  0.75011765  1
  Zn  Zn94  1  0.18533763  0.18469313  0.18133721  1
  Zn  Zn95  1  0.18654824  0.18830430  0.69176784  1
  Zn  Zn96  1  0.21124777  0.80403833  0.18409207  1
  Zn  Zn97  1  0.16623057  0.70489822  0.66887365  1
  Zn  Zn98  1  0.69113485  0.18749677  0.18399946  1
  Zn  Zn99  1  0.68167474  0.18500330  0.69227276  1
  Zn  Zn100  1  0.68222355  0.68418050  0.19783543  1
  Zn  Zn101  1  0.67240478  0.68166958  0.69367931  1
  Zn  Zn102  1  0.31426119  0.31452765  0.31113199  1
  Zn  Zn103  1  0.30952795  0.31002028  0.81565339  1
  Zn  Zn104  1  0.32053834  0.81217043  0.32947097  1
  Zn  Zn105  1  0.32372799  0.79674794  0.83870095  1
  Zn  Zn106  1  0.80289597  0.56577184  0.31377124  1
  Zn  Zn107  1  0.81425524  0.31007575  0.80568166  1
  Zn  Zn108  1  0.81851819  0.81193096  0.31069183  1
  Zn  Zn109  1  0.80905827  0.81768209  0.81538222  1
  Zn  Zn110  1  0.18043798  0.43234501  0.43726414  1
  Zn  Zn111  1  0.18266350  0.43567716  0.93197045  1
  Zn  Zn112  1  0.19691829  0.94286193  0.43976166  1
  Zn  Zn113  1  0.19247330  0.93235140  0.94323963  1
  Zn  Zn114  1  0.70736895  0.43087474  0.44546172  1
  Zn  Zn115  1  0.69051440  0.44041473  0.94296632  1
  Zn  Zn116  1  0.69254784  0.93636241  0.43525213  1
  Zn  Zn117  1  0.69180145  0.94384374  0.93741302  1
  Zn  Zn118  1  0.30299614  0.06106090  0.06798171  1
  Zn  Zn119  1  0.30509406  0.07014907  0.56463856  1
  Zn  Zn120  1  0.30796535  0.57007603  0.06844604  1
  Zn  Zn121  1  0.33608702  0.53301922  0.61387624  1
  Zn  Zn122  1  0.80684990  0.06065752  0.06072657  1
  Zn  Zn123  1  0.81007633  0.05920706  0.55834573  1
  Zn  Zn124  1  0.79504183  0.57948382  0.11287313  1
  Zn  Zn125  1  0.81414489  0.55878601  0.56670444  1
  Zn  Zn126  1  0.46048063  0.47750268  0.20829247  1
  Zn  Zn127  1  0.45212465  0.43420499  0.69729391  1
  Zn  Zn128  1  0.39993912  0.90267796  0.21024563  1
  Zn  Zn129  1  0.42803342  0.93698253  0.69671970  1
  Zn  Zn130  1  0.93695581  0.43439506  0.17401464  1
  Zn  Zn131  1  0.93800358  0.44219081  0.68301561  1
  Zn  Zn132  1  0.94185802  0.93855371  0.18648030  1
  Zn  Zn133  1  0.93453956  0.93697239  0.69007547  1
  Zn  Zn134  1  0.06682088  0.06101180  0.30998891  1
  Zn  Zn135  1  0.06089072  0.06632165  0.81208597  1
  Zn  Zn136  1  -0.02941166  0.57204861  0.30655282  1
  Zn  Zn137  1  0.05717321  0.55970135  0.80594369  1
  Zn  Zn138  1  0.55604783  0.06448654  0.31280963  1
  Zn  Zn139  1  0.55944804  0.06291762  0.80944967  1
  Zn  Zn140  1  0.55029878  0.57506192  0.31482624  1
  Zn  Zn141  1  0.55033099  0.56131936  0.81351253  1
  Zn  Zn142  1  0.43539503  0.18849544  0.43180553  1
  Zn  Zn143  1  0.43036565  0.19053639  0.93920566  1
  Zn  Zn144  1  0.43436287  0.69240197  0.40097597  1
  Zn  Zn145  1  0.43357937  0.66545438  0.93395743  1
  Zn  Zn146  1  0.93969158  0.18737255  0.43379960  1
  Zn  Zn147  1  0.93760521  0.18421491  0.93022084  1
  Zn  Zn148  1  0.93625646  0.68728328  0.43540573  1
  Zn  Zn149  1  0.93886012  0.69153859  0.93894734  1
  Zn  Zn150  1  0.06314548  0.30802649  0.05877040  1
  Zn  Zn151  1  0.06780655  0.31299052  0.55931569  1
  Zn  Zn152  1  0.06708036  0.81445376  0.05457735  1
  Zn  Zn153  1  0.06236965  0.81869651  0.55776082  1
  Zn  Zn154  1  0.55868718  0.31125511  0.06077232  1
  Zn  Zn155  1  0.56631365  0.31042007  0.56000818  1
  Zn  Zn156  1  0.55724734  0.81203694  0.06437979  1
  Zn  Zn157  1  0.53868055  0.76946062  0.52071637  1
  O  O158  1  0.12183570  0.11501487  0.11562084  1
  O  O159  1  0.12167194  0.12917889  0.61117546  1
  O  O160  1  0.11833902  0.61448424  0.10437100  1
  O  O161  1  0.11102006  0.61788588  0.61982897  1
  O  O162  1  0.61812803  0.11914860  0.11882496  1
  O  O163  1  0.62078881  0.12991776  0.61201766  1
  O  O164  1  0.63097253  0.61017161  0.11417725  1
  O  O165  1  0.63575645  0.61678028  0.60233909  1
  O  O166  1  0.37783839  0.38444768  0.38142811  1
  O  O167  1  0.38197593  0.37963820  0.87097590  1
  O  O168  1  0.38100114  0.89157784  0.38942945  1
  O  O169  1  0.38456762  0.89369014  0.86422157  1
  O  O170  1  0.86537117  0.37636825  0.41054196  1
  O  O171  1  0.87964905  0.38099433  0.87363299  1
  O  O172  1  0.87100041  0.88715866  0.38693995  1
  O  O173  1  0.88283970  0.88324977  0.87365182  1
  O  O174  1  0.26881596  -0.00256828  0.37058044  1
  O  O175  1  0.25968451  0.00440993  0.86866908  1
  O  O176  1  0.25850476  0.49822051  0.37814180  1
  O  O177  1  0.27412436  0.50050182  0.87698920  1
  O  O178  1  0.75758179  0.00935477  0.37179337  1
  O  O179  1  0.75844572  0.00813449  0.86435586  1
  O  O180  1  0.72762173  0.49771423  0.36057948  1
  O  O181  1  0.75683630  0.50567045  0.86909814  1
  O  O182  1  0.24023292  0.50558226  0.13871278  1
  O  O183  1  0.22451465  0.51254701  0.61673292  1
  O  O184  1  0.23425856  1.00000262  0.13244790  1
  O  O185  1  0.25440029  0.99047448  0.63551999  1
  O  O186  1  0.73748565  0.48249771  0.11079275  1
  O  O187  1  0.73804810  0.50449556  0.63790557  1
  O  O188  1  0.74013461  0.99280574  0.13039173  1
  O  O189  1  0.75365605  0.99357978  0.63679388  1
  O  O190  1  0.00601107  0.36252505  0.24812501  1
  O  O191  1  -0.00152051  0.36434501  0.74961485  1
  O  O192  1  -0.00106694  0.86318633  0.25509304  1
  O  O193  1  0.01127157  0.88334079  0.75706307  1
  O  O194  1  0.49648160  0.38154876  0.26831605  1
  O  O195  1  0.51716048  0.37955652  0.77284592  1
  O  O196  1  0.50942890  0.88002221  0.25458707  1
  O  O197  1  0.51315669  0.88354298  0.76189819  1
  O  O198  1  0.49371085  0.13084373  0.23556630  1
  O  O199  1  0.48594394  0.12866463  0.75377294  1
  O  O200  1  0.48286714  0.59177619  0.22835307  1
  O  O201  1  0.55033457  0.64383919  0.71529095  1
  O  O202  1  1.00056590  0.13742056  0.24888190  1
  O  O203  1  0.99457871  0.14142824  0.75362982  1
  O  O204  1  1.01459577  0.64359582  0.22882462  1
  O  O205  1  0.98951771  0.62162354  0.73470170  1
  O  O206  1  0.36104155  0.24583084  0.01495712  1
  O  O207  1  0.35531507  0.24590757  0.49069016  1
  O  O208  1  0.36496350  0.75054890  -0.05392480  1
  O  O209  1  0.36157711  0.74291989  0.50855016  1
  O  O210  1  0.86824706  0.24999750  0.00180871  1
  O  O211  1  0.86844695  0.24792299  0.50568273  1
  O  O212  1  0.86910963  0.75862885  0.00934361  1
  O  O213  1  0.88265865  0.76932828  0.49502964  1
  O  O214  1  0.12626412  0.24173582  0.48874040  1
  O  O215  1  0.13911620  0.23484915  1.01175139  1
  O  O216  1  0.13037284  0.74197563  0.49767191  1
  O  O217  1  0.12575620  0.73548926  0.98903311  1
  O  O218  1  0.63691970  0.23984071  0.49542417  1
  O  O219  1  0.63638032  0.23844481  1.00568289  1
  O  O220  1  0.64884105  0.73432480  0.49028953  1
  O  O221  1  0.62764929  0.74353560  0.99818966  1
  O  O222  1  0.48653558  0.24499061  0.12444604  1
  O  O223  1  0.48184421  0.27534717  0.63345823  1
  O  O224  1  0.46717202  0.76760459  0.12359684  1
  O  O225  1  0.48817263  0.74730614  0.62032888  1
  O  O226  1  0.99147270  0.25335772  0.13261125  1
  O  O227  1  0.99753431  0.25195838  0.63046450  1
  O  O228  1  0.99790965  0.75020726  0.12579086  1
  O  O229  1  1.00366451  0.73405496  0.61598779  1
  O  O230  1  0.00447695  0.25050966  0.36002281  1
  O  O231  1  -0.00539596  0.26291231  0.86420645  1
  O  O232  1  0.01359483  0.75038094  0.36481249  1
  O  O233  1  0.00886690  0.76110220  0.87575673  1
  O  O234  1  0.50920354  0.25661499  0.36907199  1
  O  O235  1  0.49317998  0.26400720  0.87536791  1
  O  O236  1  0.52369297  0.76426130  0.40381358  1
  O  O237  1  0.51662199  0.76391191  0.87092030  1
  O  O238  1  0.23180433  0.13384185  0.49904362  1
  O  O239  1  0.24016923  0.12933160  0.99591108  1
  O  O240  1  0.23612572  0.63267744  0.49757826  1
  O  O241  1  0.23448217  0.62052064  0.99107514  1
  O  O242  1  0.74418266  0.12986385  0.49369188  1
  O  O243  1  0.74151375  0.13031575  0.99113153  1
  O  O244  1  0.74980167  0.61237398  0.48839622  1
  O  O245  1  0.74299562  0.63321789  0.99969709  1
  O  O246  1  0.23983861  0.35838571  -0.00814688  1
  O  O247  1  0.24225781  0.35716310  0.49971114  1
  O  O248  1  0.25976082  0.86347411  0.00034991  1
  O  O249  1  0.24118472  0.86384412  0.51576773  1
  O  O250  1  0.75704505  0.36225598  -0.00036660  1
  O  O251  1  0.75645155  0.35173246  0.50922313  1
  O  O252  1  0.74370329  0.87040355  0.01413747  1
  O  O253  1  0.76488206  0.88449495  0.50988412  1
  O  O254  1  0.12855622  0.48821000  0.24080617  1
  O  O255  1  0.11737433  0.48972732  0.73625365  1
  O  O256  1  0.12832524  0.99572146  0.24112383  1
  O  O257  1  0.13551635  0.99385473  0.75640483  1
  O  O258  1  0.61602657  0.49916818  0.22824525  1
  O  O259  1  0.63225960  0.48956731  0.75086916  1
  O  O260  1  0.62835851  0.99269215  0.24331634  1
  O  O261  1  0.63700378  0.99239226  0.75852928  1
  O  O262  1  0.37455192  0.01217591  0.24548398  1
  O  O263  1  0.36364396  0.01294513  0.75881977  1
  O  O264  1  0.35387925  0.49126928  0.25166551  1
  O  O265  1  0.35814810  0.48491867  0.71107362  1
  O  O266  1  0.86920672  -0.00163384  0.25766408  1
  O  O267  1  0.86732835  0.00723153  0.75721307  1
  O  O268  1  0.89637040  0.49150356  0.26242150  1
  O  O269  1  0.86508908  0.50668083  0.75686602  1
  O  O270  1  0.12061171  0.36083016  0.36457484  1
  O  O271  1  0.11214774  0.38649795  0.85522047  1
  O  O272  1  0.12890235  0.86187275  0.38857425  1
  O  O273  1  0.11901081  0.86710455  0.86627863  1
  O  O274  1  0.62234868  0.36451821  0.37773509  1
  O  O275  1  0.63191710  0.36859962  0.87148014  1
  O  O276  1  0.63104870  0.86661553  0.36672443  1
  O  O277  1  0.62200626  0.87513560  0.87358174  1
  O  O278  1  0.38186011  0.12515117  0.13115244  1
  O  O279  1  0.36887808  0.12472114  0.64125536  1
  O  O280  1  0.32623581  0.66556492  0.13445118  1
  O  O281  1  0.39885558  0.63054326  0.62413777  1
  O  O282  1  0.86805223  0.13440153  0.12328700  1
  O  O283  1  0.87194318  0.11666746  0.63800493  1
  O  O284  1  0.89212591  0.63928191  0.11101329  1
  O  O285  1  0.88311729  0.62332216  0.63160175  1
  O  O286  1  0.25862094  0.25009469  0.11707734  1
  O  O287  1  0.24436285  0.24774647  0.61158568  1
  O  O288  1  0.27224266  0.72812058  0.11375964  1
  O  O289  1  0.25811845  0.75185057  0.62247040  1
  O  O290  1  0.75890413  0.25179140  0.11201747  1
  O  O291  1  0.75008163  0.23804144  0.61555989  1
  O  O292  1  0.75690357  0.75812941  0.12373535  1
  O  O293  1  0.73987305  0.76310952  0.63301029  1
  O  O294  1  0.23498810  0.25007144  0.37542030  1
  O  O295  1  0.25735604  0.23767235  0.89227191  1
  O  O296  1  0.24467060  0.74033510  0.38625996  1
  O  O297  1  0.22369517  0.74802425  0.86856819  1
  O  O298  1  0.74158814  0.23620128  0.38541258  1
  O  O299  1  0.75774387  0.23764552  0.88149817  1
  O  O300  1  0.73988775  0.74873471  0.36469655  1
  O  O301  1  0.74265852  0.74921082  0.88597968  1
  O  O302  1  0.01787879  0.12984679  -0.01043263  1
  O  O303  1  0.00718612  0.11548130  0.49722090  1
  O  O304  1  0.00910060  0.62309685  0.00300425  1
  O  O305  1  0.00386588  0.61592627  0.50782504  1
  O  O306  1  0.50925738  0.13387411  0.00895593  1
  O  O307  1  0.51409662  0.13418692  0.49687933  1
  O  O308  1  0.51179828  0.60927598  -0.00023835  1
  O  O309  1  0.52087330  0.63317500  0.51281901  1
  O  O310  1  0.49991057  0.36578892  0.48356170  1
  O  O311  1  0.49587345  0.37901007  0.99152080  1
  O  O312  1  0.52206375  0.88587982  0.51131656  1
  O  O313  1  0.49667382  0.87427325  0.98509266  1
  O  O314  1  0.99086947  0.38244735  0.50621365  1
  O  O315  1  0.99574096  0.37410161  0.98694708  1
  O  O316  1  0.99126173  0.88934900  0.49738695  1
  O  O317  1  1.00366356  0.87802663  0.98291216  1
  O  O318  1  0.47873016  0.49695029  0.38152062  1
  O  O319  1  0.51015166  0.48067975  0.89353507  1
  O  O320  1  0.48584063  0.99904073  0.37339016  1
  O  O321  1  0.48643063  0.99970805  0.87510867  1
  O  O322  1  1.00837933  0.49610789  0.39171665  1
  O  O323  1  0.98852898  0.48977411  0.86875809  1
  O  O324  1  0.99090234  1.00025087  0.37798181  1
  O  O325  1  0.98818862  0.99454858  0.86720848  1
  O  O326  1  0.02153254  -0.01187586  0.12480527  1
  O  O327  1  -0.00115743  -0.00099994  0.61225308  1
  O  O328  1  0.00804029  0.50943001  0.11854600  1
  O  O329  1  0.00689880  0.51034386  0.61484091  1
  O  O330  1  0.51147603  0.00784469  0.12553171  1
  O  O331  1  0.50406712  -0.00467905  0.62956284  1
  O  O332  1  0.51763699  0.48014741  0.10588628  1
  O  O333  1  0.51976117  0.51513004  0.62864747  1
  O  O334  1  0.23678829  0.38570051  0.25661273  1
  O  O335  1  0.23096993  0.36551238  0.75368127  1
  O  O336  1  0.28625947  0.87167340  0.23855007  1
  O  O337  1  0.24033025  0.88343491  0.74508516  1
  O  O338  1  0.75652788  0.36378247  0.23001800  1
  O  O339  1  0.74062195  0.38396456  0.75567499  1
  O  O340  1  0.74195761  0.87814664  0.23954018  1
  O  O341  1  0.74538187  0.88420423  0.74384517  1
  O  O342  1  0.26330005  0.12604639  0.24499072  1
  O  O343  1  0.25214574  0.11988919  0.75960846  1
  O  O344  1  0.23977039  0.60312230  0.27290770  1
  O  O345  1  0.26088611  0.54327252  0.81780096  1
  O  O346  1  0.75140599  0.11830402  0.25802509  1
  O  O347  1  0.75452665  0.12088129  0.75547076  1
  O  O348  1  0.76526060  0.61553567  0.21811941  1
  O  O349  1  0.75274699  0.61738869  0.75807027  1
  O  O350  1  0.38253599  0.11769911  0.35636022  1
  O  O351  1  0.36624345  0.11394450  0.87402648  1
  O  O352  1  0.36216873  0.60083197  0.39881592  1
  O  O353  1  0.44837207  0.61153416  0.83675248  1
  O  O354  1  0.86715355  0.11601799  0.37351760  1
  O  O355  1  0.86592296  0.11840763  0.86503828  1
  O  O356  1  0.88615914  0.62698644  0.36035026  1
  O  O357  1  0.87188434  0.61890923  0.86922793  1
  O  O358  1  0.11683441  0.38573756  0.13019692  1
  O  O359  1  0.12015717  0.38652872  0.63277550  1
  O  O360  1  0.13582446  0.87395519  0.12417147  1
  O  O361  1  0.13515575  0.86288653  0.63771814  1
  O  O362  1  0.63561586  0.37972742  0.11595540  1
  O  O363  1  0.62015552  0.38953749  0.62975770  1
  O  O364  1  0.62772481  0.87897355  0.13259415  1
  O  O365  1  0.63208622  0.88577200  0.63346136  1
  O  O366  1  0.11912611  0.25298675  0.25453773  1
  O  O367  1  0.10968230  0.26309772  0.74153571  1
  O  O368  1  0.12796291  0.75778232  0.25981418  1
  O  O369  1  0.11861499  0.75604289  0.75719631  1
  O  O370  1  0.62514681  0.24534981  0.26032146  1
  O  O371  1  0.62243833  0.26757694  0.74347192  1
  O  O372  1  0.61850031  0.75466828  0.26152367  1
  O  O373  1  0.63895432  0.76915309  0.76661134  1
  O  O374  1  0.37291909  0.24130525  0.23831094  1
  O  O375  1  0.36990370  0.23281336  0.75812027  1
  O  O376  1  0.39548666  0.73374986  0.30191146  1
  O  O377  1  0.37143812  0.75059428  0.74105981  1
  O  O378  1  0.88827247  0.24598876  0.23949452  1
  O  O379  1  0.88489113  0.24328070  0.74626809  1
  O  O380  1  0.88831562  0.75678963  0.23538036  1
  O  O381  1  0.86582800  0.73754707  0.75540139  1
  O  O382  1  0.36703193  0.47979270  0.50925600  1
  O  O383  1  0.39100216  0.51378073  1.01248297  1
  O  O384  1  0.37447263  1.01887390  0.49138958  1
  O  O385  1  0.36828827  0.99855184  0.98871891  1
  O  O386  1  0.88934159  0.49906414  0.50317474  1
  O  O387  1  0.87512236  0.49138479  0.98354324  1
  O  O388  1  0.88744621  0.99887954  0.49361734  1
  O  O389  1  0.86435676  0.99789066  0.98464266  1
  O  O390  1  0.13091970  0.00727331  0.01021241  1
  O  O391  1  0.11450181  0.01204314  0.49350591  1
  O  O392  1  0.12416722  0.50653304  0.00071922  1
  O  O393  1  0.11404997  0.50368112  0.50787570  1
  O  O394  1  0.63143763  0.01210323  0.01008233  1
  O  O395  1  0.62749844  0.01088479  0.50501490  1
  O  O396  1  0.62103516  0.50671761  0.00531343  1
  O  O397  1  0.63452020  0.50107419  0.51026081  1
  O  O398  1  0.37624115  0.36388960  0.13056237  1
  O  O399  1  0.42322761  0.33971735  0.63183916  1
  O  O400  1  0.40756401  0.83108076  0.11926650  1
  O  O401  1  0.36218238  0.86506321  0.63308581  1
  O  O402  1  0.87014511  0.36302376  0.11179923  1
  O  O403  1  0.87073108  0.38571518  0.61017529  1
  O  O404  1  0.86558403  0.87190877  0.12332235  1
  O  O405  1  0.86950682  0.87736624  0.61421639  1
  O  O406  1  0.11954739  0.13875474  0.37945786  1
  O  O407  1  0.13720456  0.11544119  0.88558247  1
  O  O408  1  0.13042095  0.63512942  0.38806600  1
  O  O409  1  0.11129758  0.63246317  0.87848861  1
  O  O410  1  0.63082333  0.12944320  0.38263691  1
  O  O411  1  0.63556653  0.11735082  0.88184587  1
  O  O412  1  0.62057355  0.63501656  0.38169718  1
  O  O413  1  0.63082367  0.63527366  0.88411816  1
