# generated using pymatgen
data_V79Zn79O256
_symmetry_space_group_name_H-M   'P 1'
_cell_length_a   16.96468733
_cell_length_b   16.91755172
_cell_length_c   16.91571847
_cell_angle_alpha   90.20372765
_cell_angle_beta   89.78898173
_cell_angle_gamma   90.13262838
_symmetry_Int_Tables_number   1
_chemical_formula_structural   V79Zn79O256
_chemical_formula_sum   'V79 Zn79 O256'
_cell_volume   4854.75122433
_cell_formula_units_Z   1
loop_
 _symmetry_equiv_pos_site_id
 _symmetry_equiv_pos_as_xyz
  1  'x, y, z'
loop_
 _atom_site_type_symbol
 _atom_site_label
 _atom_site_symmetry_multiplicity
 _atom_site_fract_x
 _atom_site_fract_y
 _atom_site_fract_z
 _atom_site_occupancy
  V  V0  1  0.37549258  0.62571806  0.23590667  1
  V  V1  1  0.13120753  0.37897577  0.75148187  1
  V  V2  1  0.89144378  0.38594314  0.48685019  1
  V  V3  1  0.50307470  0.00735210  0.51455136  1
  V  V4  1  0.73713319  0.87046089  0.11772133  1
  V  V5  1  0.49599001  0.36766909  0.87251033  1
  V  V6  1  0.63539916  0.75817697  0.37424499  1
  V  V7  1  0.50475691  0.50780218  0.50285795  1
  V  V8  1  0.13262526  0.12605850  0.49107584  1
  V  V9  1  -0.00879699  0.61324495  0.13889690  1
  V  V10  1  0.11423307  0.62184562  0.50374650  1
  V  V11  1  0.37728505  0.49859503  0.37581715  1
  V  V12  1  0.37369323  0.50018436  0.87008003  1
  V  V13  1  0.51036464  0.75262052  0.24083833  1
  V  V14  1  0.25476556  0.47709295  0.25076393  1
  V  V15  1  0.75162823  0.62207161  0.85516289  1
  V  V16  1  0.24726555  0.00582287  0.75431115  1
  V  V17  1  0.87706293  0.25172557  0.62232145  1
  V  V18  1  0.87196259  0.49765388  0.85625209  1
  V  V19  1  0.37529385  0.63139097  0.75046134  1
  V  V20  1  0.12559549  -0.03138286  0.13357122  1
  V  V21  1  0.24533840  0.74707367  -0.00048540  1
  V  V22  1  0.63216602  0.75023175  0.87606859  1
  V  V23  1  0.11837860  0.86481748  0.75795023  1
  V  V24  1  0.75917883  0.62312106  0.37008261  1
  V  V25  1  0.62483292  0.48786010  0.13466280  1
  V  V26  1  0.75173161  0.25073179  0.49902394  1
  V  V27  1  0.36858278  0.36680569  0.01553594  1
  V  V28  1  0.49927784  0.87253702  0.87505019  1
  V  V29  1  0.00500204  0.24905963  0.75515118  1
  V  V30  1  0.74794333  0.12324631  0.87363839  1
  V  V31  1  0.89029259  0.74274438  0.63628221  1
  V  V32  1  0.49459905  0.63737812  0.62453101  1
  V  V33  1  0.89275532  0.76684651  0.14212731  1
  V  V34  1  0.00273875  0.12493957  0.62374780  1
  V  V35  1  0.10312385  0.36776363  0.25113155  1
  V  V36  1  0.87163634  0.00661112  0.37415581  1
  V  V37  1  0.36609736  0.00629083  0.87770603  1
  V  V38  1  0.24332915  0.62212158  0.87369283  1
  V  V39  1  0.50071966  0.26663303  0.25028290  1
  V  V40  1  0.25325061  0.87167681  0.62802533  1
  V  V41  1  0.11699637  0.75783396  0.36793104  1
  V  V42  1  0.25266491  0.38486054  0.62427326  1
  V  V43  1  0.36916441  0.01440570  0.36701729  1
  V  V44  1  0.74897315  0.00049147  0.74172163  1
  V  V45  1  0.62218011  0.12337777  0.51371133  1
  V  V46  1  0.37029212  0.86754632  0.00103845  1
  V  V47  1  0.37932969  0.24747846  0.62416036  1
  V  V48  1  0.49843555  0.50710453  0.00486667  1
  V  V49  1  0.52010165  0.38408748  0.37638532  1
  V  V50  1  0.63034912  0.63690151  0.49771344  1
  V  V51  1  0.63023184  0.63038746  0.01098538  1
  V  V52  1  0.10506577  0.24945317  0.36792422  1
  V  V53  1  0.13988998  0.23495768  0.88130876  1
  V  V54  1  0.31916392  0.80638444  0.17451512  1
  V  V55  1  0.37843819  0.12594143  0.74595796  1
  V  V56  1  0.49247193  0.13339963  0.13562108  1
  V  V57  1  0.87466380  0.86702552  0.49440036  1
  V  V58  1  0.25355820  0.25224103  0.48481603  1
  V  V59  1  0.00621621  0.13926849  0.13089477  1
  V  V60  1  0.75224325  0.86783236  0.62196255  1
  V  V61  1  0.62576562  0.00540210  0.13450557  1
  V  V62  1  0.37842613  0.87676739  0.50623872  1
  V  V63  1  0.12679994  -0.00031711  0.62381967  1
  V  V64  1  0.12921698  0.48976636  0.12063908  1
  V  V65  1  0.67954699  0.29854519  0.92678687  1
  V  V66  1  0.25747313  0.74752858  0.50658880  1
  V  V67  1  0.62983751  0.37542318  0.73754593  1
  V  V68  1  0.87960842  -0.00580211  0.88010855  1
  V  V69  1  0.49683543  0.00374331  -0.00034403  1
  V  V70  1  0.11197645  0.50708639  0.62987086  1
  V  V71  1  0.62386356  0.12565836  -0.00903730  1
  V  V72  1  0.37565309  0.37803336  0.49991671  1
  V  V73  1  0.25228932  0.62421468  0.37494528  1
  V  V74  1  0.76071731  0.48988868  0.25423614  1
  V  V75  1  0.50681127  0.88062466  0.37352600  1
  V  V76  1  0.84565219  0.24917599  0.12534894  1
  V  V77  1  0.00147571  -0.00657591  0.49470641  1
  V  V78  1  0.62418943  0.88013483  0.74341765  1
  Zn  Zn79  1  0.86580100  0.85459250  -0.00824196  1
  Zn  Zn80  1  0.50602181  0.24323908  0.74719071  1
  Zn  Zn81  1  0.74711893  0.12766408  0.36735747  1
  Zn  Zn82  1  -0.01618901  0.49675519  0.00109558  1
  Zn  Zn83  1  0.87715323  0.12283401  0.75108954  1
  Zn  Zn84  1  0.87061878  0.36905254  -0.00386720  1
  Zn  Zn85  1  0.63090069  0.24983676  0.37192271  1
  Zn  Zn86  1  0.76151195  0.00371052  0.24388035  1
  Zn  Zn87  1  0.11865475  0.62845892  0.00098784  1
  Zn  Zn88  1  0.00129291  0.84680153  0.87566013  1
  Zn  Zn89  1  0.00470162  -0.00923645  0.00853535  1
  Zn  Zn90  1  0.63687136  0.51888664  0.64288320  1
  Zn  Zn91  1  0.00232049  0.37565615  0.87738371  1
  Zn  Zn92  1  0.76262287  0.39121736  0.62728382  1
  Zn  Zn93  1  0.49479629  0.75572941  0.74496095  1
  Zn  Zn94  1  0.19101797  0.09410407  0.21154425  1
  Zn  Zn95  1  0.19238081  0.19182559  0.68367747  1
  Zn  Zn96  1  0.17978581  0.67704205  0.18983061  1
  Zn  Zn97  1  0.19003491  0.68527661  0.69044927  1
  Zn  Zn98  1  0.68441965  0.18836891  0.19410690  1
  Zn  Zn99  1  0.68864884  0.19383520  0.69014255  1
  Zn  Zn100  1  0.70206875  0.68699788  0.19152034  1
  Zn  Zn101  1  0.68555113  0.69738869  0.68439785  1
  Zn  Zn102  1  0.28832910  0.25980148  0.26789636  1
  Zn  Zn103  1  0.31238291  0.31238171  0.81347159  1
  Zn  Zn104  1  0.30852296  0.82287279  0.33710721  1
  Zn  Zn105  1  0.30619113  0.81094016  0.81694435  1
  Zn  Zn106  1  0.81391745  0.31628002  0.31196560  1
  Zn  Zn107  1  0.81692826  0.31470819  0.80198019  1
  Zn  Zn108  1  0.82126447  0.82082116  0.29387543  1
  Zn  Zn109  1  0.81138780  0.81039837  0.80787526  1
  Zn  Zn110  1  0.15694138  0.44892136  0.42612025  1
  Zn  Zn111  1  0.19340396  0.42757955  0.93552730  1
  Zn  Zn112  1  0.18999515  0.93970941  0.43216631  1
  Zn  Zn113  1  0.18371563  0.93541545  0.94311334  1
  Zn  Zn114  1  0.70771786  0.45336363  0.46349836  1
  Zn  Zn115  1  0.68669154  0.46145802  0.93480506  1
  Zn  Zn116  1  0.68851788  0.94243161  0.44331884  1
  Zn  Zn117  1  0.68792611  0.94215033  0.93593139  1
  Zn  Zn118  1  0.31238226  0.05321410  0.08134325  1
  Zn  Zn119  1  0.31394858  0.06233718  0.56034920  1
  Zn  Zn120  1  0.30696220  0.55329822  0.05933687  1
  Zn  Zn121  1  0.31410345  0.56366808  0.56569433  1
  Zn  Zn122  1  0.81376623  0.07125140  0.06100883  1
  Zn  Zn123  1  0.81284711  0.06298367  0.55901467  1
  Zn  Zn124  1  0.80541634  0.55087797  0.05888340  1
  Zn  Zn125  1  0.81710114  0.56522695  0.56183723  1
  Zn  Zn126  1  0.44236463  0.44237544  0.18914085  1
  Zn  Zn127  1  0.44261611  0.44121366  0.68789951  1
  Zn  Zn128  1  0.44562495  0.94316346  0.19200486  1
  Zn  Zn129  1  0.43512558  0.94026475  0.69068703  1
  Zn  Zn130  1  0.93065919  0.42433861  0.17942044  1
  Zn  Zn131  1  0.94308559  0.43555085  0.68461164  1
  Zn  Zn132  1  0.94257529  0.92799832  0.19404613  1
  Zn  Zn133  1  0.93698178  0.93315430  0.68785809  1
  Zn  Zn134  1  0.04812363  0.06028641  0.30185191  1
  Zn  Zn135  1  0.06397781  0.06042855  0.81355600  1
  Zn  Zn136  1  0.05140130  0.55116137  0.31353959  1
  Zn  Zn137  1  0.05512210  0.57026851  0.81359470  1
  Zn  Zn138  1  0.56219718  0.07100100  0.32176415  1
  Zn  Zn139  1  0.56023223  0.06043811  0.80941427  1
  Zn  Zn140  1  0.56319569  0.57414792  0.31151085  1
  Zn  Zn141  1  0.55875563  0.56253591  0.81337524  1
  Zn  Zn142  1  0.44422970  0.19327388  0.43512075  1
  Zn  Zn143  1  0.43021864  0.18853365  0.93868079  1
  Zn  Zn144  1  0.44102804  0.69194321  0.43145655  1
  Zn  Zn145  1  0.43744854  0.68616830  0.93937414  1
  Zn  Zn146  1  0.93686497  0.18560280  0.43894408  1
  Zn  Zn147  1  0.93552823  0.17898642  0.95657445  1
  Zn  Zn148  1  0.93843385  0.68704528  0.43923582  1
  Zn  Zn149  1  0.92377744  0.67074534  0.96024823  1
  Zn  Zn150  1  0.05734368  0.31239423  0.05712972  1
  Zn  Zn151  1  0.06773968  0.31387392  0.56181106  1
  Zn  Zn152  1  0.05578538  0.80965869  0.06249239  1
  Zn  Zn153  1  0.06549824  0.80991978  0.56275223  1
  Zn  Zn154  1  0.55236213  0.31702403  0.06278051  1
  Zn  Zn155  1  0.56243608  0.31263292  0.55925639  1
  Zn  Zn156  1  0.56650173  0.81471529  0.06013904  1
  Zn  Zn157  1  0.56330380  0.81635570  0.55967303  1
  O  O158  1  0.10614420  0.12003917  0.12878033  1
  O  O159  1  0.11975265  0.12204289  0.61569830  1
  O  O160  1  0.11746862  0.60486584  0.12653171  1
  O  O161  1  0.13023342  0.61646218  0.62079516  1
  O  O162  1  0.61199191  0.11781141  0.11033792  1
  O  O163  1  0.62694853  0.13323044  0.61384319  1
  O  O164  1  0.62939596  0.62706291  0.11217084  1
  O  O165  1  0.61653292  0.63290130  0.61539472  1
  O  O166  1  0.38863396  0.39374458  0.38186511  1
  O  O167  1  0.38028493  0.38427768  0.87617939  1
  O  O168  1  0.38698217  0.88640004  0.38894218  1
  O  O169  1  0.38143661  0.88232976  0.88139881  1
  O  O170  1  0.87884889  0.37089961  0.38835482  1
  O  O171  1  0.87452218  0.38749335  0.86818441  1
  O  O172  1  0.86921291  0.87959403  0.39156625  1
  O  O173  1  0.87443057  0.88361870  0.87231409  1
  O  O174  1  0.26903329  -0.00122413  0.37958925  1
  O  O175  1  0.25759662  -0.00851530  0.86775824  1
  O  O176  1  0.25765268  0.50515725  0.36972981  1
  O  O177  1  0.26305842  0.51152914  0.88304460  1
  O  O178  1  0.76490687  -0.00150688  0.37829214  1
  O  O179  1  0.75681807  0.00493134  0.86286669  1
  O  O180  1  0.74809530  0.51421685  0.37072969  1
  O  O181  1  0.75481389  0.51249220  0.86221303  1
  O  O182  1  0.23784564  0.50235342  0.13954983  1
  O  O183  1  0.25145156  0.48813508  0.62594211  1
  O  O184  1  0.22987878  1.00139165  0.13047832  1
  O  O185  1  0.24676815  0.99103491  0.63227228  1
  O  O186  1  0.73375001  0.50617685  0.14140281  1
  O  O187  1  0.73250428  0.49383314  0.58787805  1
  O  O188  1  0.73193512  1.00582620  0.11943566  1
  O  O189  1  0.75957818  0.99137099  0.63607723  1
  O  O190  1  0.00649873  0.37914833  0.25669636  1
  O  O191  1  0.01359831  0.36486253  0.74863133  1
  O  O192  1  -0.07451029  0.82186354  0.23274325  1
  O  O193  1  0.01455235  0.87692651  0.75275101  1
  O  O194  1  0.50478677  0.37349788  0.25929686  1
  O  O195  1  0.50783629  0.37446803  0.75849196  1
  O  O196  1  0.49459803  0.86374278  0.26245040  1
  O  O197  1  0.50549174  0.87854953  0.75813966  1
  O  O198  1  0.50169633  0.12970790  0.23743206  1
  O  O199  1  0.48394259  0.12382160  0.75324246  1
  O  O200  1  0.48610391  0.64627313  0.25997657  1
  O  O201  1  0.49503808  0.62987026  0.74202831  1
  O  O202  1  0.98528583  0.11961283  0.23126393  1
  O  O203  1  1.00303999  0.12994039  0.73718020  1
  O  O204  1  1.00082716  0.61210796  0.24043256  1
  O  O205  1  1.00435307  0.67925860  0.80386485  1
  O  O206  1  0.38407109  0.26726778  0.00344951  1
  O  O207  1  0.37120441  0.25649975  0.50481342  1
  O  O208  1  0.37024880  0.75946287  -0.00050854  1
  O  O209  1  0.36884843  0.76394145  0.49223630  1
  O  O210  1  0.86858366  0.25374142  0.00593747  1
  O  O211  1  0.87135001  0.25146017  0.50807650  1
  O  O212  1  0.87403550  0.74366569  0.03316022  1
  O  O213  1  0.88018753  0.76551353  0.50557678  1
  O  O214  1  0.13297921  0.24674203  0.48795863  1
  O  O215  1  0.11887566  0.25639428  0.97734594  1
  O  O216  1  0.13761294  0.73637772  0.50214900  1
  O  O217  1  0.14128409  0.74736164  1.01024614  1
  O  O218  1  0.63486012  0.24425435  0.50131046  1
  O  O219  1  0.61731670  0.24417175  0.99128713  1
  O  O220  1  0.62329318  0.74677299  0.48859985  1
  O  O221  1  0.61479401  0.73804389  0.98767832  1
  O  O222  1  0.50700977  0.24308921  0.13696729  1
  O  O223  1  0.48267438  0.25773510  0.62456107  1
  O  O224  1  0.50725613  0.75978999  0.14148167  1
  O  O225  1  0.49946573  0.74221148  0.62375835  1
  O  O226  1  0.99942057  0.24192229  0.12358317  1
  O  O227  1  0.99937780  0.24207268  0.63114599  1
  O  O228  1  0.99556131  0.72505644  0.12809319  1
  O  O229  1  0.99033853  0.75188193  0.62312513  1
  O  O230  1  0.00742361  0.25065780  0.37734738  1
  O  O231  1  0.00347279  0.24511655  0.85996188  1
  O  O232  1  0.01867625  0.74391385  0.38368465  1
  O  O233  1  -0.00139619  0.72102195  0.87317687  1
  O  O234  1  0.50636527  0.26808382  0.37086848  1
  O  O235  1  0.49158000  0.26334331  0.87122784  1
  O  O236  1  0.50992204  0.76356493  0.37052518  1
  O  O237  1  0.50625217  0.76284503  0.87547032  1
  O  O238  1  0.23834454  0.13507554  0.50713003  1
  O  O239  1  0.25236317  0.16147275  1.03364833  1
  O  O240  1  0.25631148  0.63310661  0.49411667  1
  O  O241  1  0.25155206  0.63019933  0.99181666  1
  O  O242  1  0.74093671  0.13261903  0.50133624  1
  O  O243  1  0.73468169  0.11941148  0.98546726  1
  O  O244  1  0.73680528  0.62566340  0.48394640  1
  O  O245  1  0.73166880  0.61847579  0.98937407  1
  O  O246  1  0.26970363  0.37855948  0.00100772  1
  O  O247  1  0.25733775  0.36887099  0.50578956  1
  O  O248  1  0.26218683  0.86316263  -0.00618040  1
  O  O249  1  0.25844734  0.86927126  0.50924623  1
  O  O250  1  0.73395077  0.36340178  -0.01954666  1
  O  O251  1  0.76511529  0.36093802  0.50516270  1
  O  O252  1  0.74770563  0.88297352  0.00939836  1
  O  O253  1  0.76406599  0.88439761  0.51134389  1
  O  O254  1  0.13694951  0.47881619  0.24887117  1
  O  O255  1  0.11768779  0.49648464  0.73981687  1
  O  O256  1  0.12775430  1.00505898  0.24267670  1
  O  O257  1  0.13284335  0.99220063  0.74476556  1
  O  O258  1  0.61227581  0.50480691  0.23538226  1
  O  O259  1  0.61748738  0.48342601  0.75230904  1
  O  O260  1  0.61239173  1.00639613  0.23373078  1
  O  O261  1  0.63380417  0.98899591  0.75535120  1
  O  O262  1  0.38436584  0.00023492  0.26740377  1
  O  O263  1  0.36647149  0.00565447  0.75804269  1
  O  O264  1  0.37262024  0.50724602  0.25819037  1
  O  O265  1  0.38303720  0.51201236  0.76184252  1
  O  O266  1  0.88214317  -0.01086179  0.27315050  1
  O  O267  1  0.86631723  0.00055595  0.75791124  1
  O  O268  1  0.85931021  0.48968605  0.24542492  1
  O  O269  1  0.87571628  0.49809342  0.75520695  1
  O  O270  1  0.13246606  0.35653276  0.36290144  1
  O  O271  1  0.12545206  0.37181436  0.86179934  1
  O  O272  1  0.13182169  0.85753156  0.38444510  1
  O  O273  1  0.12380006  0.87670078  0.86166574  1
  O  O274  1  0.61870313  0.38577206  0.39191227  1
  O  O275  1  0.62065344  0.36967696  0.87256615  1
  O  O276  1  0.61722825  0.87214868  0.38424102  1
  O  O277  1  0.61768095  0.87081265  0.86967195  1
  O  O278  1  0.39577614  0.12222439  0.11473478  1
  O  O279  1  0.36792263  0.13499596  0.63297885  1
  O  O280  1  0.37058518  0.61522223  0.13733067  1
  O  O281  1  0.38303381  0.62083752  0.63734761  1
  O  O282  1  0.87564502  0.14287728  0.11981881  1
  O  O283  1  0.88828177  0.13187701  0.62197283  1
  O  O284  1  0.89395290  0.59515139  0.12154360  1
  O  O285  1  0.87085092  0.64528666  0.61478696  1
  O  O286  1  0.23943207  0.21182288  0.08562308  1
  O  O287  1  0.25838084  0.26132915  0.61394056  1
  O  O288  1  0.25641660  0.74306867  0.12137363  1
  O  O289  1  0.24940723  0.75903539  0.61759009  1
  O  O290  1  0.74513584  0.24205869  0.11479823  1
  O  O291  1  0.76543120  0.24832356  0.61913214  1
  O  O292  1  0.70742561  0.77571995  0.11822761  1
  O  O293  1  0.76020356  0.76390648  0.62687539  1
  O  O294  1  0.25616315  0.24998270  0.38405777  1
  O  O295  1  0.23962529  0.24906872  0.87221831  1
  O  O296  1  0.24643581  0.74209047  0.38874560  1
  O  O297  1  0.25366198  0.73371340  0.88632509  1
  O  O298  1  0.75152989  0.24901972  0.38830219  1
  O  O299  1  0.74615495  0.24243202  0.86862540  1
  O  O300  1  0.74034949  0.74623706  0.35469516  1
  O  O301  1  0.74008584  0.74069021  0.87086700  1
  O  O302  1  -0.01001795  0.10580951  0.02158664  1
  O  O303  1  0.01190769  0.11873216  0.50755655  1
  O  O304  1  0.00634902  0.60957274  0.01387503  1
  O  O305  1  0.01672268  0.62557766  0.50178095  1
  O  O306  1  0.50568636  0.11931168  -0.00131100  1
  O  O307  1  0.51329299  0.12281067  0.50040978  1
  O  O308  1  0.51332245  0.61539911  -0.01066435  1
  O  O309  1  0.50308045  0.62614592  0.50523463  1
  O  O310  1  0.49652835  0.38893144  0.49557299  1
  O  O311  1  0.49279294  0.38649539  0.99067801  1
  O  O312  1  0.49538636  0.88480049  0.49610162  1
  O  O313  1  0.49201500  0.88349186  0.99370216  1
  O  O314  1  0.98997671  0.36882187  0.50476420  1
  O  O315  1  0.99623639  0.38313636  0.99129075  1
  O  O316  1  0.98980515  0.88563247  0.50856050  1
  O  O317  1  0.98952727  0.86924982  0.98948334  1
  O  O318  1  0.49482505  0.50330916  0.38096893  1
  O  O319  1  0.49359564  0.49200183  0.88360668  1
  O  O320  1  0.49661128  0.99439632  0.38654037  1
  O  O321  1  0.48991948  0.99198448  0.88181199  1
  O  O322  1  1.05286326  0.49171525  0.40128367  1
  O  O323  1  0.98078435  0.50499843  0.87162968  1
  O  O324  1  0.99095270  1.00458873  0.38810731  1
  O  O325  1  0.98208079  1.00422001  0.87220551  1
  O  O326  1  0.01272336  -0.01356875  0.13162114  1
  O  O327  1  0.00557319  0.00739348  0.61763319  1
  O  O328  1  0.01622965  0.49653226  0.12975226  1
  O  O329  1  0.01384332  0.50258932  0.62245891  1
  O  O330  1  0.50566600  0.01040236  0.11619137  1
  O  O331  1  0.49606408  -0.00130890  0.61431313  1
  O  O332  1  0.51022685  0.50230570  0.11412528  1
  O  O333  1  0.50383454  0.51416552  0.61483457  1
  O  O334  1  0.26221697  0.37722303  0.25337759  1
  O  O335  1  0.23929437  0.36903525  0.73861042  1
  O  O336  1  0.26541411  0.86085793  0.23765257  1
  O  O337  1  0.24565202  0.88334837  0.74494493  1
  O  O338  1  0.73691949  0.39377485  0.26784133  1
  O  O339  1  0.73548261  0.37241813  0.74328056  1
  O  O340  1  0.75039562  0.88809840  0.22607349  1
  O  O341  1  0.74178792  0.88193626  0.74331308  1
  O  O342  1  0.26444143  0.17246207  0.20302924  1
  O  O343  1  0.25669929  0.11164861  0.74353129  1
  O  O344  1  0.25810804  0.61854788  0.26210564  1
  O  O345  1  0.25782329  0.62906349  0.76603265  1
  O  O346  1  0.74003122  0.11308028  0.25528214  1
  O  O347  1  0.74935850  0.11777812  0.75633543  1
  O  O348  1  0.73720246  0.60878749  0.26602772  1
  O  O349  1  0.74486779  0.62855857  0.75574308  1
  O  O350  1  0.38328361  0.11360858  0.38228823  1
  O  O351  1  0.37457699  0.11239802  0.86976185  1
  O  O352  1  0.36898828  0.61814920  0.37058868  1
  O  O353  1  0.37116056  0.61780165  0.87063839  1
  O  O354  1  0.87161516  0.10981603  0.38488966  1
  O  O355  1  0.86226710  0.11508125  0.87399209  1
  O  O356  1  0.85735749  0.63659475  0.37859652  1
  O  O357  1  0.85662613  0.61739751  0.87760720  1
  O  O358  1  0.12018984  0.37866999  0.14071689  1
  O  O359  1  0.13181811  0.38782629  0.62885429  1
  O  O360  1  0.12181400  0.86860609  0.13944280  1
  O  O361  1  0.13560850  0.88021703  0.63136533  1
  O  O362  1  0.62193887  0.38929560  0.11986871  1
  O  O363  1  0.62086364  0.37922890  0.63415276  1
  O  O364  1  0.62345660  0.90018983  0.11351180  1
  O  O365  1  0.63393979  0.86776753  0.63525721  1
  O  O366  1  0.11959350  0.25856904  0.26169809  1
  O  O367  1  0.12196266  0.25685176  0.75362277  1
  O  O368  1  0.13263054  0.74122651  0.26968652  1
  O  O369  1  0.13320602  0.76654585  0.74626729  1
  O  O370  1  0.60861442  0.24620026  0.25749082  1
  O  O371  1  0.61960355  0.26561408  0.74761987  1
  O  O372  1  0.61334983  0.74423970  0.25817388  1
  O  O373  1  0.62009241  0.76308239  0.76012687  1
  O  O374  1  0.40238248  0.25348611  0.25794180  1
  O  O375  1  0.37171274  0.24075733  0.74172424  1
  O  O376  1  0.37669805  0.74812557  0.24361590  1
  O  O377  1  0.37712696  0.73780723  0.75955428  1
  O  O378  1  0.85908337  0.25921185  0.22749499  1
  O  O379  1  0.88636547  0.24550805  0.73956756  1
  O  O380  1  0.82434390  0.71671090  0.19397499  1
  O  O381  1  0.87703879  0.75447741  0.73641139  1
  O  O382  1  0.38556653  0.50132269  0.49399973  1
  O  O383  1  0.38342840  0.49573169  0.99220886  1
  O  O384  1  0.38340608  0.99419720  0.49597707  1
  O  O385  1  0.37742510  0.99251615  0.99635341  1
  O  O386  1  0.87644902  0.48472701  0.50354706  1
  O  O387  1  0.86330538  0.48972287  0.98110567  1
  O  O388  1  0.88388426  0.99240217  0.49526102  1
  O  O389  1  0.86634895  0.99798940  0.98239912  1
  O  O390  1  0.12143771  -0.01846130  0.02278694  1
  O  O391  1  0.12120330  0.00669698  0.50158866  1
  O  O392  1  0.13532932  0.48906715  0.01830810  1
  O  O393  1  0.14165506  0.51543833  0.52065427  1
  O  O394  1  0.61142969  0.00919062  -0.00129535  1
  O  O395  1  0.61951738  0.01422274  0.50307988  1
  O  O396  1  0.61823453  0.51164912  0.01040363  1
  O  O397  1  0.61010809  0.52000258  0.49072887  1
  O  O398  1  0.38194892  0.38238195  0.11469218  1
  O  O399  1  0.37058512  0.37218330  0.62082363  1
  O  O400  1  0.37822814  0.87518637  0.11855910  1
  O  O401  1  0.36581167  0.88068437  0.61805473  1
  O  O402  1  0.86812048  0.36024382  0.11325231  1
  O  O403  1  0.87872291  0.36308887  0.62139701  1
  O  O404  1  0.85310255  0.86927129  0.11390810  1
  O  O405  1  0.87068520  0.86796044  0.61770508  1
  O  O406  1  0.11909784  0.13698955  0.38147062  1
  O  O407  1  0.12695392  0.13483842  0.86978435  1
  O  O408  1  0.13988950  0.63104525  0.39189763  1
  O  O409  1  0.14168140  0.61127267  0.88060186  1
  O  O410  1  0.62816328  0.12988896  0.39311170  1
  O  O411  1  0.63201916  0.12045234  0.87831506  1
  O  O412  1  0.62831620  0.64043730  0.38145854  1
  O  O413  1  0.63387201  0.63124309  0.87507808  1
