# generated using pymatgen
data_V79Zn79O256
_symmetry_space_group_name_H-M   'P 1'
_cell_length_a   16.83350129
_cell_length_b   16.83575509
_cell_length_c   16.83804878
_cell_angle_alpha   89.95013186
_cell_angle_beta   90.00261125
_cell_angle_gamma   89.97316130
_symmetry_Int_Tables_number   1
_chemical_formula_structural   V79Zn79O256
_chemical_formula_sum   'V79 Zn79 O256'
_cell_volume   4771.97990978
_cell_formula_units_Z   1
loop_
 _symmetry_equiv_pos_site_id
 _symmetry_equiv_pos_as_xyz
  1  'x, y, z'
loop_
 _atom_site_type_symbol
 _atom_site_label
 _atom_site_symmetry_multiplicity
 _atom_site_fract_x
 _atom_site_fract_y
 _atom_site_fract_z
 _atom_site_occupancy
  V  V0  1  0.50533739  -0.00122952  0.50787717  1
  V  V1  1  0.76048939  0.88830899  0.62061852  1
  V  V2  1  0.50584054  -0.00241353  0.00087807  1
  V  V3  1  0.75117578  0.11928629  0.86888349  1
  V  V4  1  0.37866746  0.73239263  0.62810558  1
  V  V5  1  0.75637137  0.12648394  0.36970130  1
  V  V6  1  0.62822367  0.88999266  0.73730566  1
  V  V7  1  0.74100057  0.50255624  0.23983688  1
  V  V8  1  0.87661696  0.25041251  0.63278750  1
  V  V9  1  0.23946738  0.74728056  0.50316120  1
  V  V10  1  0.88462454  0.62612439  0.25161290  1
  V  V11  1  0.74875727  0.87797836  0.12392892  1
  V  V12  1  0.61871001  0.24916498  0.87148459  1
  V  V13  1  0.74996535  0.25001909  0.49770424  1
  V  V14  1  0.73885437  0.37868708  0.12648498  1
  V  V15  1  0.74783718  0.63212809  0.88163443  1
  V  V16  1  0.74629249  0.37889748  0.62712273  1
  V  V17  1  0.61817168  0.75328701  0.38611786  1
  V  V18  1  0.23483518  0.25144769  0.49809370  1
  V  V19  1  0.00695360  -0.01051056  0.50279504  1
  V  V20  1  0.24867288  0.12445116  0.88388485  1
  V  V21  1  0.23894250  0.12539294  0.38213401  1
  V  V22  1  0.37401926  0.12070847  0.25439719  1
  V  V23  1  0.76767816  0.75660036  0.50364098  1
  V  V24  1  0.37131342  0.50968817  0.86867532  1
  V  V25  1  0.87571930  0.11297360  0.74635845  1
  V  V26  1  0.87461366  -0.00559975  0.37792662  1
  V  V27  1  0.13988854  0.38909456  0.23658613  1
  V  V28  1  -0.00668048  0.37370008  0.87141876  1
  V  V29  1  0.00275092  0.51573139  0.49635684  1
  V  V30  1  0.74993281  0.00284073  0.24767551  1
  V  V31  1  0.87991507  0.38096694  0.49158013  1
  V  V32  1  0.74990035  0.75481743  0.00289225  1
  V  V33  1  0.87789402  0.24272310  0.13610144  1
  V  V34  1  0.00116743  0.87084708  0.88897546  1
  V  V35  1  0.50648623  0.73848774  0.75225911  1
  V  V36  1  0.49988830  0.75206498  0.24629667  1
  V  V37  1  0.37808310  -0.00457066  0.87479577  1
  V  V38  1  0.75617746  0.25757323  0.00095620  1
  V  V39  1  0.50453096  0.11649042  0.13000956  1
  V  V40  1  0.51094592  0.87076225  0.87272645  1
  V  V41  1  0.37805362  0.50226693  0.37665963  1
  V  V42  1  0.50751827  0.13063122  0.62991113  1
  V  V43  1  0.11959583  0.51745498  0.62254507  1
  V  V44  1  0.62779111  0.12358110  0.00434226  1
  V  V45  1  0.62109421  0.88022542  0.25056745  1
  V  V46  1  0.50848840  0.62255682  0.12564008  1
  V  V47  1  0.74962123  0.62270994  0.37853316  1
  V  V48  1  0.37683643  0.13718963  0.74997788  1
  V  V49  1  0.38161086  -0.00338855  0.37783243  1
  V  V50  1  0.11239437  -0.00771555  0.12902499  1
  V  V51  1  0.12045317  0.37486869  0.74521501  1
  V  V52  1  0.36130946  0.37478827  0.00059297  1
  V  V53  1  0.38590356  0.37091068  0.49390343  1
  V  V54  1  0.00527884  0.24236145  0.25737636  1
  V  V55  1  0.10263052  0.11917228  0.00593692  1
  V  V56  1  0.88078504  0.63191858  0.73684391  1
  V  V57  1  0.87235781  0.49733642  0.87057515  1
  V  V58  1  0.00890309  0.12961887  0.62071180  1
  V  V59  1  0.38072996  0.87213195  0.49855562  1
  V  V60  1  0.24723203  0.62268559  0.37771769  1
  V  V61  1  0.87896255  -0.00519123  0.88981673  1
  V  V62  1  0.36774735  0.24510957  0.12317745  1
  V  V63  1  0.12578340  0.75200384  0.35345725  1
  V  V64  1  0.49983667  0.26669520  0.25328203  1
  V  V65  1  0.00076003  0.75416654  0.73655621  1
  V  V66  1  0.72207693  0.52809779  0.72624523  1
  V  V67  1  0.25035789  0.87378503  0.62780269  1
  V  V68  1  0.24768769  -0.00166381  0.75098237  1
  V  V69  1  0.50978256  0.49005216  0.00623853  1
  V  V70  1  0.24862379  0.73645623  -0.01326954  1
  V  V71  1  0.88679689  0.75519536  0.13137532  1
  V  V72  1  0.51403788  0.51147155  0.50495548  1
  V  V73  1  0.09675096  0.61955083  0.01014190  1
  V  V74  1  0.61890066  0.36958689  0.74757611  1
  V  V75  1  0.62343796  0.26042613  0.36969654  1
  V  V76  1  0.37018300  0.62850665  0.24369443  1
  V  V77  1  0.00236638  0.87105307  0.35772064  1
  V  V78  1  0.11651116  0.24730480  0.86781991  1
  Zn  Zn79  1  0.54520402  0.61235207  0.63257855  1
  Zn  Zn80  1  0.24998325  0.51091153  0.75214975  1
  Zn  Zn81  1  0.24981504  0.86246401  0.12804095  1
  Zn  Zn82  1  0.23991481  0.24985947  0.00712837  1
  Zn  Zn83  1  0.23705688  -0.01311537  0.25250702  1
  Zn  Zn84  1  0.37754855  0.25664275  0.62839703  1
  Zn  Zn85  1  0.63058467  0.62126841  0.00630669  1
  Zn  Zn86  1  0.13194048  0.86280562  0.76224182  1
  Zn  Zn87  1  0.01616582  0.37404271  0.37240888  1
  Zn  Zn88  1  0.37486722  0.85891294  0.01038212  1
  Zn  Zn89  1  0.49531945  0.36967693  0.86647046  1
  Zn  Zn90  1  0.13251382  0.00378790  0.61919468  1
  Zn  Zn91  1  0.91735545  0.41390326  0.03817563  1
  Zn  Zn92  1  0.24926810  0.37745114  0.62495480  1
  Zn  Zn93  1  0.62945446  0.11860684  0.50350460  1
  Zn  Zn94  1  0.18176453  0.18021404  0.19107513  1
  Zn  Zn95  1  0.19275679  0.19002707  0.68758911  1
  Zn  Zn96  1  0.18729925  0.68063683  0.17314155  1
  Zn  Zn97  1  0.18847532  0.68497816  0.69797529  1
  Zn  Zn98  1  0.68620204  0.19134031  0.18834877  1
  Zn  Zn99  1  0.68987130  0.18659606  0.68683117  1
  Zn  Zn100  1  0.68858741  0.69141912  0.19111685  1
  Zn  Zn101  1  0.69545641  0.70561907  0.69343185  1
  Zn  Zn102  1  0.30680997  0.31247719  0.31492341  1
  Zn  Zn103  1  0.30176464  0.31931760  0.81688727  1
  Zn  Zn104  1  0.31318911  0.81175654  0.31183863  1
  Zn  Zn105  1  0.32018390  0.80129859  0.81498924  1
  Zn  Zn106  1  0.81268569  0.31834389  0.30911136  1
  Zn  Zn107  1  0.80393987  0.31065719  0.80806370  1
  Zn  Zn108  1  0.81202735  0.81259133  0.31356947  1
  Zn  Zn109  1  0.81402142  0.81565732  0.80769727  1
  Zn  Zn110  1  0.18531223  0.43489570  0.43204798  1
  Zn  Zn111  1  0.18169355  0.44402111  0.93559343  1
  Zn  Zn112  1  0.18890946  0.93432251  0.43484127  1
  Zn  Zn113  1  0.18476985  0.93302059  0.94585194  1
  Zn  Zn114  1  0.69152645  0.43828761  0.43526506  1
  Zn  Zn115  1  0.69319795  0.43971133  0.92832492  1
  Zn  Zn116  1  0.68650895  0.93392718  0.43664791  1
  Zn  Zn117  1  0.68958766  0.93600360  0.93409066  1
  Zn  Zn118  1  0.31997439  0.02977611  0.07693122  1
  Zn  Zn119  1  0.31800655  0.06569476  0.56371965  1
  Zn  Zn120  1  0.29828295  0.56187966  0.06250045  1
  Zn  Zn121  1  0.30754163  0.55685405  0.55959835  1
  Zn  Zn122  1  0.81490284  0.06422583  0.06390846  1
  Zn  Zn123  1  0.81894208  0.06192662  0.55725316  1
  Zn  Zn124  1  0.84281031  0.55798692  0.07117354  1
  Zn  Zn125  1  0.81323064  0.56608194  0.55601616  1
  Zn  Zn126  1  0.39769453  0.45004058  0.17420276  1
  Zn  Zn127  1  0.43875410  0.43894434  0.68142730  1
  Zn  Zn128  1  0.43353129  0.93229669  0.18934487  1
  Zn  Zn129  1  0.43677966  0.93744521  0.68709578  1
  Zn  Zn130  1  0.93828047  0.44083887  0.20130454  1
  Zn  Zn131  1  0.93511836  0.44409632  0.68673658  1
  Zn  Zn132  1  0.93302040  0.94422541  0.18316941  1
  Zn  Zn133  1  0.93932642  0.93715245  0.69020756  1
  Zn  Zn134  1  0.05623472  0.06314279  0.31043366  1
  Zn  Zn135  1  0.05917393  0.05968724  0.81126324  1
  Zn  Zn136  1  0.06810750  0.55699587  0.31093329  1
  Zn  Zn137  1  0.06043126  0.56533136  0.81460418  1
  Zn  Zn138  1  0.56620718  0.06678497  0.31971209  1
  Zn  Zn139  1  0.56445086  0.06339056  0.81068028  1
  Zn  Zn140  1  0.56202718  0.56486156  0.31686025  1
  Zn  Zn141  1  0.56079800  0.55805722  0.82440042  1
  Zn  Zn142  1  0.44031617  0.18488209  0.43715454  1
  Zn  Zn143  1  0.43506250  0.18428640  0.93973811  1
  Zn  Zn144  1  0.43939148  0.68367342  0.44224692  1
  Zn  Zn145  1  0.43842874  0.68430836  0.94049959  1
  Zn  Zn146  1  0.94105299  0.18550107  0.43824048  1
  Zn  Zn147  1  0.93342919  0.19194425  0.93358164  1
  Zn  Zn148  1  0.93899556  0.69218526  0.43142950  1
  Zn  Zn149  1  0.93066089  0.69363614  0.93523993  1
  Zn  Zn150  1  0.06332553  0.30915874  0.06324102  1
  Zn  Zn151  1  0.06039730  0.31515276  0.56358800  1
  Zn  Zn152  1  0.07305341  0.80456659  0.05791845  1
  Zn  Zn153  1  0.06144500  0.81235425  0.56398984  1
  Zn  Zn154  1  0.56067781  0.30718800  0.06609583  1
  Zn  Zn155  1  0.56259197  0.31261658  0.56047113  1
  Zn  Zn156  1  0.56801750  0.80971233  0.06443170  1
  Zn  Zn157  1  0.56221523  0.81070169  0.56984339  1
  O  O158  1  0.11693147  0.12855006  0.10833712  1
  O  O159  1  0.11241615  0.12536346  0.62944609  1
  O  O160  1  0.12119903  0.61495605  0.11069654  1
  O  O161  1  0.12162174  0.61623498  0.62472860  1
  O  O162  1  0.61765107  0.12983883  0.11502401  1
  O  O163  1  0.61291154  0.12710897  0.62519441  1
  O  O164  1  0.61333540  0.62419334  0.12913113  1
  O  O165  1  0.65818952  0.60007601  0.66410199  1
  O  O166  1  0.36910412  0.38673067  0.38517938  1
  O  O167  1  0.37966439  0.36715647  0.89039500  1
  O  O168  1  0.36987316  0.88294610  0.38869891  1
  O  O169  1  0.38998863  0.88522747  0.87250436  1
  O  O170  1  0.86794827  0.37795743  0.39167826  1
  O  O171  1  0.87747301  0.38540151  0.85569915  1
  O  O172  1  0.89137127  0.87872679  0.37226783  1
  O  O173  1  0.87664823  0.88974467  0.87193985  1
  O  O174  1  0.26056702  0.01031289  0.37869443  1
  O  O175  1  0.25881491  0.00346221  0.86937431  1
  O  O176  1  0.26028015  0.51418904  0.38562886  1
  O  O177  1  0.26835575  0.49272151  0.87678838  1
  O  O178  1  0.75597269  0.00525942  0.37231716  1
  O  O179  1  0.76165564  0.01041228  0.88030949  1
  O  O180  1  0.74876472  0.51847367  0.37419078  1
  O  O181  1  0.75310224  0.51312725  0.85461031  1
  O  O182  1  0.29456943  0.48108699  0.13303300  1
  O  O183  1  0.23095953  0.49682961  0.62056986  1
  O  O184  1  0.22574229  1.01586599  0.13436019  1
  O  O185  1  0.25486935  0.99350969  0.63243807  1
  O  O186  1  0.75062540  0.49822520  0.13311666  1
  O  O187  1  0.75592059  0.48925040  0.62482086  1
  O  O188  1  0.75743909  0.99332898  0.13675887  1
  O  O189  1  0.74956008  0.98891702  0.61176700  1
  O  O190  1  0.00565362  0.36871749  0.25390621  1
  O  O191  1  0.00844788  0.37908454  0.75657159  1
  O  O192  1  0.00186210  0.87911806  0.25995883  1
  O  O193  1  0.00165910  0.86492919  0.75340562  1
  O  O194  1  0.48577974  0.36285179  0.24277351  1
  O  O195  1  0.51408851  0.37347543  0.74558709  1
  O  O196  1  0.50699444  0.86621877  0.24466238  1
  O  O197  1  0.51106828  0.87397117  0.75272223  1
  O  O198  1  0.49306608  0.12334207  0.24507593  1
  O  O199  1  0.49222571  0.12037330  0.73927490  1
  O  O200  1  0.49576779  0.63198531  0.24523593  1
  O  O201  1  0.51213478  0.63558521  0.75241340  1
  O  O202  1  0.99542804  0.14143949  0.25545046  1
  O  O203  1  0.99086473  0.11625504  0.73186232  1
  O  O204  1  0.98353581  0.62114301  0.26400064  1
  O  O205  1  0.98830087  0.63635155  0.75452441  1
  O  O206  1  0.37225458  0.25487179  0.00572146  1
  O  O207  1  0.37689537  0.26450153  0.49523301  1
  O  O208  1  0.36265785  0.74761260  -0.00650457  1
  O  O209  1  0.37115470  0.75620911  0.50734052  1
  O  O210  1  0.86277089  0.24753287  0.00613757  1
  O  O211  1  0.86680804  0.25890910  0.50711995  1
  O  O212  1  0.86112678  0.74561227  0.01914152  1
  O  O213  1  0.86665963  0.75525152  0.49701693  1
  O  O214  1  0.13559225  0.25352369  0.49935221  1
  O  O215  1  0.12335838  0.23650148  0.98905783  1
  O  O216  1  0.13694637  0.75356993  0.49947136  1
  O  O217  1  0.13045287  0.72803965  0.99516786  1
  O  O218  1  0.63797441  0.25130069  0.49261312  1
  O  O219  1  0.63220665  0.24005124  0.99320480  1
  O  O220  1  0.62473544  0.75563924  0.48857198  1
  O  O221  1  0.64274872  0.74184345  1.00614693  1
  O  O222  1  0.49307323  0.23676150  0.13591367  1
  O  O223  1  0.49673978  0.23571326  0.61923443  1
  O  O224  1  0.50298025  0.74131868  0.13586915  1
  O  O225  1  0.49887791  0.73670269  0.63373481  1
  O  O226  1  0.98285795  0.25573349  0.13243021  1
  O  O227  1  0.99099819  0.23654720  0.61656590  1
  O  O228  1  0.98513078  0.76343377  0.12460576  1
  O  O229  1  0.99414290  0.75617587  0.63610468  1
  O  O230  1  -0.01003343  0.25531340  0.36364595  1
  O  O231  1  0.00765198  0.25370844  0.86803090  1
  O  O232  1  0.01425353  0.76033301  0.37607416  1
  O  O233  1  -0.01380605  0.76772278  0.86560885  1
  O  O234  1  0.50591339  0.24684258  0.36175800  1
  O  O235  1  0.51460258  0.24706290  0.88131627  1
  O  O236  1  0.51286557  0.74163857  0.36847730  1
  O  O237  1  0.49480865  0.75779493  0.86177603  1
  O  O238  1  0.25627303  0.13537382  0.49220778  1
  O  O239  1  0.24997192  0.12076719  0.98659038  1
  O  O240  1  0.25628209  0.63713295  0.48918287  1
  O  O241  1  0.25298367  0.63210255  0.99294149  1
  O  O242  1  0.75133779  0.13570140  0.49318015  1
  O  O243  1  0.74277484  0.13106632  0.99286442  1
  O  O244  1  0.75574725  0.63909413  0.48765820  1
  O  O245  1  0.75581579  0.62654729  0.99000678  1
  O  O246  1  0.25875267  0.37102124  -0.00382938  1
  O  O247  1  0.25688926  0.36146945  0.49671019  1
  O  O248  1  0.25103498  0.86237496  0.00197383  1
  O  O249  1  0.25888681  0.86770352  0.50771398  1
  O  O250  1  0.74229199  0.36479511  0.00405620  1
  O  O251  1  0.75984887  0.37088934  0.50717338  1
  O  O252  1  0.74236838  0.87052233  0.01193769  1
  O  O253  1  0.74921667  0.86709244  0.50741191  1
  O  O254  1  0.12783566  0.49125460  0.24274134  1
  O  O255  1  0.11859066  0.49569333  0.73599104  1
  O  O256  1  0.12013616  1.00594370  0.23717929  1
  O  O257  1  0.14056465  0.99989310  0.74796008  1
  O  O258  1  0.64159093  0.50761191  0.25681918  1
  O  O259  1  0.62808818  0.48556556  0.76009793  1
  O  O260  1  0.63442939  0.99096815  0.26212574  1
  O  O261  1  0.62776565  0.98990712  0.74944568  1
  O  O262  1  0.37686758  0.00840287  0.26178266  1
  O  O263  1  0.36843524  0.00797500  0.75818000  1
  O  O264  1  0.38650141  0.51927354  0.26621733  1
  O  O265  1  0.38017089  0.48569442  0.76679042  1
  O  O266  1  0.86248470  -0.00412367  0.26426690  1
  O  O267  1  0.87145116  0.00971976  0.75418771  1
  O  O268  1  0.85933116  0.52021074  0.25342743  1
  O  O269  1  0.86363795  0.51524082  0.75012264  1
  O  O270  1  0.13014059  0.37528456  0.35450190  1
  O  O271  1  0.11595022  0.36821891  0.86683543  1
  O  O272  1  0.11718740  0.86399220  0.37441021  1
  O  O273  1  0.10615012  0.88651464  0.87403061  1
  O  O274  1  0.63386482  0.36036418  0.37430551  1
  O  O275  1  0.62620523  0.36432863  0.86587019  1
  O  O276  1  0.62799734  0.86208246  0.36504687  1
  O  O277  1  0.61768679  0.87829963  0.86257248  1
  O  O278  1  0.38477335  0.12408080  0.13473288  1
  O  O279  1  0.38312370  0.12974770  0.63496349  1
  O  O280  1  0.38449706  0.62549644  0.14164618  1
  O  O281  1  0.37205929  0.63289016  0.62036676  1
  O  O282  1  0.86570728  0.14254130  0.12665022  1
  O  O283  1  0.87986017  0.13064379  0.62916826  1
  O  O284  1  0.86833985  0.64465830  0.14199396  1
  O  O285  1  0.86890353  0.62508669  0.63784530  1
  O  O286  1  0.26420755  0.23333085  0.12460943  1
  O  O287  1  0.25552340  0.24874655  0.60877984  1
  O  O288  1  0.24433034  0.74888334  0.10335579  1
  O  O289  1  0.25773918  0.75536182  0.62119525  1
  O  O290  1  0.75343402  0.25564830  0.12002125  1
  O  O291  1  0.75727507  0.25558095  0.61620398  1
  O  O292  1  0.75309494  0.76165664  0.12326990  1
  O  O293  1  0.74629383  0.75963986  0.60724975  1
  O  O294  1  0.25552130  0.23619450  0.38716885  1
  O  O295  1  0.23640578  0.24014323  0.87785345  1
  O  O296  1  0.23909478  0.74762094  0.38183330  1
  O  O297  1  0.24444787  0.75668791  0.88385040  1
  O  O298  1  0.74777557  0.24522165  0.37780895  1
  O  O299  1  0.74482394  0.24093901  0.88286850  1
  O  O300  1  0.74131352  0.75077794  0.38704841  1
  O  O301  1  0.76340875  0.74002651  0.88526764  1
  O  O302  1  0.00380133  0.12373552  -0.00650704  1
  O  O303  1  -0.00501894  0.11331025  0.51303128  1
  O  O304  1  -0.00376298  0.63188662  0.00477392  1
  O  O305  1  -0.00794939  0.61499977  0.49742997  1
  O  O306  1  0.50867456  0.11936266  0.00749963  1
  O  O307  1  0.49983512  0.11775668  0.51243600  1
  O  O308  1  0.50337024  0.61373679  0.00775801  1
  O  O309  1  0.50848137  0.61699231  0.50910476  1
  O  O310  1  0.49001070  0.38329771  0.50070766  1
  O  O311  1  0.49769248  0.38235831  1.00172128  1
  O  O312  1  0.48855354  0.88224685  0.51235162  1
  O  O313  1  0.50477487  0.88071859  0.99249810  1
  O  O314  1  0.98671778  0.37214883  0.49602865  1
  O  O315  1  0.99869281  0.36333725  0.97812887  1
  O  O316  1  1.00105058  0.88599975  0.49695962  1
  O  O317  1  0.99847960  0.86810917  0.98796700  1
  O  O318  1  0.48961987  0.51169537  0.39078031  1
  O  O319  1  0.49177800  0.49250282  0.88917187  1
  O  O320  1  0.48833481  1.00749615  0.38772734  1
  O  O321  1  0.49758745  0.99354391  0.87963834  1
  O  O322  1  1.00734591  0.49632046  0.39342427  1
  O  O323  1  0.97942096  0.49223169  0.86652072  1
  O  O324  1  0.99746998  0.98942425  0.38177155  1
  O  O325  1  0.98539322  0.99083016  0.86895902  1
  O  O326  1  0.00985283  0.00189560  0.12564137  1
  O  O327  1  0.00131210  0.00442776  0.61425911  1
  O  O328  1  -0.05935401  0.50088079  0.10660016  1
  O  O329  1  0.00981379  0.49579232  0.61304465  1
  O  O330  1  0.49947782  0.00837422  0.11535268  1
  O  O331  1  0.49246626  0.01310048  0.61718435  1
  O  O332  1  0.49040450  0.50542829  0.11124381  1
  O  O333  1  0.50082298  0.50373366  0.61157887  1
  O  O334  1  0.24166308  0.36830403  0.24407055  1
  O  O335  1  0.23549298  0.38580853  0.74898115  1
  O  O336  1  0.25701670  0.87601569  0.24260296  1
  O  O337  1  0.25468700  0.88093194  0.74502028  1
  O  O338  1  0.75572724  0.39511412  0.24478274  1
  O  O339  1  0.74092857  0.38244336  0.73930081  1
  O  O340  1  0.74168396  0.88306781  0.24668997  1
  O  O341  1  0.73679098  0.86546589  0.73553417  1
  O  O342  1  0.26087418  0.12888477  0.26628560  1
  O  O343  1  0.25706375  0.11724365  0.75778227  1
  O  O344  1  0.26483854  0.63532132  0.25771901  1
  O  O345  1  0.25979325  0.62213983  0.75074676  1
  O  O346  1  0.74087426  0.11585773  0.25901980  1
  O  O347  1  0.75776135  0.12862507  0.76099704  1
  O  O348  1  0.75316831  0.62110159  0.25893778  1
  O  O349  1  0.76407560  0.63459566  0.76357907  1
  O  O350  1  0.37083935  0.11676272  0.37107143  1
  O  O351  1  0.36996044  0.11852956  0.86752478  1
  O  O352  1  0.36688582  0.62234912  0.37186311  1
  O  O353  1  0.38395606  0.60847390  0.87313732  1
  O  O354  1  0.86298464  0.11637246  0.37950648  1
  O  O355  1  0.87122700  0.11640868  0.86686869  1
  O  O356  1  0.85843687  0.64269239  0.36280152  1
  O  O357  1  0.86850089  0.61345180  0.86818348  1
  O  O358  1  0.12284294  0.36978876  0.13519152  1
  O  O359  1  0.12454153  0.37495018  0.63522634  1
  O  O360  1  0.12530219  0.88991008  0.11602963  1
  O  O361  1  0.14221145  0.87631253  0.62766256  1
  O  O362  1  0.63791658  0.36676198  0.12650434  1
  O  O363  1  0.63689796  0.36549505  0.63155268  1
  O  O364  1  0.63460296  0.87370298  0.13882543  1
  O  O365  1  0.62972998  0.88011834  0.63232916  1
  O  O366  1  0.10891085  0.25265528  0.24491832  1
  O  O367  1  0.13093247  0.25876498  0.75794731  1
  O  O368  1  0.12980247  0.74982572  0.25542714  1
  O  O369  1  0.10673315  0.74684751  0.74915412  1
  O  O370  1  0.60863752  0.24826990  0.25378683  1
  O  O371  1  0.63469145  0.25652013  0.76052794  1
  O  O372  1  0.61788421  0.75945450  0.25859105  1
  O  O373  1  0.61017702  0.76469802  0.74542941  1
  O  O374  1  0.38449132  0.24022736  0.24720114  1
  O  O375  1  0.36585229  0.24096694  0.75219537  1
  O  O376  1  0.38931768  0.73778325  0.26345161  1
  O  O377  1  0.39504702  0.75785607  0.73843410  1
  O  O378  1  0.87816915  0.25333577  0.24164633  1
  O  O379  1  0.86922820  0.23999987  0.73784832  1
  O  O380  1  0.87160437  0.74429597  0.24234766  1
  O  O381  1  0.88211539  0.73980103  0.75112491  1
  O  O382  1  0.38190540  0.49155740  0.49507928  1
  O  O383  1  0.38274427  0.48413221  0.99010991  1
  O  O384  1  0.38147968  0.99217961  0.49661095  1
  O  O385  1  0.39175581  1.01089167  0.98420517  1
  O  O386  1  0.88759022  0.48797236  0.50919220  1
  O  O387  1  0.85078122  0.49036550  0.97137843  1
  O  O388  1  0.88827397  1.00024142  0.48638028  1
  O  O389  1  0.87757725  1.00352520  0.98936393  1
  O  O390  1  0.12418835  0.01454468  0.00638966  1
  O  O391  1  0.11274439  -0.00174391  0.49891769  1
  O  O392  1  0.11269122  0.51137523  -0.00821387  1
  O  O393  1  0.11341457  0.49526064  0.51031986  1
  O  O394  1  0.61639693  0.01081843  -0.00836955  1
  O  O395  1  0.60997247  -0.00041127  0.49198064  1
  O  O396  1  0.61307411  0.49863818  -0.00541166  1
  O  O397  1  0.61252829  0.49374287  0.49549113  1
  O  O398  1  0.38456076  0.35528250  0.10813075  1
  O  O399  1  0.37022177  0.37600427  0.60908810  1
  O  O400  1  0.35912694  0.91602039  0.10855799  1
  O  O401  1  0.36661235  0.86832101  0.61860486  1
  O  O402  1  0.85568607  0.35968562  0.12227497  1
  O  O403  1  0.86820703  0.36693852  0.62082931  1
  O  O404  1  0.86123478  0.86595591  0.13571282  1
  O  O405  1  0.85930639  0.87738683  0.63289262  1
  O  O406  1  0.14057619  0.11729755  0.37435930  1
  O  O407  1  0.12792466  0.12747986  0.87977995  1
  O  O408  1  0.13494159  0.63935793  0.36743379  1
  O  O409  1  0.12577470  0.59867630  0.89919733  1
  O  O410  1  0.63718489  0.13679819  0.38103302  1
  O  O411  1  0.63253362  0.12941446  0.88034412  1
  O  O412  1  0.63982719  0.64265948  0.36900807  1
  O  O413  1  0.64439920  0.62405181  0.87617970  1
