# generated using pymatgen
data_V79Zn79O256
_symmetry_space_group_name_H-M   'P 1'
_cell_length_a   16.91846108
_cell_length_b   16.89400855
_cell_length_c   16.89675504
_cell_angle_alpha   90.05908017
_cell_angle_beta   90.21335698
_cell_angle_gamma   89.98748343
_symmetry_Int_Tables_number   1
_chemical_formula_structural   V79Zn79O256
_chemical_formula_sum   'V79 Zn79 O256'
_cell_volume   4829.40494210
_cell_formula_units_Z   1
loop_
 _symmetry_equiv_pos_site_id
 _symmetry_equiv_pos_as_xyz
  1  'x, y, z'
loop_
 _atom_site_type_symbol
 _atom_site_label
 _atom_site_symmetry_multiplicity
 _atom_site_fract_x
 _atom_site_fract_y
 _atom_site_fract_z
 _atom_site_occupancy
  V  V0  1  0.13611619  0.12785574  0.49715086  1
  V  V1  1  0.00304482  0.12196835  0.12461062  1
  V  V2  1  0.62726960  0.89140719  0.24975664  1
  V  V3  1  0.01916691  0.86995592  0.35287238  1
  V  V4  1  0.24575940  0.37922663  0.12646846  1
  V  V5  1  0.26633211  0.50085434  0.75089995  1
  V  V6  1  0.86772383  0.37038781  -0.00159733  1
  V  V7  1  0.13355322  0.24784701  0.38097980  1
  V  V8  1  0.37881256  0.75233000  0.12596047  1
  V  V9  1  0.88361815  0.74792087  0.61915403  1
  V  V10  1  0.50358744  0.25010539  0.25837515  1
  V  V11  1  0.00017823  -0.00871805  -0.00382596  1
  V  V12  1  0.26450982  0.61935325  0.87295666  1
  V  V13  1  0.36781747  0.24238870  0.62556779  1
  V  V14  1  0.74242529  0.86674026  0.62183906  1
  V  V15  1  0.63540922  0.24238233  0.88900000  1
  V  V16  1  0.11098328  0.50548599  0.61891216  1
  V  V17  1  0.74763874  0.49727530  0.74840813  1
  V  V18  1  0.12024100  0.38622209  0.75198484  1
  V  V19  1  0.49151290  0.37627889  0.87672968  1
  V  V20  1  0.12320400  0.25413418  0.87350918  1
  V  V21  1  0.86159523  0.25372265  0.62327007  1
  V  V22  1  0.36584693  0.37193853  0.50169223  1
  V  V23  1  0.37516262  0.24946642  0.12505304  1
  V  V24  1  0.88055091  0.74359431  0.13258942  1
  V  V25  1  0.50041825  0.62526971  0.13109551  1
  V  V26  1  0.49273332  0.49700478  -0.00215589  1
  V  V27  1  0.74761353  0.62196944  0.87473275  1
  V  V28  1  0.50895353  0.11248735  0.11805578  1
  V  V29  1  0.48753093  0.62921981  0.62825345  1
  V  V30  1  0.63213280  0.49611645  0.13074533  1
  V  V31  1  0.62582161  0.74866464  0.87551788  1
  V  V32  1  -0.00540389  0.12755760  0.61940571  1
  V  V33  1  0.48934396  -0.00422404  0.49977613  1
  V  V34  1  0.87421027  0.88095371  0.49471963  1
  V  V35  1  0.73648113  0.11978596  0.36962837  1
  V  V36  1  0.26571779  0.76144917  0.51626869  1
  V  V37  1  0.62707177  0.75099151  0.36704132  1
  V  V38  1  -0.00540667  0.24980369  0.25163531  1
  V  V39  1  0.62394095  0.37299330  0.74836730  1
  V  V40  1  0.37242403  0.50046051  0.37439133  1
  V  V41  1  0.74879095  0.62290356  0.36841655  1
  V  V42  1  0.62375290  0.62082830  0.00253811  1
  V  V43  1  0.37743384  0.63266627  0.25312121  1
  V  V44  1  0.75186383  0.75089040  0.00498346  1
  V  V45  1  -0.00169065  0.37990753  0.38403148  1
  V  V46  1  0.37545873  0.00760388  0.88137719  1
  V  V47  1  0.87473856  0.10640247  0.25871953  1
  V  V48  1  0.86992048  0.12886408  0.75864289  1
  V  V49  1  0.75044141  0.88195977  0.12960862  1
  V  V50  1  0.11476316  0.63288130  0.50109003  1
  V  V51  1  -0.00165515  0.25721383  0.75143489  1
  V  V52  1  0.86768372  0.38169447  0.50715707  1
  V  V53  1  0.36772264  0.11746799  0.26465554  1
  V  V54  1  0.38388477  0.87911559  0.00139688  1
  V  V55  1  0.49701423  0.50169631  0.50139156  1
  V  V56  1  0.62699882  0.49787617  0.62511079  1
  V  V57  1  0.29478060  -0.05789048  0.69605527  1
  V  V58  1  0.63205717  0.87673189  0.75244161  1
  V  V59  1  0.63191136  0.37544713  0.26035338  1
  V  V60  1  0.88499302  0.63041314  0.74594169  1
  V  V61  1  0.89076353  0.49800884  0.87437137  1
  V  V62  1  0.48992839  0.74675972  0.74891639  1
  V  V63  1  0.00654954  0.49265613  0.01449113  1
  V  V64  1  0.62979509  0.63415858  0.50166247  1
  V  V65  1  0.24667376  0.75055730  -0.00433295  1
  V  V66  1  0.86957640  0.49869978  0.36833660  1
  V  V67  1  0.24732314  0.63690359  0.37947484  1
  V  V68  1  0.87636480  -0.01569345  0.87612604  1
  V  V69  1  0.12681752  0.12382965  0.00178063  1
  V  V70  1  0.22936014  0.00053781  0.25401699  1
  V  V71  1  0.49487372  0.24136398  0.75096434  1
  V  V72  1  0.25067071  0.12370604  0.85994255  1
  V  V73  1  0.62295382  0.12146236  0.51600936  1
  V  V74  1  0.12553948  0.62049069  -0.00059789  1
  V  V75  1  0.74803152  0.00303217  0.74890644  1
  V  V76  1  0.48903096  0.87534893  0.37303348  1
  V  V77  1  0.12392927  0.37999739  0.24914153  1
  V  V78  1  0.12074938  -0.00608973  0.63193939  1
  Zn  Zn79  1  0.74421068  0.36290039  0.12099357  1
  Zn  Zn80  1  0.24532790  0.37446189  0.62234043  1
  Zn  Zn81  1  1.11323522  0.85523536  -0.23535529  1
  Zn  Zn82  1  -0.00637973  0.00243318  0.48991311  1
  Zn  Zn83  1  0.73145191  0.25656485  0.49550870  1
  Zn  Zn84  1  0.36825658  0.37691544  -0.00230307  1
  Zn  Zn85  1  0.25068499  0.25035113  -0.00037989  1
  Zn  Zn86  1  0.50166404  0.36917933  0.38104583  1
  Zn  Zn87  1  0.88515953  0.62564980  0.25360345  1
  Zn  Zn88  1  0.50416571  0.88385914  0.87926722  1
  Zn  Zn89  1  0.49447205  0.11401934  0.63265372  1
  Zn  Zn90  1  0.24403571  0.50480764  0.24639101  1
  Zn  Zn91  1  0.86660428  0.24596563  0.12179909  1
  Zn  Zn92  1  0.01710390  0.62782511  0.13817337  1
  Zn  Zn93  1  0.24751027  0.88592606  0.12492377  1
  Zn  Zn94  1  0.18726663  0.18903686  0.19125748  1
  Zn  Zn95  1  0.18279622  0.18874990  0.68316801  1
  Zn  Zn96  1  0.19698938  0.68256197  0.17988986  1
  Zn  Zn97  1  0.19452912  0.68704080  0.68410784  1
  Zn  Zn98  1  0.69012008  0.18551915  0.18597313  1
  Zn  Zn99  1  0.68403695  0.18796112  0.69254103  1
  Zn  Zn100  1  0.68808848  0.68817503  0.19101927  1
  Zn  Zn101  1  0.68677927  0.68738487  0.68757084  1
  Zn  Zn102  1  0.31403752  0.31192862  0.31120765  1
  Zn  Zn103  1  0.30855632  0.31074099  0.80887393  1
  Zn  Zn104  1  0.29962249  0.82089038  0.31326342  1
  Zn  Zn105  1  0.30721391  0.81316534  0.81964557  1
  Zn  Zn106  1  0.80970215  0.30423592  0.31988162  1
  Zn  Zn107  1  0.81269727  0.31549674  0.81611327  1
  Zn  Zn108  1  0.80814481  0.80878841  0.31372678  1
  Zn  Zn109  1  0.93837415  0.80887855  0.80993887  1
  Zn  Zn110  1  0.18466006  0.44165315  0.43499625  1
  Zn  Zn111  1  0.18777340  0.43814164  0.93556680  1
  Zn  Zn112  1  0.18518310  0.93631574  0.43641416  1
  Zn  Zn113  1  0.19400058  0.94105166  0.93621561  1
  Zn  Zn114  1  0.68837592  0.44116766  0.43953017  1
  Zn  Zn115  1  0.68152681  0.43419761  0.93628448  1
  Zn  Zn116  1  0.68652205  0.94402536  0.43713575  1
  Zn  Zn117  1  0.70171285  0.93325462  0.93380738  1
  Zn  Zn118  1  0.31272223  0.06524535  0.06942931  1
  Zn  Zn119  1  0.31067261  0.05956849  0.55454846  1
  Zn  Zn120  1  0.31161874  0.56215697  0.06404785  1
  Zn  Zn121  1  0.30391370  0.56396351  0.56349053  1
  Zn  Zn122  1  0.81952369  0.05937789  0.06723643  1
  Zn  Zn123  1  0.80463868  0.06109164  0.56511952  1
  Zn  Zn124  1  0.81470960  0.55883977  0.06401109  1
  Zn  Zn125  1  0.81204941  0.56383139  0.56018366  1
  Zn  Zn126  1  0.43775996  0.43705331  0.18844247  1
  Zn  Zn127  1  0.44107166  0.43120473  0.68311041  1
  Zn  Zn128  1  0.43711730  0.93841746  0.19335485  1
  Zn  Zn129  1  0.45416889  0.93698339  0.69156332  1
  Zn  Zn130  1  0.93402876  0.43405645  0.18799802  1
  Zn  Zn131  1  0.93649737  0.44190750  0.68733771  1
  Zn  Zn132  1  0.93962295  0.92916068  0.17816525  1
  Zn  Zn133  1  0.93573486  0.93927964  0.68218502  1
  Zn  Zn134  1  0.05651493  0.05541096  0.31821566  1
  Zn  Zn135  1  0.05910154  0.06375816  0.81286713  1
  Zn  Zn136  1  0.05919456  0.56459395  0.31993403  1
  Zn  Zn137  1  0.06865532  0.67535754  0.81536495  1
  Zn  Zn138  1  0.55527198  0.06217303  0.31340504  1
  Zn  Zn139  1  0.56476169  0.06428086  0.82034993  1
  Zn  Zn140  1  0.56276539  0.56116378  0.31401400  1
  Zn  Zn141  1  0.55629548  0.56178618  0.81281788  1
  Zn  Zn142  1  0.43698909  0.18514758  0.44266338  1
  Zn  Zn143  1  0.44326978  0.18826655  0.94072175  1
  Zn  Zn144  1  0.44076530  0.69350772  0.43877368  1
  Zn  Zn145  1  0.43915838  0.68849153  0.93981864  1
  Zn  Zn146  1  0.93269770  0.19407799  0.43645222  1
  Zn  Zn147  1  0.94051809  0.18771554  0.93729051  1
  Zn  Zn148  1  0.93336115  0.69562056  0.43297924  1
  Zn  Zn149  1  0.93223936  0.67589204  0.94990261  1
  Zn  Zn150  1  0.05927880  0.30984543  0.06410607  1
  Zn  Zn151  1  0.05976937  0.31335654  0.56425046  1
  Zn  Zn152  1  0.06530147  0.81122362  -0.05602593  1
  Zn  Zn153  1  0.06127200  0.81046076  0.55752390  1
  Zn  Zn154  1  0.56077999  0.30881000  0.06761735  1
  Zn  Zn155  1  0.55569406  0.30806486  0.56396419  1
  Zn  Zn156  1  0.56545905  0.81358673  0.06664761  1
  Zn  Zn157  1  0.55662724  0.81382690  0.56202507  1
  O  O158  1  0.11356374  0.13500654  0.11520075  1
  O  O159  1  0.11428856  0.12497084  0.61419109  1
  O  O160  1  0.13258015  0.62247453  0.10832091  1
  O  O161  1  0.12839189  0.61278393  0.61474807  1
  O  O162  1  0.60673626  0.12522020  0.14190910  1
  O  O163  1  0.61958596  0.12284290  0.61920499  1
  O  O164  1  0.61728768  0.61767266  0.12495461  1
  O  O165  1  0.61726149  0.61793451  0.61955442  1
  O  O166  1  0.37635122  0.38436880  0.38201755  1
  O  O167  1  0.38715920  0.36652007  0.87623128  1
  O  O168  1  0.39127753  0.86937046  0.36590774  1
  O  O169  1  0.37377063  0.88571320  0.88594260  1
  O  O170  1  0.87825519  0.37926244  0.38515137  1
  O  O171  1  0.87271680  0.38578850  0.88572505  1
  O  O172  1  0.85244176  0.87391919  0.39703679  1
  O  O173  1  0.87731310  0.88578398  0.87596440  1
  O  O174  1  0.23986880  -0.00182338  0.35637384  1
  O  O175  1  0.26190141  0.01159867  0.87663236  1
  O  O176  1  0.26254102  0.51046047  0.37663775  1
  O  O177  1  0.24914599  0.50747532  0.86464486  1
  O  O178  1  0.75481767  0.02110401  0.38500010  1
  O  O179  1  0.76665054  -0.00346732  0.86378650  1
  O  O180  1  0.75876231  0.50828553  0.38065050  1
  O  O181  1  0.74953402  0.50865458  0.86831541  1
  O  O182  1  0.25531909  0.48530586  0.12846732  1
  O  O183  1  0.24313627  0.50133750  0.64100514  1
  O  O184  1  0.25326836  1.00049284  0.13887388  1
  O  O185  1  0.23754116  1.00485521  0.62838834  1
  O  O186  1  0.73434036  0.49699953  0.12192135  1
  O  O187  1  0.73670336  0.50700559  0.63469359  1
  O  O188  1  0.75672609  0.98052628  0.12299286  1
  O  O189  1  0.75753976  0.98472611  0.64128718  1
  O  O190  1  0.00499607  0.36755017  0.25719518  1
  O  O191  1  0.00554998  0.36661446  0.74484456  1
  O  O192  1  0.00658251  0.88028021  0.25216955  1
  O  O193  1  0.00066616  0.87726073  0.74808010  1
  O  O194  1  0.50238573  0.36376729  0.25393329  1
  O  O195  1  0.50654963  0.36928916  0.75753132  1
  O  O196  1  0.51434087  0.88036673  0.26368470  1
  O  O197  1  0.51377112  0.86304608  0.75553745  1
  O  O198  1  0.48935872  0.13611981  0.24818105  1
  O  O199  1  0.50316856  0.13658693  0.74979578  1
  O  O200  1  0.49083075  0.62034661  0.24177618  1
  O  O201  1  0.50534374  0.63816537  0.74434907  1
  O  O202  1  0.99287155  0.12889214  0.24381940  1
  O  O203  1  0.99071344  0.13550227  0.73972354  1
  O  O204  1  1.00031461  0.62547493  0.24953319  1
  O  O205  1  0.98219110  0.61811665  0.75425926  1
  O  O206  1  0.37372723  0.25231692  0.01292757  1
  O  O207  1  0.38364437  0.26058989  0.51332126  1
  O  O208  1  0.37024788  0.75750384  0.00545760  1
  O  O209  1  0.36567927  0.75170447  0.49800842  1
  O  O210  1  0.88308201  0.26758286  -0.00440305  1
  O  O211  1  0.87338146  0.26099077  0.51094095  1
  O  O212  1  0.85723561  0.74060886  0.01035350  1
  O  O213  1  0.86938383  0.75713083  0.51422113  1
  O  O214  1  0.11791922  0.23834184  0.49674201  1
  O  O215  1  0.12044712  0.24301945  0.98812844  1
  O  O216  1  0.13612609  0.73540358  0.51079216  1
  O  O217  1  0.14115633  0.74186228  1.00337273  1
  O  O218  1  0.61653813  0.23295909  0.50314938  1
  O  O219  1  0.62523800  0.26039258  0.98799489  1
  O  O220  1  0.61831979  0.73871555  0.49519036  1
  O  O221  1  0.62837280  0.74113762  0.99454937  1
  O  O222  1  0.49108532  0.24629058  0.13772318  1
  O  O223  1  0.48786960  0.24772998  0.63581192  1
  O  O224  1  0.49125595  0.73531803  0.11794242  1
  O  O225  1  0.50404638  0.74551662  0.64044750  1
  O  O226  1  0.99469323  0.24114833  0.13471378  1
  O  O227  1  0.98991939  0.24520761  0.63373577  1
  O  O228  1  0.97820562  0.74601382  0.11637480  1
  O  O229  1  0.98238467  0.75123368  0.62360067  1
  O  O230  1  0.00513949  0.26011721  0.36886992  1
  O  O231  1  0.01098552  0.24232085  0.86043416  1
  O  O232  1  -0.01993876  0.77616096  0.37170894  1
  O  O233  1  -0.00356844  0.74142689  0.88335379  1
  O  O234  1  0.49429588  0.25009843  0.36207137  1
  O  O235  1  0.50701139  0.25719843  0.86818915  1
  O  O236  1  0.51257257  0.76641267  0.38339083  1
  O  O237  1  0.51214660  0.74605524  0.86738942  1
  O  O238  1  0.23471979  0.12679404  0.50097583  1
  O  O239  1  0.23761493  0.12753136  0.99618384  1
  O  O240  1  0.24645513  0.63600455  0.49482685  1
  O  O241  1  0.24871960  0.62677062  0.99190409  1
  O  O242  1  0.73273689  0.12483330  0.49911753  1
  O  O243  1  0.71301196  0.08993504  1.00765159  1
  O  O244  1  0.73522093  0.61758400  0.49267742  1
  O  O245  1  0.74303295  0.62597461  0.99261536  1
  O  O246  1  0.24867644  0.37207536  0.00955042  1
  O  O247  1  0.26200347  0.38259986  0.50100618  1
  O  O248  1  0.26023797  0.86753665  0.00615997  1
  O  O249  1  0.24333030  0.85931601  0.49863441  1
  O  O250  1  0.76420983  0.38376774  -0.00085533  1
  O  O251  1  0.76222837  0.37127144  0.49582283  1
  O  O252  1  0.73569134  0.86223434  0.01658240  1
  O  O253  1  0.75030622  0.88256124  0.51860878  1
  O  O254  1  0.12498372  0.48346054  0.26118260  1
  O  O255  1  0.12718598  0.49077295  0.73759756  1
  O  O256  1  0.13050110  1.01401621  0.24167712  1
  O  O257  1  0.11951758  1.00807069  0.73286226  1
  O  O258  1  0.61468458  0.48504121  0.24387544  1
  O  O259  1  0.62731303  0.49447405  0.74454795  1
  O  O260  1  0.62817174  0.98991674  0.25450607  1
  O  O261  1  0.63341899  0.98892025  0.76334279  1
  O  O262  1  0.37794700  0.01633042  0.25603278  1
  O  O263  1  0.36504196  -0.00956767  0.76024246  1
  O  O264  1  0.37508222  0.51050860  0.25986534  1
  O  O265  1  0.36479385  0.49296793  0.74681781  1
  O  O266  1  0.87953013  0.00906519  0.24376682  1
  O  O267  1  0.87192428  0.00871233  0.76003559  1
  O  O268  1  0.87423709  0.49691279  0.26485206  1
  O  O269  1  0.86541930  0.50587680  0.75411521  1
  O  O270  1  0.11627556  0.36879430  0.37321192  1
  O  O271  1  0.12867767  0.36402950  0.86533579  1
  O  O272  1  0.11774227  0.86389712  0.37504152  1
  O  O273  1  0.12631120  0.87701030  0.87691833  1
  O  O274  1  0.61948622  0.38299350  0.36501499  1
  O  O275  1  0.61429970  0.36889538  0.86459708  1
  O  O276  1  0.63111901  0.86909488  0.36450574  1
  O  O277  1  0.62672502  0.86599242  0.87251456  1
  O  O278  1  0.38307782  0.13525065  0.13544973  1
  O  O279  1  0.37442873  0.13897715  0.61700942  1
  O  O280  1  0.38124047  0.62963654  0.13316339  1
  O  O281  1  0.38925153  0.61857366  0.62135993  1
  O  O282  1  0.88348614  0.12720149  0.13550190  1
  O  O283  1  0.87783833  0.13385829  0.63241301  1
  O  O284  1  0.86889407  0.63350848  0.13025159  1
  O  O285  1  0.86567945  0.63426292  0.63504109  1
  O  O286  1  0.25805357  0.25813021  0.12666258  1
  O  O287  1  0.26349430  0.25426364  0.63247240  1
  O  O288  1  0.26724373  0.74848260  0.11335021  1
  O  O289  1  0.26076792  0.74628152  0.61610220  1
  O  O290  1  0.75382379  0.24954620  0.12298968  1
  O  O291  1  0.75907038  0.24919465  0.62556885  1
  O  O292  1  0.74892116  0.75233631  0.11807747  1
  O  O293  1  0.75567016  0.76200986  0.63209732  1
  O  O294  1  0.23257503  0.25486856  0.37085617  1
  O  O295  1  0.24050255  0.24274801  0.87588115  1
  O  O296  1  0.25234255  0.73999216  0.37992379  1
  O  O297  1  0.25671869  0.73389978  0.88492374  1
  O  O298  1  0.76444927  0.22595145  0.38749033  1
  O  O299  1  0.73388085  0.25576185  0.86910289  1
  O  O300  1  0.73811302  0.73719389  0.37764342  1
  O  O301  1  0.73812750  0.73613460  0.88576247  1
  O  O302  1  0.00660154  0.12402619  0.00705723  1
  O  O303  1  -0.00556497  0.12561085  0.51103346  1
  O  O304  1  0.00791421  0.61030559  0.00755535  1
  O  O305  1  0.01588097  0.63401080  0.49060309  1
  O  O306  1  0.50120037  0.12864393  0.01789341  1
  O  O307  1  0.50813148  0.11388108  0.49880582  1
  O  O308  1  0.50435602  0.61668769  0.00876066  1
  O  O309  1  0.50688984  0.61819676  0.50722136  1
  O  O310  1  0.49143214  0.38740633  0.50112992  1
  O  O311  1  0.49877516  0.38146849  0.99383324  1
  O  O312  1  0.50677645  0.88649506  0.48927980  1
  O  O313  1  0.48982188  0.86883235  0.99760190  1
  O  O314  1  0.98617574  0.36802042  0.49162464  1
  O  O315  1  0.99213037  0.38714047  1.00483261  1
  O  O316  1  0.98113918  0.87412370  0.49881543  1
  O  O317  1  1.00313214  0.89296415  1.00425490  1
  O  O318  1  0.48869937  0.50423564  0.38693182  1
  O  O319  1  0.50633450  0.48991259  0.88546847  1
  O  O320  1  0.50452342  0.98619124  0.38464871  1
  O  O321  1  0.48117593  1.00130701  0.86826289  1
  O  O322  1  0.98894590  0.48653518  0.37640200  1
  O  O323  1  0.98920711  0.50404145  0.88498823  1
  O  O324  1  1.00079882  0.97756043  0.37855624  1
  O  O325  1  0.98717338  1.00876050  0.88414493  1
  O  O326  1  -0.01096934  0.01092069  0.10688420  1
  O  O327  1  0.00632275  0.01306293  0.62168668  1
  O  O328  1  -0.00259965  0.50133675  0.11657328  1
  O  O329  1  0.01164686  0.50109952  0.62433442  1
  O  O330  1  0.49416903  0.01286547  0.12888618  1
  O  O331  1  0.49921875  -0.00156116  0.60936272  1
  O  O332  1  0.50657839  0.50739502  0.11961054  1
  O  O333  1  0.50737274  0.50808604  0.62023842  1
  O  O334  1  0.24073746  0.37570754  0.24502535  1
  O  O335  1  0.24076906  0.38815435  0.75145758  1
  O  O336  1  0.25032638  0.89148543  0.24254327  1
  O  O337  1  0.23905770  0.87598337  0.75080612  1
  O  O338  1  0.73361286  0.36626852  0.25487050  1
  O  O339  1  0.73843768  0.38827354  0.75569928  1
  O  O340  1  0.73785711  0.87053974  0.24104177  1
  O  O341  1  0.74059186  0.88213411  0.74218780  1
  O  O342  1  0.26068482  0.11769879  0.24606679  1
  O  O343  1  0.24502014  0.12895324  0.76036411  1
  O  O344  1  0.25660114  0.62373005  0.25920142  1
  O  O345  1  0.24990013  0.61251286  0.76284315  1
  O  O346  1  0.76425476  0.12736128  0.26054126  1
  O  O347  1  0.75826709  0.11495814  0.74142164  1
  O  O348  1  0.74918885  0.62267159  0.26527543  1
  O  O349  1  0.75037986  0.61505314  0.75829462  1
  O  O350  1  0.37208916  0.13449245  0.36338336  1
  O  O351  1  0.36725565  0.11577826  0.88257604  1
  O  O352  1  0.37109323  0.62176720  0.36997126  1
  O  O353  1  0.36427982  0.62078268  0.88193212  1
  O  O354  1  0.88502806  0.12008883  0.36046695  1
  O  O355  1  0.87595646  0.12991223  0.86076675  1
  O  O356  1  0.86584961  0.61635343  0.37950720  1
  O  O357  1  0.86438436  0.61717788  0.86511213  1
  O  O358  1  0.13270261  0.36385701  0.13777992  1
  O  O359  1  0.12594008  0.38473748  0.62962295  1
  O  O360  1  0.12398452  0.83427901  0.15157844  1
  O  O361  1  0.11519349  0.89412916  0.62081079  1
  O  O362  1  0.62321624  0.38098151  0.13763379  1
  O  O363  1  0.61423931  0.38649699  0.63513005  1
  O  O364  1  0.63064511  0.87027173  0.14141438  1
  O  O365  1  0.63464162  0.86657760  0.63532450  1
  O  O366  1  0.11329848  0.25447264  0.26026174  1
  O  O367  1  0.11744556  0.26027863  0.75222218  1
  O  O368  1  0.12315445  0.78047070  0.20376161  1
  O  O369  1  0.12171092  0.74261556  0.74473557  1
  O  O370  1  0.61046937  0.26220538  0.24809544  1
  O  O371  1  0.61516921  0.25954179  0.75159048  1
  O  O372  1  0.62202049  0.75217471  0.26286311  1
  O  O373  1  0.62351695  0.75633988  0.76090465  1
  O  O374  1  0.38218238  0.24455838  0.24430527  1
  O  O375  1  0.38288699  0.25648682  0.73746773  1
  O  O376  1  0.36815094  0.73973002  0.24163886  1
  O  O377  1  0.39268026  0.75684904  0.76075804  1
  O  O378  1  0.88796298  0.24715767  0.25215440  1
  O  O379  1  0.87892428  0.24996341  0.74402691  1
  O  O380  1  0.86637755  0.74605354  0.23724850  1
  O  O381  1  0.87271535  0.73488437  0.74410512  1
  O  O382  1  0.38053239  0.49597920  0.49582373  1
  O  O383  1  0.38892274  0.49732752  1.00723926  1
  O  O384  1  0.38939104  1.00621832  0.49410903  1
  O  O385  1  0.37045314  0.99283615  0.99089926  1
  O  O386  1  0.87211349  0.48664753  0.49685378  1
  O  O387  1  0.88580488  0.49504722  0.99447012  1
  O  O388  1  0.87457198  0.98479246  0.51450694  1
  O  O389  1  0.88253340  1.00826219  0.98387879  1
  O  O390  1  0.11009723  0.01366614  -0.00902032  1
  O  O391  1  0.12106429  0.01519065  0.50959032  1
  O  O392  1  0.11120369  0.50051000  -0.00327196  1
  O  O393  1  0.13052048  0.50737850  0.51333101  1
  O  O394  1  0.66264224  0.03356718  -0.00204240  1
  O  O395  1  0.61564042  0.01567442  0.49648133  1
  O  O396  1  0.61502142  0.50179716  0.00966446  1
  O  O397  1  0.61490670  0.50499343  0.50750920  1
  O  O398  1  0.36618298  0.36609297  0.12838859  1
  O  O399  1  0.37214876  0.36718055  0.61682622  1
  O  O400  1  0.38176754  0.86517004  0.12051235  1
  O  O401  1  0.35749740  0.89028286  0.63906433  1
  O  O402  1  0.87022866  0.37547507  0.11086969  1
  O  O403  1  0.87821704  0.37134441  0.61408115  1
  O  O404  1  0.85744584  0.85955207  0.12952301  1
  O  O405  1  0.86395769  0.86253889  0.62281865  1
  O  O406  1  0.11211882  0.13230447  0.39142578  1
  O  O407  1  0.13100222  0.13306555  0.87894580  1
  O  O408  1  0.13740990  0.61357853  0.39183963  1
  O  O409  1  0.13927353  0.62337444  0.89228686  1
  O  O410  1  0.63425640  0.12616507  0.37153034  1
  O  O411  1  0.62219112  0.14281852  0.87552943  1
  O  O412  1  0.62737334  0.62957644  0.38165258  1
  O  O413  1  0.62977116  0.62793291  0.87988992  1
