# generated using pymatgen
data_V79Zn79O256
_symmetry_space_group_name_H-M   'P 1'
_cell_length_a   16.93035817
_cell_length_b   16.92257217
_cell_length_c   16.92275542
_cell_angle_alpha   89.93617671
_cell_angle_beta   89.94249114
_cell_angle_gamma   90.03488229
_symmetry_Int_Tables_number   1
_chemical_formula_structural   V79Zn79O256
_chemical_formula_sum   'V79 Zn79 O256'
_cell_volume   4848.45120985
_cell_formula_units_Z   1
loop_
 _symmetry_equiv_pos_site_id
 _symmetry_equiv_pos_as_xyz
  1  'x, y, z'
loop_
 _atom_site_type_symbol
 _atom_site_label
 _atom_site_symmetry_multiplicity
 _atom_site_fract_x
 _atom_site_fract_y
 _atom_site_fract_z
 _atom_site_occupancy
  V  V0  1  0.76233989  0.00783199  0.74775378  1
  V  V1  1  0.87345448  0.87116170  0.49914835  1
  V  V2  1  0.75411380  0.38223583  0.63182616  1
  V  V3  1  0.88066902  0.74316998  0.63510447  1
  V  V4  1  0.49967520  0.37511565  0.88194952  1
  V  V5  1  0.00177889  0.50464903  0.49706236  1
  V  V6  1  0.12308448  0.12624019  0.49734056  1
  V  V7  1  0.62489042  0.12992188  0.49957641  1
  V  V8  1  0.13032248  0.49661817  0.62117304  1
  V  V9  1  0.74839029  0.25083701  0.00319881  1
  V  V10  1  0.87028194  0.37700594  0.00334847  1
  V  V11  1  0.48858144  0.86976550  0.37345311  1
  V  V12  1  0.36993746  0.50969805  0.36686728  1
  V  V13  1  0.63002045  0.38036660  0.75319050  1
  V  V14  1  0.27048652  0.48369712  0.73336412  1
  V  V15  1  0.37844006  0.49743797  0.88968533  1
  V  V16  1  0.62518672  0.50287704  0.62402047  1
  V  V17  1  0.26361989  0.11942366  0.36842034  1
  V  V18  1  0.36826249  0.87805079  0.51734417  1
  V  V19  1  0.13335486  0.37096867  0.74815293  1
  V  V20  1  0.63704053  0.62748306  0.00727009  1
  V  V21  1  -0.00414910  0.24107231  0.24602890  1
  V  V22  1  0.62460470  0.00704588  0.62728701  1
  V  V23  1  0.49904128  0.63483243  0.62481690  1
  V  V24  1  0.74998489  0.12493441  0.36791614  1
  V  V25  1  0.00268407  0.49767914  0.00514656  1
  V  V26  1  0.86774539  0.00131441  0.37124698  1
  V  V27  1  0.87568716  0.37543136  0.49919798  1
  V  V28  1  0.00133536  0.23835796  0.75179680  1
  V  V29  1  0.87536397  0.24350115  0.12332136  1
  V  V30  1  0.12063185  0.74342257  0.86330794  1
  V  V31  1  0.48801702  0.13602212  0.62668909  1
  V  V32  1  0.12708738  0.62681684  0.48948514  1
  V  V33  1  0.74938339  0.51209469  0.22734158  1
  V  V34  1  -0.00734260  0.63209774  0.13176853  1
  V  V35  1  0.11378934  0.12139612  0.01880007  1
  V  V36  1  0.49180478  0.49593793  0.50426828  1
  V  V37  1  0.73352825  0.73446348  0.49448789  1
  V  V38  1  0.88627407  0.85651354  -0.00484360  1
  V  V39  1  0.25182627  0.75749855  0.00582406  1
  V  V40  1  0.53247902  0.01376613  -0.00839787  1
  V  V41  1  0.50788335  0.12031299  0.13784743  1
  V  V42  1  0.00063039  0.37406115  0.87621281  1
  V  V43  1  0.61815777  0.87704828  0.75350073  1
  V  V44  1  0.37820341  0.63210937  0.75208918  1
  V  V45  1  0.10606208  -0.00751940  0.13536485  1
  V  V46  1  0.75296077  0.25240009  0.50142939  1
  V  V47  1  0.75289399  0.61986190  0.85162924  1
  V  V48  1  0.13821567  -0.00709317  0.62231585  1
  V  V49  1  0.25868990  0.26026580  0.50945498  1
  V  V50  1  -0.00098020  -0.00019786  0.49993796  1
  V  V51  1  0.88721132  0.00010317  0.87797949  1
  V  V52  1  0.38377538  0.90187340  -0.00568174  1
  V  V53  1  0.62459814  0.75178479  0.87789994  1
  V  V54  1  0.25164522  0.61842040  0.87898597  1
  V  V55  1  0.49468082  0.00307640  0.49455004  1
  V  V56  1  0.62643548  0.24521376  0.87831191  1
  V  V57  1  0.74691913  0.87736021  0.10329065  1
  V  V58  1  0.12383173  0.61825114  0.00404469  1
  V  V59  1  0.49297603  0.37463498  0.37520418  1
  V  V60  1  0.86629820  0.50943099  0.36781081  1
  V  V61  1  0.18630605  0.43573272  0.18338563  1
  V  V62  1  0.26067992  -0.00416176  0.24264339  1
  V  V63  1  0.75915778  0.12609914  0.87527147  1
  V  V64  1  0.12448507  0.25107780  0.36781811  1
  V  V65  1  0.00501002  0.86865789  0.36367457  1
  V  V66  1  0.25562177  0.74511504  0.50588181  1
  V  V67  1  0.64186728  0.88334804  0.27438726  1
  V  V68  1  0.74995339  0.87487719  0.62475191  1
  V  V69  1  0.00423535  0.86587742  0.85863527  1
  V  V70  1  0.00146579  0.37235536  0.36611531  1
  V  V71  1  0.36303204  0.12609963  0.77084475  1
  V  V72  1  0.50836724  0.50167914  0.01192290  1
  V  V73  1  0.38184648  0.24823044  0.14842356  1
  V  V74  1  0.63147208  0.38157532  0.23893771  1
  V  V75  1  0.87956256  0.24321115  0.63062902  1
  V  V76  1  0.26146738  0.25214692  0.01071556  1
  V  V77  1  0.62599695  0.26064017  0.37265050  1
  V  V78  1  0.13283018  0.24169275  0.88298082  1
  Zn  Zn79  1  0.37273140  0.75980540  0.12863015  1
  Zn  Zn80  1  -0.00104265  0.11806133  0.63373179  1
  Zn  Zn81  1  -0.00203545  0.62721791  0.63881965  1
  Zn  Zn82  1  0.87014055  0.11599898  0.23728175  1
  Zn  Zn83  1  0.49122273  0.76246862  0.75372567  1
  Zn  Zn84  1  0.50244473  0.63758344  0.12305437  1
  Zn  Zn85  1  0.26294197  -0.00969876  0.77831500  1
  Zn  Zn86  1  0.13030378  0.75039868  0.36189360  1
  Zn  Zn87  1  0.87876124  0.74772535  0.15542872  1
  Zn  Zn88  1  0.18162364  0.82124240  0.19151938  1
  Zn  Zn89  1  0.50096961  0.75692889  0.24350649  1
  Zn  Zn90  1  0.87259700  0.50406281  0.86172154  1
  Zn  Zn91  1  0.14019785  0.85549967  0.72789954  1
  Zn  Zn92  1  0.49399086  0.25485830  0.74798195  1
  Zn  Zn93  1  0.37610403  0.63656163  0.24920070  1
  Zn  Zn94  1  0.19151111  0.18770545  0.18771437  1
  Zn  Zn95  1  0.18824426  0.18178447  0.68754560  1
  Zn  Zn96  1  0.17337786  0.63717373  0.21256919  1
  Zn  Zn97  1  0.19457754  0.67409346  0.67993747  1
  Zn  Zn98  1  0.68573542  0.19256137  0.18651451  1
  Zn  Zn99  1  0.68869550  0.19308581  0.69150660  1
  Zn  Zn100  1  0.68869876  0.70638314  0.19267521  1
  Zn  Zn101  1  0.68367098  0.69235054  0.68316227  1
  Zn  Zn102  1  0.30635090  0.31437510  0.31233965  1
  Zn  Zn103  1  0.31795884  0.30523732  0.81913360  1
  Zn  Zn104  1  0.31346705  0.81449893  0.32158646  1
  Zn  Zn105  1  0.30903083  0.81603702  0.82142645  1
  Zn  Zn106  1  0.81046546  0.31786742  0.30793307  1
  Zn  Zn107  1  0.81609620  0.31186945  0.81335527  1
  Zn  Zn108  1  0.81113556  0.80200635  0.31760510  1
  Zn  Zn109  1  0.80750524  0.81033292  0.81532029  1
  Zn  Zn110  1  0.18937874  0.43629708  0.43103188  1
  Zn  Zn111  1  0.19154850  0.43436847  0.94504587  1
  Zn  Zn112  1  0.19209439  0.93481864  0.43265679  1
  Zn  Zn113  1  0.17814421  0.93755852  0.94440429  1
  Zn  Zn114  1  0.66008222  0.48255741  0.41353267  1
  Zn  Zn115  1  0.68922903  0.44272269  0.93729520  1
  Zn  Zn116  1  0.68478949  0.93945285  0.44189588  1
  Zn  Zn117  1  0.69622883  0.93666947  0.93186374  1
  Zn  Zn118  1  0.30550492  0.07473784  0.06711953  1
  Zn  Zn119  1  0.31086350  0.06948082  0.55705500  1
  Zn  Zn120  1  0.30360928  0.56474355  0.10142344  1
  Zn  Zn121  1  0.31790845  0.56542591  0.55805896  1
  Zn  Zn122  1  0.81058037  0.05575516  0.05713449  1
  Zn  Zn123  1  0.81222549  0.06426244  0.55757240  1
  Zn  Zn124  1  0.81919546  0.56725936  0.05271630  1
  Zn  Zn125  1  0.81320416  0.56283848  0.56232036  1
  Zn  Zn126  1  0.43768485  0.42771167  0.19002217  1
  Zn  Zn127  1  0.44398132  0.44562483  0.70040746  1
  Zn  Zn128  1  0.43753243  0.94083814  0.17459235  1
  Zn  Zn129  1  0.43339528  0.94692993  0.68996845  1
  Zn  Zn130  1  0.93340468  0.43705718  0.18507585  1
  Zn  Zn131  1  0.94972532  0.43069595  0.68448090  1
  Zn  Zn132  1  0.92408365  0.93485277  0.18398325  1
  Zn  Zn133  1  0.94404604  0.93083362  0.68702464  1
  Zn  Zn134  1  0.06111833  0.06078081  0.31232637  1
  Zn  Zn135  1  0.08827441  0.04509157  0.82538073  1
  Zn  Zn136  1  0.06082869  0.55404618  0.30906029  1
  Zn  Zn137  1  0.07033794  0.54987483  0.81325942  1
  Zn  Zn138  1  0.56733548  0.05961403  0.30802651  1
  Zn  Zn139  1  0.56308560  0.06668246  0.80910677  1
  Zn  Zn140  1  0.56309630  0.57350845  0.30248227  1
  Zn  Zn141  1  0.56296258  0.56530938  0.81477749  1
  Zn  Zn142  1  0.43756605  0.19354068  0.43758313  1
  Zn  Zn143  1  0.44216358  0.18032010  0.94410177  1
  Zn  Zn144  1  0.43911446  0.68835110  0.44046850  1
  Zn  Zn145  1  0.44078934  0.68954296  0.94119746  1
  Zn  Zn146  1  0.93693345  0.18667777  0.43677146  1
  Zn  Zn147  1  0.93870857  0.18517967  0.93822635  1
  Zn  Zn148  1  0.93191028  0.69174524  0.43193348  1
  Zn  Zn149  1  0.93909493  0.67991336  0.92665618  1
  Zn  Zn150  1  0.06176046  0.31333580  0.06667918  1
  Zn  Zn151  1  0.06614229  0.31236160  0.56133255  1
  Zn  Zn152  1  0.06122164  0.80942402  0.05353020  1
  Zn  Zn153  1  0.06164551  0.80874247  0.55597677  1
  Zn  Zn154  1  0.55672113  0.30479573  0.06352483  1
  Zn  Zn155  1  0.56534205  0.31831366  0.55984963  1
  Zn  Zn156  1  0.55821210  0.82335847  0.05822828  1
  Zn  Zn157  1  0.55815698  0.81768966  0.56305158  1
  O  O158  1  0.11774292  0.12320585  0.12323185  1
  O  O159  1  0.12044516  0.11658705  0.60984644  1
  O  O160  1  0.11055086  0.62331712  0.10728783  1
  O  O161  1  0.11364173  0.61534978  0.61473460  1
  O  O162  1  0.60974962  0.13324614  0.13110547  1
  O  O163  1  0.62346679  0.12052972  0.62222617  1
  O  O164  1  0.62897314  0.64244530  0.10787176  1
  O  O165  1  0.60868670  0.61435710  0.63765299  1
  O  O166  1  0.39066559  0.37626055  0.36920683  1
  O  O167  1  0.38955985  0.38343030  0.87167967  1
  O  O168  1  0.38582577  0.88040605  0.39436556  1
  O  O169  1  0.37584582  0.86705550  0.89821381  1
  O  O170  1  0.88205707  0.37784901  0.38456623  1
  O  O171  1  0.88627193  0.37693261  0.87880771  1
  O  O172  1  0.87957645  0.88284862  0.38657978  1
  O  O173  1  0.88339319  0.87733815  0.87497265  1
  O  O174  1  0.24490005  0.01377157  0.36606052  1
  O  O175  1  0.19244705  0.01026196  0.86294242  1
  O  O176  1  0.27124539  0.49449684  0.38046262  1
  O  O177  1  0.26050803  0.50272072  0.87494932  1
  O  O178  1  0.75570231  0.01359847  0.38732059  1
  O  O179  1  0.76187256  0.00729638  0.86489477  1
  O  O180  1  0.76770194  0.49314255  0.37828778  1
  O  O181  1  0.74998361  0.51315156  0.86894587  1
  O  O182  1  0.24182188  0.47256351  0.10459681  1
  O  O183  1  0.23293359  0.51880886  0.62316970  1
  O  O184  1  0.23768494  1.00974688  0.14090487  1
  O  O185  1  0.23782800  1.00604498  0.61936409  1
  O  O186  1  0.76111899  0.50058105  0.12932165  1
  O  O187  1  0.74378727  0.48913593  0.62109972  1
  O  O188  1  0.78197159  0.97181061  0.13058520  1
  O  O189  1  0.74504595  0.99728236  0.62889123  1
  O  O190  1  -0.01126603  0.36498999  0.26121828  1
  O  O191  1  0.01452443  0.36605472  0.75792443  1
  O  O192  1  -0.01104855  0.87768601  0.26581467  1
  O  O193  1  0.01395627  0.87008325  0.75421869  1
  O  O194  1  0.51874067  0.38565862  0.26908559  1
  O  O195  1  0.50981809  0.37275162  0.76194910  1
  O  O196  1  0.48915006  0.88486831  0.27022707  1
  O  O197  1  0.51403184  0.88200840  0.74407050  1
  O  O198  1  0.49574353  0.11317807  0.23850912  1
  O  O199  1  0.49326829  0.12649152  0.73663408  1
  O  O200  1  0.49867750  0.63647633  0.24053498  1
  O  O201  1  0.49303093  0.62485737  0.74294848  1
  O  O202  1  0.98750326  0.13783895  0.26119919  1
  O  O203  1  1.01024930  0.13706038  0.75286959  1
  O  O204  1  1.00190083  0.61451371  0.22962190  1
  O  O205  1  0.97790658  0.58311807  0.74930047  1
  O  O206  1  0.35991853  0.24534965  -0.00960291  1
  O  O207  1  0.35840419  0.24920891  0.49771496  1
  O  O208  1  0.35505309  0.74355908  -0.00297893  1
  O  O209  1  0.36392377  0.76025719  0.50099058  1
  O  O210  1  0.86928259  0.25675341  0.00335938  1
  O  O211  1  0.87570544  0.25920776  0.50845323  1
  O  O212  1  0.87576722  0.75828574  -0.01446098  1
  O  O213  1  0.86384926  0.75944632  0.50688172  1
  O  O214  1  0.12453741  0.24182077  0.48810943  1
  O  O215  1  0.12373373  0.24615964  0.99406534  1
  O  O216  1  0.12973214  0.73867716  0.49627549  1
  O  O217  1  0.13214095  0.73675210  0.98692800  1
  O  O218  1  0.63364584  0.24977156  0.49266098  1
  O  O219  1  0.63759133  0.26027161  0.98835570  1
  O  O220  1  0.63605435  0.75360592  0.51421609  1
  O  O221  1  0.62136051  0.74240085  0.98426957  1
  O  O222  1  0.49135986  0.23450605  0.12326724  1
  O  O223  1  0.50896682  0.23850459  0.62400399  1
  O  O224  1  0.49409567  0.75737632  0.12079420  1
  O  O225  1  0.50304789  0.73740337  0.62995062  1
  O  O226  1  0.98832339  0.25310756  0.13584528  1
  O  O227  1  0.99614980  0.24952488  0.63342643  1
  O  O228  1  1.00189378  0.73536842  0.11939522  1
  O  O229  1  0.98504415  0.75019868  0.62113147  1
  O  O230  1  0.00336554  0.25549777  0.36891953  1
  O  O231  1  0.00446719  0.25822958  0.86961978  1
  O  O232  1  0.00402978  0.76599519  0.38499549  1
  O  O233  1  0.01041655  0.74917370  0.86912046  1
  O  O234  1  0.51220432  0.26462797  0.38443530  1
  O  O235  1  0.51142476  0.25925938  0.88175387  1
  O  O236  1  0.49745790  0.76777415  0.37951422  1
  O  O237  1  0.51816849  0.74160878  0.86917108  1
  O  O238  1  0.24010896  0.13075951  0.48622573  1
  O  O239  1  0.22763472  0.14310746  1.00772733  1
  O  O240  1  0.24472128  0.63715070  0.49994345  1
  O  O241  1  0.23966866  0.62347457  0.99218835  1
  O  O242  1  0.74356247  0.13426333  0.49415795  1
  O  O243  1  0.75585314  0.13474230  0.98551424  1
  O  O244  1  0.74585112  0.63515979  0.50740064  1
  O  O245  1  0.73810460  0.62284408  0.99107590  1
  O  O246  1  0.24190695  0.35073612  -0.00154558  1
  O  O247  1  0.24084501  0.35864902  0.49612240  1
  O  O248  1  0.24745745  0.85928327  -0.00927292  1
  O  O249  1  0.26470077  0.87862195  0.50550260  1
  O  O250  1  0.76185803  0.36576781  -0.01322647  1
  O  O251  1  0.76528376  0.37025172  0.51284017  1
  O  O252  1  0.76924837  0.87441653  -0.00186072  1
  O  O253  1  0.75574809  0.87783323  0.51210100  1
  O  O254  1  0.13881154  0.51378243  0.23715988  1
  O  O255  1  0.14152927  0.48920603  0.74069445  1
  O  O256  1  0.12715092  1.00427412  0.23877368  1
  O  O257  1  0.11525521  1.00493238  0.72004987  1
  O  O258  1  0.63835879  0.49147730  0.24573897  1
  O  O259  1  0.61780443  0.48720769  0.74171569  1
  O  O260  1  0.61799953  0.97798351  0.24530738  1
  O  O261  1  0.63565081  0.99775560  0.74298520  1
  O  O262  1  0.35958921  -0.00076755  0.24030097  1
  O  O263  1  0.37189731  0.01954683  0.74660806  1
  O  O264  1  0.38889996  0.49692907  0.26664925  1
  O  O265  1  0.38076731  0.51555200  0.77522850  1
  O  O266  1  0.87748651  0.00162995  0.26762863  1
  O  O267  1  0.86670244  -0.00851209  0.75318199  1
  O  O268  1  0.86153830  0.49404443  0.25879547  1
  O  O269  1  0.91518021  0.52196731  0.74855795  1
  O  O270  1  0.11139579  0.36469630  0.37851135  1
  O  O271  1  0.11585413  0.36419503  0.87228885  1
  O  O272  1  0.10724861  0.88021653  0.37769587  1
  O  O273  1  0.11483057  0.85586300  0.87767455  1
  O  O274  1  0.62095507  0.37381857  0.37475864  1
  O  O275  1  0.62220661  0.37039606  0.86857064  1
  O  O276  1  0.61013057  0.88220780  0.37700238  1
  O  O277  1  0.63687826  0.86131556  0.86632008  1
  O  O278  1  0.38564382  0.13910684  0.11972811  1
  O  O279  1  0.38808848  0.12867297  0.62147534  1
  O  O280  1  0.38517540  0.63749142  0.12031413  1
  O  O281  1  0.38785891  0.61605627  0.63923495  1
  O  O282  1  0.86687262  0.13756103  0.12070796  1
  O  O283  1  0.87778853  0.13921672  0.61810297  1
  O  O284  1  0.88814041  0.63348121  0.11398658  1
  O  O285  1  0.87664244  0.63947643  0.62060079  1
  O  O286  1  0.26708050  0.24559690  0.12084279  1
  O  O287  1  0.23985821  0.24344161  0.60767207  1
  O  O288  1  0.24121976  0.75244193  0.10740046  1
  O  O289  1  0.23919883  0.75227199  0.60722725  1
  O  O290  1  0.75590564  0.24876977  0.11043440  1
  O  O291  1  0.75977280  0.25916449  0.62283279  1
  O  O292  1  0.76478043  0.77839322  0.14110625  1
  O  O293  1  0.75777069  0.76022553  0.61839590  1
  O  O294  1  0.23987193  0.23975838  0.37866123  1
  O  O295  1  0.23513801  0.24793493  0.88321090  1
  O  O296  1  0.24114772  0.76834627  0.39891230  1
  O  O297  1  0.24134688  0.73236222  0.88138795  1
  O  O298  1  0.74646506  0.24664018  0.38271662  1
  O  O299  1  0.74840172  0.24362237  0.87926347  1
  O  O300  1  0.74510828  0.75439859  0.39677103  1
  O  O301  1  0.73561498  0.73570439  0.86548136  1
  O  O302  1  0.01392166  0.13094679  0.00302850  1
  O  O303  1  0.00689851  0.11573522  0.49703406  1
  O  O304  1  0.00611295  0.61404374  -0.00358872  1
  O  O305  1  0.00461520  0.61288137  0.49692046  1
  O  O306  1  0.51036640  0.11716292  0.00670925  1
  O  O307  1  0.50444082  0.12324124  0.50914935  1
  O  O308  1  0.51418950  0.61480296  -0.00149789  1
  O  O309  1  0.49257835  0.61837607  0.51987840  1
  O  O310  1  0.50256707  0.38376615  0.49014582  1
  O  O311  1  0.51608756  0.39017999  0.99095471  1
  O  O312  1  0.49271224  0.88464359  0.49642847  1
  O  O313  1  0.49369133  0.90452870  1.00128801  1
  O  O314  1  0.99293991  0.38152796  0.49222538  1
  O  O315  1  0.99269105  0.37808418  0.99404811  1
  O  O316  1  0.98854091  0.88255685  0.49541894  1
  O  O317  1  0.99190196  0.86857837  0.97909172  1
  O  O318  1  0.49248546  0.48887713  0.38696858  1
  O  O319  1  0.49856856  0.49342755  0.88341132  1
  O  O320  1  0.50519400  1.00024015  0.39183801  1
  O  O321  1  0.51204351  1.01047288  0.89139724  1
  O  O322  1  0.99126423  0.48968808  0.37825765  1
  O  O323  1  1.00199358  0.48547646  0.88419910  1
  O  O324  1  0.99066780  0.99323953  0.38515498  1
  O  O325  1  0.99393149  0.98559410  0.86243263  1
  O  O326  1  0.00665253  0.00093261  0.13523916  1
  O  O327  1  -0.00145417  0.00075769  0.60987099  1
  O  O328  1  -0.01034079  0.50801122  0.11011028  1
  O  O329  1  0.01175003  0.49555995  0.60862095  1
  O  O330  1  0.49736469  0.01457345  0.10894355  1
  O  O331  1  0.50950326  0.01475660  0.61938521  1
  O  O332  1  0.49906389  0.49710755  0.11170075  1
  O  O333  1  0.50500268  0.50212971  0.62165051  1
  O  O334  1  0.24145321  0.37937412  0.24797108  1
  O  O335  1  0.23684399  0.37551111  0.77116453  1
  O  O336  1  0.24689568  0.89086034  0.25790953  1
  O  O337  1  0.24695116  0.88011928  0.75527162  1
  O  O338  1  0.73879251  0.38742259  0.25110844  1
  O  O339  1  0.74483615  0.37148272  0.74194236  1
  O  O340  1  0.74254673  0.88245291  0.27275654  1
  O  O341  1  0.74199003  0.88558893  0.73972658  1
  O  O342  1  0.24690144  0.11876348  0.26365143  1
  O  O343  1  0.26060434  0.12480558  0.75334433  1
  O  O344  1  0.27567126  0.59795114  0.21155050  1
  O  O345  1  0.26112293  0.60729308  0.75552298  1
  O  O346  1  0.75115565  0.13279227  0.26440398  1
  O  O347  1  0.75027668  0.11709408  0.75745908  1
  O  O348  1  0.73919482  0.61167559  0.23916185  1
  O  O349  1  0.74479899  0.62275783  0.75201274  1
  O  O350  1  0.36201828  0.12690633  0.37960652  1
  O  O351  1  0.37584485  0.12248769  0.86919713  1
  O  O352  1  0.38265601  0.61360965  0.37281666  1
  O  O353  1  0.36658708  0.61944646  0.87610138  1
  O  O354  1  0.86403273  0.11783135  0.38040343  1
  O  O355  1  0.87013557  0.11604452  0.87471239  1
  O  O356  1  0.87960377  0.60741958  0.37743026  1
  O  O357  1  0.85625313  0.62536081  0.87243514  1
  O  O358  1  0.11519369  0.37649427  0.14102669  1
  O  O359  1  0.12253792  0.38271259  0.63586690  1
  O  O360  1  0.11788405  0.88741837  0.11967612  1
  O  O361  1  0.12143718  0.88811424  0.61489667  1
  O  O362  1  0.61705156  0.36588411  0.14207771  1
  O  O363  1  0.63492599  0.37930421  0.63386551  1
  O  O364  1  0.64704239  0.88087755  0.10453376  1
  O  O365  1  0.63135687  0.88837189  0.63080168  1
  O  O366  1  0.11347049  0.24086984  0.26122683  1
  O  O367  1  0.12242691  0.25288926  0.76166335  1
  O  O368  1  0.13837611  0.73586508  0.25032558  1
  O  O369  1  0.13450724  0.73822164  0.75882508  1
  O  O370  1  0.63626532  0.26645472  0.26532926  1
  O  O371  1  0.62315821  0.26251925  0.75980071  1
  O  O372  1  0.61666237  0.78520522  0.23881209  1
  O  O373  1  0.62186040  0.76286125  0.75359050  1
  O  O374  1  0.37551745  0.24668784  0.24822346  1
  O  O375  1  0.37954259  0.23435273  0.75555285  1
  O  O376  1  0.37694521  0.75574140  0.24847131  1
  O  O377  1  0.37511146  0.73614823  0.76329512  1
  O  O378  1  0.87637227  0.25048839  0.23880635  1
  O  O379  1  0.88791208  0.25703612  0.74070103  1
  O  O380  1  0.88498131  0.74184222  0.26674718  1
  O  O381  1  0.86902859  0.75753319  0.73326366  1
  O  O382  1  0.38564792  0.50231971  0.49117701  1
  O  O383  1  0.39475454  0.50707049  0.99291694  1
  O  O384  1  0.38438606  0.99119177  0.51081209  1
  O  O385  1  0.35669365  0.99849038  0.99456793  1
  O  O386  1  0.88347011  0.49301973  0.49366670  1
  O  O387  1  0.88326134  0.49058647  0.99040253  1
  O  O388  1  0.87971372  0.99269870  0.49437741  1
  O  O389  1  0.87570526  0.98973466  0.98123551  1
  O  O390  1  0.12656833  0.01387888  0.02089152  1
  O  O391  1  0.11781977  0.00603850  0.50276647  1
  O  O392  1  0.11382712  0.50561744  -0.00877137  1
  O  O393  1  0.12066723  0.50425660  0.50106333  1
  O  O394  1  0.63258539  0.00502790  -0.00345174  1
  O  O395  1  0.61814081  0.00819868  0.51175559  1
  O  O396  1  0.61930798  0.51476684  -0.00178913  1
  O  O397  1  0.61200488  0.49327975  0.51994511  1
  O  O398  1  0.39192874  0.34874597  0.12496055  1
  O  O399  1  0.33249418  0.42965089  0.67229015  1
  O  O400  1  0.37325151  0.87516935  0.09929731  1
  O  O401  1  0.38660119  0.87223286  0.61592723  1
  O  O402  1  0.87794432  0.36495783  0.10984766  1
  O  O403  1  0.87335637  0.36986498  0.62030967  1
  O  O404  1  0.89019377  0.86222106  0.10180590  1
  O  O405  1  0.86796703  0.86968266  0.61746549  1
  O  O406  1  0.12603948  0.13169604  0.38287847  1
  O  O407  1  0.11351927  0.14232002  0.88600749  1
  O  O408  1  0.11886806  0.62105506  0.38662525  1
  O  O409  1  0.13258318  0.62342809  0.87787019  1
  O  O410  1  0.63016932  0.13627863  0.37876597  1
  O  O411  1  0.63816402  0.13988149  0.86522033  1
  O  O412  1  0.62395524  0.58652294  0.39112788  1
  O  O413  1  0.63526443  0.63228522  0.87732835  1
