# generated using pymatgen
data_V79Zn79O256
_symmetry_space_group_name_H-M   'P 1'
_cell_length_a   16.91469640
_cell_length_b   16.93117297
_cell_length_c   16.89349566
_cell_angle_alpha   90.05420642
_cell_angle_beta   90.10679317
_cell_angle_gamma   90.18483924
_symmetry_Int_Tables_number   1
_chemical_formula_structural   V79Zn79O256
_chemical_formula_sum   'V79 Zn79 O256'
_cell_volume   4838.01896988
_cell_formula_units_Z   1
loop_
 _symmetry_equiv_pos_site_id
 _symmetry_equiv_pos_as_xyz
  1  'x, y, z'
loop_
 _atom_site_type_symbol
 _atom_site_label
 _atom_site_symmetry_multiplicity
 _atom_site_fract_x
 _atom_site_fract_y
 _atom_site_fract_z
 _atom_site_occupancy
  V  V0  1  0.87494363  0.63024569  0.73906601  1
  V  V1  1  0.49575689  0.87053986  0.88456793  1
  V  V2  1  0.13354022  0.13874277  0.50194357  1
  V  V3  1  0.37556154  0.49460663  0.41076261  1
  V  V4  1  0.87938619  -0.00626762  0.37433514  1
  V  V5  1  0.37171545  0.62401833  0.74990359  1
  V  V6  1  0.75176071  0.00593306  0.75064837  1
  V  V7  1  0.01202150  0.36493364  0.36685572  1
  V  V8  1  0.12018890  0.85126359  0.24880025  1
  V  V9  1  0.12073561  0.74455411  0.88109751  1
  V  V10  1  0.75311268  0.62289082  0.87958548  1
  V  V11  1  0.75397619  0.13140772  0.37570887  1
  V  V12  1  0.89239037  0.62710540  0.24339702  1
  V  V13  1  0.12092763  0.37234002  0.74977412  1
  V  V14  1  0.10756016  0.50621333  0.61836565  1
  V  V15  1  0.86878189  0.87738707  0.00377152  1
  V  V16  1  0.74958813  0.12639013  0.88083453  1
  V  V17  1  0.50010285  0.61936369  0.62309288  1
  V  V18  1  0.37495747  -0.00659092  0.88291499  1
  V  V19  1  0.62722847  0.00031783  0.12498431  1
  V  V20  1  0.36947197  0.87137169  0.50230000  1
  V  V21  1  0.12294314  0.24905594  0.88475966  1
  V  V22  1  0.11730329  0.09726673  -0.00139126  1
  V  V23  1  0.74644282  0.74712053  0.01051394  1
  V  V24  1  0.73092202  0.38089711  0.12943566  1
  V  V25  1  0.76473158  0.61974776  0.38589036  1
  V  V26  1  0.73834217  0.50779891  0.24378424  1
  V  V27  1  0.62467982  0.86573841  0.24767739  1
  V  V28  1  0.75627836  -0.01160305  0.24534040  1
  V  V29  1  0.61865550  0.61921127  0.49662963  1
  V  V30  1  0.74281067  0.75481509  0.50474031  1
  V  V31  1  0.36685264  0.37171883  0.00712529  1
  V  V32  1  0.62149888  0.25340349  0.87273083  1
  V  V33  1  0.62032827  0.37541995  0.75090855  1
  V  V34  1  -0.00670359  0.74830860  0.74060120  1
  V  V35  1  0.24312698  0.49790780  0.74915522  1
  V  V36  1  0.24740224  0.63510342  0.37712424  1
  V  V37  1  0.87405386  0.86957470  0.50242023  1
  V  V38  1  0.25221125  0.87160707  0.12283721  1
  V  V39  1  0.75316702  0.25410836  0.00728908  1
  V  V40  1  0.49889239  0.00464892  0.50167084  1
  V  V41  1  0.12208554  0.87668293  0.74463915  1
  V  V42  1  0.12807644  0.50502997  0.13312034  1
  V  V43  1  0.00728170  0.51683556  0.00390299  1
  V  V44  1  0.37027912  0.25453270  0.61496030  1
  V  V45  1  0.63155473  0.12825125  0.49358675  1
  V  V46  1  -0.01178372  0.37542673  0.87912485  1
  V  V47  1  0.37678997  0.73988932  0.14512996  1
  V  V48  1  0.37351330  -0.00185274  0.36238068  1
  V  V49  1  0.50095748  0.86585776  0.37243336  1
  V  V50  1  0.00200540  0.85539741  0.37117594  1
  V  V51  1  0.62318336  0.74212111  0.88304975  1
  V  V52  1  0.50208178  0.00190771  0.00579041  1
  V  V53  1  0.89410524  0.74960142  0.12503356  1
  V  V54  1  0.50872595  0.50423581  -0.00113949  1
  V  V55  1  0.26016177  0.74921198  -0.00161621  1
  V  V56  1  0.75250897  0.87606809  0.62834700  1
  V  V57  1  0.75483442  0.49931264  0.75248785  1
  V  V58  1  0.87401117  0.13751743  0.24389240  1
  V  V59  1  0.50804474  0.62180015  0.13024899  1
  V  V60  1  0.38624842  0.12415985  0.74655335  1
  V  V61  1  0.24896195  0.12431810  0.87490397  1
  V  V62  1  0.87375263  0.00477866  0.87890955  1
  V  V63  1  0.26656731  0.49355205  0.25033484  1
  V  V64  1  0.00561869  0.11585088  0.13260311  1
  V  V65  1  0.36608282  0.75177654  0.62286695  1
  V  V66  1  -0.00276425  0.87830399  0.88077186  1
  V  V67  1  -0.01104996  0.24341697  0.74823265  1
  V  V68  1  0.76071973  0.36424469  0.61841839  1
  V  V69  1  0.24194692  0.62226594  0.88088679  1
  V  V70  1  0.24608958  -0.00406777  0.74380886  1
  V  V71  1  0.50035733  0.75086759  0.75031441  1
  V  V72  1  -0.00647224  0.12251766  0.62838210  1
  V  V73  1  0.11974300  0.64340390  0.50008810  1
  V  V74  1  0.01173824  -0.00595534  0.50408163  1
  V  V75  1  0.62055141  0.00321954  0.62640025  1
  V  V76  1  0.37553471  0.49108997  0.87315640  1
  V  V77  1  0.23657230  0.00086635  0.24792223  1
  V  V78  1  0.88208216  0.38192473  0.01850605  1
  Zn  Zn79  1  0.53433738  0.31644150  0.30343231  1
  Zn  Zn80  1  0.23942169  0.87382302  0.61618930  1
  Zn  Zn81  1  0.25525452  0.24821865  0.01336143  1
  Zn  Zn82  1  0.45143160  0.19561520  0.17787793  1
  Zn  Zn83  1  0.88675908  0.49252719  0.38248314  1
  Zn  Zn84  1  0.62267766  0.49229658  0.62213084  1
  Zn  Zn85  1  0.60221160  0.15615694  0.02893641  1
  Zn  Zn86  1  0.13253330  0.36173395  0.24456475  1
  Zn  Zn87  1  0.88279720  0.34738782  0.49217235  1
  Zn  Zn88  1  0.61872827  0.74133223  0.36998028  1
  Zn  Zn89  1  0.49891802  0.25516862  0.74763663  1
  Zn  Zn90  1  0.28751678  0.30319990  0.44764080  1
  Zn  Zn91  1  0.24763743  0.37048407  0.61498774  1
  Zn  Zn92  1  0.24527490  0.14084868  0.37501414  1
  Zn  Zn93  1  0.62453887  0.87658057  0.75214670  1
  Zn  Zn94  1  0.19900338  0.18785516  0.19191590  1
  Zn  Zn95  1  0.18241792  0.18302499  0.68429170  1
  Zn  Zn96  1  0.18940574  0.67455574  0.18642902  1
  Zn  Zn97  1  0.18046719  0.68668173  0.69089081  1
  Zn  Zn98  1  0.63159260  0.21080965  0.18528434  1
  Zn  Zn99  1  0.68503482  0.18483875  0.68981400  1
  Zn  Zn100  1  0.68676652  0.68120561  0.18795384  1
  Zn  Zn101  1  0.68534274  0.68719870  0.68870111  1
  Zn  Zn102  1  0.35201290  0.31068329  0.30175363  1
  Zn  Zn103  1  0.30783287  0.30861894  0.80959351  1
  Zn  Zn104  1  0.30978737  0.81387544  0.31313884  1
  Zn  Zn105  1  0.31004506  0.81066495  0.81089811  1
  Zn  Zn106  1  0.81140138  0.31854952  0.30898943  1
  Zn  Zn107  1  0.81018419  0.31187311  0.81296168  1
  Zn  Zn108  1  0.81327391  0.80287534  0.31391385  1
  Zn  Zn109  1  0.80951283  0.81186550  0.81518235  1
  Zn  Zn110  1  0.18042727  0.44499599  0.43204959  1
  Zn  Zn111  1  0.18173090  0.43457378  0.94346264  1
  Zn  Zn112  1  0.18622976  0.92693377  0.42922154  1
  Zn  Zn113  1  0.19282757  0.92668221  0.93064208  1
  Zn  Zn114  1  0.69443632  0.44066010  0.43843276  1
  Zn  Zn115  1  0.69121805  0.43676985  0.93716403  1
  Zn  Zn116  1  0.68727965  0.94218918  0.43457291  1
  Zn  Zn117  1  0.68502421  0.93132922  0.93881523  1
  Zn  Zn118  1  0.30958180  0.06041448  0.06414298  1
  Zn  Zn119  1  0.31461894  0.06278045  0.56106104  1
  Zn  Zn120  1  0.31329120  0.55837633  0.06408238  1
  Zn  Zn121  1  0.30007142  0.56797431  0.56554260  1
  Zn  Zn122  1  0.80632420  0.06376970  0.06465040  1
  Zn  Zn123  1  0.81227279  0.17993338  0.56369665  1
  Zn  Zn124  1  0.81653279  0.56372585  0.06174938  1
  Zn  Zn125  1  0.80785230  0.55984692  0.56574552  1
  Zn  Zn126  1  0.44145845  0.41727857  0.18520643  1
  Zn  Zn127  1  0.43327911  0.43612473  0.68400365  1
  Zn  Zn128  1  0.43890832  0.92895943  0.18393347  1
  Zn  Zn129  1  0.43605244  0.93765480  0.68952752  1
  Zn  Zn130  1  0.94370706  0.44627660  0.19234926  1
  Zn  Zn131  1  0.93398695  0.43695483  0.69255035  1
  Zn  Zn132  1  0.94552744  0.93697566  0.18282082  1
  Zn  Zn133  1  0.93553592  0.94150581  0.68952016  1
  Zn  Zn134  1  0.06296584  0.06063554  0.31759304  1
  Zn  Zn135  1  0.06080886  0.06012470  0.81300271  1
  Zn  Zn136  1  0.06576910  0.55747975  0.32054912  1
  Zn  Zn137  1  0.05353508  0.55941994  0.81524490  1
  Zn  Zn138  1  0.56747923  0.06144452  0.30312158  1
  Zn  Zn139  1  0.56664621  0.06177274  0.82162623  1
  Zn  Zn140  1  0.53173414  0.52460339  0.29569082  1
  Zn  Zn141  1  0.56346314  0.55871764  0.81217812  1
  Zn  Zn142  1  0.45580844  0.16842167  0.37430925  1
  Zn  Zn143  1  0.43692690  0.18627226  0.93648532  1
  Zn  Zn144  1  0.43205321  0.68330853  0.43474099  1
  Zn  Zn145  1  0.43438849  0.67899205  0.93795009  1
  Zn  Zn146  1  0.95154872  0.18421807  0.43079926  1
  Zn  Zn147  1  0.94723752  0.19742629  0.96487205  1
  Zn  Zn148  1  0.92689304  0.67036636  0.44996697  1
  Zn  Zn149  1  0.93038451  0.69154019  0.93170554  1
  Zn  Zn150  1  0.06970090  0.29447342  0.09506903  1
  Zn  Zn151  1  0.05811010  0.31322600  0.55766174  1
  Zn  Zn152  1  0.06746570  0.81632271  0.06000894  1
  Zn  Zn153  1  0.05822977  0.80922278  0.56077787  1
  Zn  Zn154  1  0.55383069  0.32561523  0.05505154  1
  Zn  Zn155  1  0.56199541  0.30284250  0.56930734  1
  Zn  Zn156  1  0.55873566  0.80890171  0.06683160  1
  Zn  Zn157  1  0.55978355  0.81528122  0.56245388  1
  O  O158  1  0.11472115  0.11682180  0.10663231  1
  O  O159  1  0.11743880  0.12088436  0.61100266  1
  O  O160  1  0.12421211  0.60814289  0.12185061  1
  O  O161  1  0.12914550  0.61431315  0.61751744  1
  O  O162  1  0.63494747  0.10382548  0.13276669  1
  O  O163  1  0.63341323  0.11169370  0.61157625  1
  O  O164  1  0.60756220  0.63587312  0.11953809  1
  O  O165  1  0.61561368  0.62715748  0.61728439  1
  O  O166  1  0.36318144  0.39533074  0.38738237  1
  O  O167  1  0.37002898  0.38824446  0.86907255  1
  O  O168  1  0.38038475  0.87791714  0.38278808  1
  O  O169  1  0.38182192  0.88358334  0.86897524  1
  O  O170  1  0.87681348  0.37836191  0.37879183  1
  O  O171  1  0.88402360  0.37304418  0.88189982  1
  O  O172  1  0.88109452  0.87522610  0.37991738  1
  O  O173  1  0.87894101  0.87970432  0.88373877  1
  O  O174  1  0.26058643  -0.01576645  0.35895988  1
  O  O175  1  0.25877465  0.00199393  0.86866467  1
  O  O176  1  0.25890754  0.50706250  0.36757355  1
  O  O177  1  0.24957253  0.50549462  0.86731877  1
  O  O178  1  0.76331014  0.00229529  0.36827426  1
  O  O179  1  0.75102107  0.00489657  0.87110571  1
  O  O180  1  0.75104470  0.50675984  0.36130313  1
  O  O181  1  0.74275475  0.51063024  0.86443284  1
  O  O182  1  0.24137267  0.50764834  0.13840165  1
  O  O183  1  0.23745895  0.49836644  0.64135329  1
  O  O184  1  0.26127091  0.98646803  0.14022961  1
  O  O185  1  0.25842110  0.99442642  0.64105689  1
  O  O186  1  0.75450645  0.49620182  0.13414119  1
  O  O187  1  0.74771607  0.48988337  0.63555269  1
  O  O188  1  0.74571476  0.99259708  0.13658424  1
  O  O189  1  0.73884592  0.99000747  0.63858497  1
  O  O190  1  -0.00163669  0.37674832  0.25991984  1
  O  O191  1  0.00322870  0.36686539  0.75952396  1
  O  O192  1  0.01350541  0.87303250  0.25326944  1
  O  O193  1  0.00197622  0.86864855  0.75826618  1
  O  O194  1  0.52787849  0.41884560  0.25583247  1
  O  O195  1  0.51629832  0.37909985  0.74474303  1
  O  O196  1  0.51422059  0.87882599  0.25904018  1
  O  O197  1  0.49813206  0.86420369  0.76052655  1
  O  O198  1  0.49073935  0.13318855  0.26860591  1
  O  O199  1  0.48747272  0.11806917  0.75593666  1
  O  O200  1  0.49920065  0.61371497  0.22997780  1
  O  O201  1  0.49400274  0.63341153  0.74493876  1
  O  O202  1  0.99239338  0.11966601  0.24041084  1
  O  O203  1  1.00868664  0.12782273  0.73713220  1
  O  O204  1  0.99012849  0.62464075  0.25382044  1
  O  O205  1  0.98206442  0.63138483  0.75947286  1
  O  O206  1  0.37721201  0.26764150  -0.01400225  1
  O  O207  1  0.36399010  0.24297791  0.51688693  1
  O  O208  1  0.36156066  0.75047763  -0.00525967  1
  O  O209  1  0.38278295  0.76000159  0.51249298  1
  O  O210  1  0.85972630  0.26736159  -0.00387365  1
  O  O211  1  0.87799252  0.23619293  0.49568451  1
  O  O212  1  0.86740473  0.75476563  0.00917155  1
  O  O213  1  0.86006295  0.76146123  0.49813118  1
  O  O214  1  0.12833210  0.23768256  0.50182166  1
  O  O215  1  0.13030193  0.24490702  0.99047102  1
  O  O216  1  0.13314922  0.74317315  0.50883531  1
  O  O217  1  0.13249478  0.75308911  0.98553329  1
  O  O218  1  0.61749622  0.22551603  0.50283425  1
  O  O219  1  0.63929140  0.26400910  0.98735052  1
  O  O220  1  0.63047185  0.74878354  0.49682266  1
  O  O221  1  0.63092290  0.75586665  0.99110786  1
  O  O222  1  0.54125799  0.22684765  0.10845981  1
  O  O223  1  0.48009858  0.25189115  0.63049955  1
  O  O224  1  0.48288167  0.73955673  0.11896652  1
  O  O225  1  0.49254860  0.74496458  0.63507912  1
  O  O226  1  0.98673374  0.21018140  0.08551439  1
  O  O227  1  1.00795040  0.23566434  0.63501931  1
  O  O228  1  0.99247957  0.74735900  0.11693805  1
  O  O229  1  0.99826435  0.75247961  0.64137546  1
  O  O230  1  0.00149474  0.26210886  0.36729076  1
  O  O231  1  0.00657555  0.25385941  0.87362537  1
  O  O232  1  -0.00920016  0.75868929  0.38252157  1
  O  O233  1  0.00358683  0.75818684  0.86788608  1
  O  O234  1  0.46455619  0.27637597  0.38260707  1
  O  O235  1  0.51858031  0.24259571  0.87399091  1
  O  O236  1  0.49898499  0.76117195  0.37965419  1
  O  O237  1  0.50214383  0.75139925  0.87149695  1
  O  O238  1  0.23720189  0.11717395  0.49945293  1
  O  O239  1  0.23922278  0.12082632  0.98826215  1
  O  O240  1  0.23299626  0.61991988  0.49141744  1
  O  O241  1  0.25176322  0.63058776  0.98642903  1
  O  O242  1  0.74046577  0.11990063  0.49166004  1
  O  O243  1  0.74439661  0.13961566  1.00046890  1
  O  O244  1  0.73238980  0.63940060  0.50572917  1
  O  O245  1  0.75621748  0.63250635  0.99046272  1
  O  O246  1  0.26023266  0.36748190  -0.01005818  1
  O  O247  1  0.22768922  0.37409239  0.50560269  1
  O  O248  1  0.24426349  0.86347610  0.01202730  1
  O  O249  1  0.26397543  0.88039527  0.50073596  1
  O  O250  1  0.76131201  0.38019659  0.01267807  1
  O  O251  1  0.75483117  0.38051346  0.51569953  1
  O  O252  1  0.76002476  0.86112756  -0.00649770  1
  O  O253  1  0.75400668  0.87298226  0.50558445  1
  O  O254  1  0.12742576  0.49849528  0.23984107  1
  O  O255  1  0.12561157  0.49301747  0.74854713  1
  O  O256  1  0.13502085  0.99007724  0.25190891  1
  O  O257  1  0.13377775  0.98750390  0.76038799  1
  O  O258  1  0.64133461  0.51632787  0.24952522  1
  O  O259  1  0.63457727  0.49278007  0.74734393  1
  O  O260  1  0.63556382  0.98846850  0.24486652  1
  O  O261  1  0.63043699  0.99948724  0.74554609  1
  O  O262  1  0.37088651  -0.01088806  0.25951960  1
  O  O263  1  0.36943393  0.00787974  0.75959804  1
  O  O264  1  0.36577985  0.49762384  0.24246276  1
  O  O265  1  0.36323286  0.50415288  0.75327893  1
  O  O266  1  0.87183128  -0.01277985  0.25912227  1
  O  O267  1  0.86218915  -0.00530480  0.76522219  1
  O  O268  1  0.86966979  0.52068848  0.24951998  1
  O  O269  1  0.86491270  0.51372917  0.74998794  1
  O  O270  1  0.11698532  0.37639847  0.36378245  1
  O  O271  1  0.11500732  0.36566630  0.87007217  1
  O  O272  1  0.11749547  0.86823849  0.35878891  1
  O  O273  1  0.11548558  0.86518329  0.86705401  1
  O  O274  1  0.59550249  0.37581313  0.41884859  1
  O  O275  1  0.63943224  0.36450080  0.86136394  1
  O  O276  1  0.61650179  0.87621331  0.36692550  1
  O  O277  1  0.61325602  0.86295426  0.87274507  1
  O  O278  1  0.35280969  0.15389717  0.12062429  1
  O  O279  1  0.36947854  0.13016062  0.64277593  1
  O  O280  1  0.37488857  0.63775980  0.12183963  1
  O  O281  1  0.37969799  0.63341098  0.62945168  1
  O  O282  1  0.87818824  0.11569393  0.14069059  1
  O  O283  1  0.89401614  0.12303104  0.62302153  1
  O  O284  1  0.87446185  0.63861852  0.13205830  1
  O  O285  1  0.86750187  0.62781695  0.63974980  1
  O  O286  1  0.29009467  0.21471004  0.12341653  1
  O  O287  1  0.26444987  0.25172226  0.64525303  1
  O  O288  1  0.25924443  0.74873739  0.11852136  1
  O  O289  1  0.26294294  0.75206410  0.63684960  1
  O  O290  1  0.73660081  0.27120999  0.11777541  1
  O  O291  1  0.75215000  0.25846763  0.62869626  1
  O  O292  1  0.75098196  0.74445787  0.11285948  1
  O  O293  1  0.73917470  0.76566914  0.61923427  1
  O  O294  1  0.27339155  0.24697809  0.35158314  1
  O  O295  1  0.23959738  0.23623393  0.87197427  1
  O  O296  1  0.25297514  0.73523902  0.37236379  1
  O  O297  1  0.24181077  0.74283555  0.87841331  1
  O  O298  1  0.75820520  0.22989156  0.36757656  1
  O  O299  1  0.74557082  0.24245606  0.88100363  1
  O  O300  1  0.74545272  0.73785351  0.38732738  1
  O  O301  1  0.74055968  0.74315720  0.88256834  1
  O  O302  1  0.01756090  0.10662908  -0.01961602  1
  O  O303  1  0.01268450  0.11303223  0.50717858  1
  O  O304  1  -0.00632255  0.61391521  -0.01249685  1
  O  O305  1  0.01892223  0.63252181  0.50029729  1
  O  O306  1  0.50448175  0.10691970  -0.01098047  1
  O  O307  1  0.51339208  0.10693241  0.47974939  1
  O  O308  1  0.49310750  0.61243977  0.00626305  1
  O  O309  1  0.51247556  0.63649775  0.50915000  1
  O  O310  1  0.54489943  0.38219855  0.47803011  1
  O  O311  1  0.48300013  0.39407288  0.99893263  1
  O  O312  1  0.49279060  0.88365091  0.49240939  1
  O  O313  1  0.49982252  0.87995258  0.99032695  1
  O  O314  1  0.99717717  0.37180801  0.48385159  1
  O  O315  1  0.98678723  0.37070569  0.99837282  1
  O  O316  1  0.99209646  0.87461393  0.49416751  1
  O  O317  1  0.99013720  0.86897187  0.98763779  1
  O  O318  1  0.47332825  0.51807795  0.39083099  1
  O  O319  1  0.48478975  0.51231030  0.88372956  1
  O  O320  1  0.48671654  0.98704019  0.37899270  1
  O  O321  1  0.49519360  0.98859221  0.88229875  1
  O  O322  1  0.99955925  0.48472686  0.37463517  1
  O  O323  1  1.00696967  0.48467653  0.89072429  1
  O  O324  1  0.99484627  0.98675982  0.38084732  1
  O  O325  1  0.98644292  0.98799235  0.86631588  1
  O  O326  1  -0.00867636  0.01644799  0.11409960  1
  O  O327  1  -0.00229842  0.00824147  0.61778674  1
  O  O328  1  0.00532003  0.50526246  0.11068710  1
  O  O329  1  0.00897314  0.50174962  0.63538339  1
  O  O330  1  0.50672516  -0.00769435  0.11537061  1
  O  O331  1  0.50837075  -0.00618132  0.61658132  1
  O  O332  1  0.49182732  0.51153553  0.10828364  1
  O  O333  1  0.50023520  0.51590977  0.63178626  1
  O  O334  1  0.25002089  0.39288256  0.25449637  1
  O  O335  1  0.23428151  0.38308263  0.75596048  1
  O  O336  1  0.23723899  0.87534188  0.24377886  1
  O  O337  1  0.23921592  0.88003330  0.75299786  1
  O  O338  1  0.75228699  0.39187623  0.23740563  1
  O  O339  1  0.74723339  0.38140283  0.74203327  1
  O  O340  1  0.73762637  0.87966790  0.26247444  1
  O  O341  1  0.74764372  0.88192438  0.74565485  1
  O  O342  1  0.24336814  0.10323384  0.25461505  1
  O  O343  1  0.25170803  0.11358989  0.76110479  1
  O  O344  1  0.24201005  0.61234535  0.26865332  1
  O  O345  1  0.25086355  0.61671259  0.75844024  1
  O  O346  1  0.76776446  0.10690090  0.25815158  1
  O  O347  1  0.74600833  0.11475844  0.76260672  1
  O  O348  1  0.75529371  0.61948849  0.25859896  1
  O  O349  1  0.75596900  0.62080152  0.75421683  1
  O  O350  1  0.36388818  0.09732246  0.38361206  1
  O  O351  1  0.36698267  0.11395065  0.86902192  1
  O  O352  1  0.35408199  0.61325208  0.39297766  1
  O  O353  1  0.36116920  0.61637980  0.86758520  1
  O  O354  1  0.87780592  0.11113514  0.36191542  1
  O  O355  1  0.86080866  0.11413832  0.89220748  1
  O  O356  1  0.86699892  0.65291542  0.34746936  1
  O  O357  1  0.85787415  0.63031481  0.86449982  1
  O  O358  1  0.11802005  0.39738615  0.12067149  1
  O  O359  1  0.11846322  0.38369967  0.63973526  1
  O  O360  1  0.13613342  0.86764636  0.13703158  1
  O  O361  1  0.12323982  0.86787644  0.64045657  1
  O  O362  1  0.63379824  0.38936746  0.11836281  1
  O  O363  1  0.63723804  0.37197604  0.63321292  1
  O  O364  1  0.61944813  0.87894007  0.14101448  1
  O  O365  1  0.63114056  0.88498369  0.62741854  1
  O  O366  1  0.11821316  0.25920349  0.19640548  1
  O  O367  1  0.11636768  0.25576384  0.76169933  1
  O  O368  1  0.12601008  0.75319461  0.24625724  1
  O  O369  1  0.11483595  0.75566638  0.75992067  1
  O  O370  1  0.63050000  0.26540104  0.27847834  1
  O  O371  1  0.62273919  0.25608619  0.75498451  1
  O  O372  1  0.63200538  0.76236551  0.25289980  1
  O  O373  1  0.61297924  0.75051960  0.75900585  1
  O  O374  1  0.43229891  0.30022118  0.22496425  1
  O  O375  1  0.37989004  0.23131110  0.76186265  1
  O  O376  1  0.37351911  0.74391260  0.24426722  1
  O  O377  1  0.38301355  0.74489062  0.74609033  1
  O  O378  1  0.86792699  0.23492366  0.24676615  1
  O  O379  1  0.88953717  0.24866987  0.75748437  1
  O  O380  1  0.87305539  0.74858831  0.22959483  1
  O  O381  1  0.87781196  0.74000742  0.75477837  1
  O  O382  1  0.36973080  0.49594211  0.51194035  1
  O  O383  1  0.37021207  0.49064892  0.98797964  1
  O  O384  1  0.38254075  0.98993613  0.49743435  1
  O  O385  1  0.38214125  1.00344014  0.99073410  1
  O  O386  1  0.84976189  0.57056535  0.46088281  1
  O  O387  1  0.88786290  0.48848385  1.00497877  1
  O  O388  1  0.88683462  0.98367217  0.48547591  1
  O  O389  1  0.86142918  0.98835965  0.99133573  1
  O  O390  1  0.13048034  -0.00085016  -0.00663919  1
  O  O391  1  0.11273965  -0.01543463  0.49758374  1
  O  O392  1  0.11337544  0.50208000  0.00510125  1
  O  O393  1  0.11927211  0.50044286  0.51839357  1
  O  O394  1  0.61856180  -0.00928143  0.01185378  1
  O  O395  1  0.61830092  0.00125034  0.50822162  1
  O  O396  1  0.60744778  0.49555835  -0.01104487  1
  O  O397  1  0.63217659  0.51709496  0.50525109  1
  O  O398  1  0.36694355  0.38116038  0.10549107  1
  O  O399  1  0.36690689  0.36058044  0.63369461  1
  O  O400  1  0.36296619  0.85606520  0.13313076  1
  O  O401  1  0.37490304  0.86737002  0.61953496  1
  O  O402  1  0.87458685  0.37755190  0.11917443  1
  O  O403  1  0.86356192  0.37627535  0.62473591  1
  O  O404  1  0.88367997  0.86308385  0.11372560  1
  O  O405  1  0.86314139  0.88384159  0.61554421  1
  O  O406  1  0.12700082  0.11582711  0.39403440  1
  O  O407  1  0.13135375  0.12719466  0.88090272  1
  O  O408  1  0.13293556  0.62169156  0.39020108  1
  O  O409  1  0.13121350  0.63349922  0.86526094  1
  O  O410  1  0.64082078  0.10813817  0.38494721  1
  O  O411  1  0.63765738  0.13365422  0.88011033  1
  O  O412  1  0.63550104  0.62373021  0.39136448  1
  O  O413  1  0.63353138  0.63578726  0.86818103  1
