# generated using pymatgen
data_V79Zn79O256
_symmetry_space_group_name_H-M   'P 1'
_cell_length_a   16.95765808
_cell_length_b   16.94655085
_cell_length_c   16.92124189
_cell_angle_alpha   89.86029368
_cell_angle_beta   89.63847809
_cell_angle_gamma   89.73067630
_symmetry_Int_Tables_number   1
_chemical_formula_structural   V79Zn79O256
_chemical_formula_sum   'V79 Zn79 O256'
_cell_volume   4862.55720957
_cell_formula_units_Z   1
loop_
 _symmetry_equiv_pos_site_id
 _symmetry_equiv_pos_as_xyz
  1  'x, y, z'
loop_
 _atom_site_type_symbol
 _atom_site_label
 _atom_site_symmetry_multiplicity
 _atom_site_fract_x
 _atom_site_fract_y
 _atom_site_fract_z
 _atom_site_occupancy
  V  V0  1  0.61877381  0.00368041  0.62009897  1
  V  V1  1  0.12321585  0.61999984  0.49927008  1
  V  V2  1  0.74537342  0.87900681  0.13654559  1
  V  V3  1  0.37920801  0.75304110  0.12800009  1
  V  V4  1  0.24226489  0.22050325  0.00808531  1
  V  V5  1  -0.00335870  0.24814929  0.25154078  1
  V  V6  1  0.38119804  0.87112883  -0.01538275  1
  V  V7  1  0.74811851  0.37550047  0.12181602  1
  V  V8  1  0.57046363  0.18740069  0.55862083  1
  V  V9  1  0.74208531  0.24776126  -0.00273595  1
  V  V10  1  0.11940017  0.24773862  0.89373544  1
  V  V11  1  0.00352390  0.62382321  0.63049196  1
  V  V12  1  0.87189224  0.50469253  0.87431964  1
  V  V13  1  0.87398297  0.74949671  0.12414183  1
  V  V14  1  0.88250001  0.12559004  0.74316466  1
  V  V15  1  0.75365536  0.25456921  0.50050373  1
  V  V16  1  0.88002439  0.00125828  0.87475536  1
  V  V17  1  0.74301312  0.12844650  0.88040790  1
  V  V18  1  0.25285289  0.49934099  0.25132390  1
  V  V19  1  0.12643516  0.75199467  0.36806062  1
  V  V20  1  0.36992018  0.24468071  0.12769484  1
  V  V21  1  0.50183832  0.49642799  0.47289983  1
  V  V22  1  0.24729729  0.49366700  0.75866401  1
  V  V23  1  0.62595635  0.75344725  0.87217491  1
  V  V24  1  0.88150906  0.25607503  0.61891585  1
  V  V25  1  0.25221822  0.75096830  0.50477980  1
  V  V26  1  0.11950950  0.13835991  0.48955293  1
  V  V27  1  0.87191494  0.62769411  0.75391336  1
  V  V28  1  0.88092060  0.37442725  -0.00628495  1
  V  V29  1  0.01187985  -0.00100070  0.51309466  1
  V  V30  1  0.87496492  0.87581368  -0.00183619  1
  V  V31  1  0.87521922  0.62401302  0.24979803  1
  V  V32  1  0.12280966  0.37074695  0.25413743  1
  V  V33  1  0.25612052  0.25084765  0.48517518  1
  V  V34  1  0.00162400  0.62527073  0.12334429  1
  V  V35  1  0.49882863  0.24984622  0.24838830  1
  V  V36  1  0.87164022  0.12025090  0.25090702  1
  V  V37  1  0.87796025  0.24460779  0.12379797  1
  V  V38  1  0.01712038  0.86318155  0.86890715  1
  V  V39  1  0.24908512  0.63793908  0.87657450  1
  V  V40  1  0.37198226  0.38432085  0.49083560  1
  V  V41  1  0.35431976  0.00923942  0.87151911  1
  V  V42  1  0.62951687  0.00084972  0.13006154  1
  V  V43  1  0.74564707  -0.00030060  0.75213032  1
  V  V44  1  0.00699726  0.01579493  0.00603588  1
  V  V45  1  0.60115431  0.33994091  0.75926800  1
  V  V46  1  0.00279096  0.75154681  0.24872055  1
  V  V47  1  -0.00263117  0.49691683  0.50406272  1
  V  V48  1  0.39329707  0.61742337  0.25024341  1
  V  V49  1  0.88316895  0.75236876  0.63331521  1
  V  V50  1  0.62531143  0.25359582  0.36963433  1
  V  V51  1  0.36298071  0.12562153  0.73902960  1
  V  V52  1  0.62711202  0.50230316  0.09839176  1
  V  V53  1  0.12979116  0.63896857  -0.00385341  1
  V  V54  1  0.24377720  -0.03379350  0.25406601  1
  V  V55  1  0.00400637  0.49741159  -0.00800827  1
  V  V56  1  0.74890355  0.87850752  0.63084706  1
  V  V57  1  0.12569862  0.50038774  0.12191596  1
  V  V58  1  0.74806806  0.50121329  0.25065815  1
  V  V59  1  0.50627188  0.11972481  0.12078618  1
  V  V60  1  0.74180617  0.62816223  0.38186511  1
  V  V61  1  -0.00348353  0.37349344  0.37826215  1
  V  V62  1  0.74313300  0.74254813  -0.00522871  1
  V  V63  1  0.25252365  0.62064031  0.37378008  1
  V  V64  1  0.36418377  0.11697200  0.25972685  1
  V  V65  1  0.25140502  0.37482573  0.11585064  1
  V  V66  1  0.00592475  0.25501782  0.75185167  1
  V  V67  1  0.75025879  0.75049804  0.50045006  1
  V  V68  1  0.50491321  0.61933793  0.09802066  1
  V  V69  1  0.87349811  0.49750624  0.38096304  1
  V  V70  1  0.42943948  0.43095507  0.93758636  1
  V  V71  1  0.87886375  0.87850701  0.50179674  1
  V  V72  1  0.00216478  0.87758106  0.37164508  1
  V  V73  1  0.62183360  0.38375325  0.24462899  1
  V  V74  1  0.37540105  0.74876210  0.62802531  1
  V  V75  1  0.50736487  0.77113970  0.74770640  1
  V  V76  1  0.74137508  0.49966944  0.74691532  1
  V  V77  1  0.39272549  0.61172878  0.76097490  1
  V  V78  1  0.74602274  0.11768931  0.37624628  1
  Zn  Zn79  1  0.37467632  0.87767303  0.50821967  1
  Zn  Zn80  1  0.37750815  -0.00570735  0.38123378  1
  Zn  Zn81  1  0.12517435  0.00017200  0.12932280  1
  Zn  Zn82  1  0.50608116  0.88266915  0.38907255  1
  Zn  Zn83  1  0.87430569  -0.00185668  0.37196418  1
  Zn  Zn84  1  0.23701946  0.85362658  0.12031594  1
  Zn  Zn85  1  0.74325848  0.37793216  0.62377814  1
  Zn  Zn86  1  0.11300499  0.38497723  0.74695510  1
  Zn  Zn87  1  0.59087794  0.65828933  0.49777033  1
  Zn  Zn88  1  0.43896850  0.43405972  0.30593918  1
  Zn  Zn89  1  0.49302136  0.01103562  0.50290635  1
  Zn  Zn90  1  0.56225639  0.94140582  0.81799857  1
  Zn  Zn91  1  0.24193727  0.37656685  0.62107017  1
  Zn  Zn92  1  0.51076781  0.00252600  -0.01946718  1
  Zn  Zn93  1  0.55821212  0.55886522  0.65895106  1
  Zn  Zn94  1  0.18182629  0.18178860  0.18799711  1
  Zn  Zn95  1  0.19504994  0.18344959  0.66826716  1
  Zn  Zn96  1  0.19204231  0.68579954  0.18421477  1
  Zn  Zn97  1  0.22364295  0.62795280  0.65331814  1
  Zn  Zn98  1  0.68848838  0.18742889  0.18624458  1
  Zn  Zn99  1  0.69829961  0.18536629  0.69092931  1
  Zn  Zn100  1  0.68361475  0.68042280  0.18645129  1
  Zn  Zn101  1  0.68479605  0.68667567  0.68028113  1
  Zn  Zn102  1  0.30622572  0.30737341  0.31399249  1
  Zn  Zn103  1  0.30602788  0.30204980  0.82041912  1
  Zn  Zn104  1  0.33281972  0.80460529  0.31602194  1
  Zn  Zn105  1  0.31203376  0.81050450  0.80709467  1
  Zn  Zn106  1  0.81036275  0.31318658  0.31231068  1
  Zn  Zn107  1  0.81541848  0.31417816  0.81107474  1
  Zn  Zn108  1  0.81288739  0.81008150  0.31484580  1
  Zn  Zn109  1  0.81480660  0.81384354  0.81518749  1
  Zn  Zn110  1  0.18378542  0.43622173  0.43541452  1
  Zn  Zn111  1  0.18816115  0.43391730  0.92672153  1
  Zn  Zn112  1  0.18996153  0.93801940  0.43223723  1
  Zn  Zn113  1  0.18810700  0.93107445  0.95427902  1
  Zn  Zn114  1  0.68309587  0.43734237  0.43494970  1
  Zn  Zn115  1  0.69569486  0.42822810  0.92329965  1
  Zn  Zn116  1  0.68191462  0.93318212  0.43861342  1
  Zn  Zn117  1  0.68588758  0.93637525  0.94642058  1
  Zn  Zn118  1  0.31999130  0.04526496  0.07067503  1
  Zn  Zn119  1  0.30448632  0.07540048  0.54210672  1
  Zn  Zn120  1  0.31483755  0.56275902  0.05977015  1
  Zn  Zn121  1  0.37021427  0.52917806  0.59796458  1
  Zn  Zn122  1  0.81446857  0.06172640  0.06281434  1
  Zn  Zn123  1  0.81402908  0.06563930  0.56006053  1
  Zn  Zn124  1  0.81294888  0.56217212  0.06176707  1
  Zn  Zn125  1  0.81184104  0.56506554  0.56736092  1
  Zn  Zn126  1  0.47292017  0.40019910  0.11403636  1
  Zn  Zn127  1  0.42154795  0.41091555  0.69997698  1
  Zn  Zn128  1  0.45312273  0.93352824  0.20479682  1
  Zn  Zn129  1  0.42302637  0.94398936  0.68315980  1
  Zn  Zn130  1  0.93557696  0.43741125  0.18467015  1
  Zn  Zn131  1  0.93231146  0.43683021  0.68650460  1
  Zn  Zn132  1  0.93677395  0.93632226  0.18674644  1
  Zn  Zn133  1  0.94228533  0.93561236  0.69329746  1
  Zn  Zn134  1  0.08753888  0.07725908  0.29012886  1
  Zn  Zn135  1  0.06539426  0.06894944  0.82001365  1
  Zn  Zn136  1  0.06326058  0.56122343  0.31213737  1
  Zn  Zn137  1  0.06535674  0.56895257  0.81417325  1
  Zn  Zn138  1  0.56201110  0.05975017  0.31115773  1
  Zn  Zn139  1  0.53390870  0.12978785  0.82771870  1
  Zn  Zn140  1  0.58193580  0.76824588  0.32384210  1
  Zn  Zn141  1  0.56799039  0.56072615  0.84623802  1
  Zn  Zn142  1  0.43568067  0.19438786  0.43148303  1
  Zn  Zn143  1  0.41815956  0.18157655  0.94007774  1
  Zn  Zn144  1  0.43333171  0.68188360  0.43585763  1
  Zn  Zn145  1  0.43939203  0.69690360  0.92933857  1
  Zn  Zn146  1  0.93895999  0.18178555  0.43559217  1
  Zn  Zn147  1  0.93471387  0.18911624  0.93157617  1
  Zn  Zn148  1  0.93436766  0.68712744  0.43856322  1
  Zn  Zn149  1  0.93997918  0.68827858  0.93741199  1
  Zn  Zn150  1  0.06077954  0.31513480  0.07029958  1
  Zn  Zn151  1  0.07121325  0.31465100  0.56841681  1
  Zn  Zn152  1  0.05798032  0.82063457  0.06088840  1
  Zn  Zn153  1  0.06880699  0.80842986  0.56456805  1
  Zn  Zn154  1  0.55665787  0.30155707  -0.06336466  1
  Zn  Zn155  1  0.54664342  0.38248041  0.58755849  1
  Zn  Zn156  1  0.56043012  0.81447174  0.06926886  1
  Zn  Zn157  1  0.55880516  0.81990477  0.56547119  1
  O  O158  1  0.10798760  0.10153723  0.17745925  1
  O  O159  1  0.13998283  0.11412005  0.58772067  1
  O  O160  1  0.12273589  0.61820225  0.11591264  1
  O  O161  1  0.11392511  0.62869170  0.61170024  1
  O  O162  1  0.61190021  0.12420126  0.12654383  1
  O  O163  1  0.62614205  0.12113191  0.62364147  1
  O  O164  1  0.61240532  0.61517392  0.11920905  1
  O  O165  1  0.62702774  0.62652893  0.60600164  1
  O  O166  1  0.37142547  0.37591165  0.37901343  1
  O  O167  1  0.37439839  0.36827847  0.87973804  1
  O  O168  1  0.38607529  0.86928444  0.38926059  1
  O  O169  1  0.37361972  0.88111161  0.88021009  1
  O  O170  1  0.88071568  0.38923848  0.36821779  1
  O  O171  1  0.87364835  0.38493505  0.88716245  1
  O  O172  1  0.88185042  0.87389491  0.38624544  1
  O  O173  1  0.87762184  0.88659614  0.88089438  1
  O  O174  1  0.26213116  -0.01516562  0.35841339  1
  O  O175  1  0.25707729  -0.00739318  0.88067827  1
  O  O176  1  0.24050939  0.50945178  0.36195207  1
  O  O177  1  0.25458324  0.50663557  0.86527619  1
  O  O178  1  0.74846041  0.01534953  0.38359078  1
  O  O179  1  0.75987162  0.00849512  0.87181605  1
  O  O180  1  0.75722897  0.50498303  0.37356529  1
  O  O181  1  0.76443921  0.50392817  0.86616209  1
  O  O182  1  0.24656824  0.49341090  0.13296739  1
  O  O183  1  0.26164270  0.51657717  0.64867579  1
  O  O184  1  0.25320938  0.99493232  0.14895009  1
  O  O185  1  0.18794116  1.02181834  0.71629289  1
  O  O186  1  0.74336905  0.49804580  0.12956454  1
  O  O187  1  0.75850811  0.49627119  0.64124658  1
  O  O188  1  0.74799596  0.98642602  0.11912174  1
  O  O189  1  0.74787532  0.99835643  0.63245276  1
  O  O190  1  0.00318932  0.37182265  0.25586730  1
  O  O191  1  -0.00545535  0.35985385  0.74859816  1
  O  O192  1  -0.01000828  0.86507205  0.26116040  1
  O  O193  1  0.00320407  0.88236847  0.76963671  1
  O  O194  1  0.50433948  0.36745296  0.23253079  1
  O  O195  1  0.50121339  0.35116837  0.75361590  1
  O  O196  1  0.48847476  0.85582400  0.27656512  1
  O  O197  1  0.50066761  0.87304476  0.74449687  1
  O  O198  1  0.49220516  0.13328865  0.24172132  1
  O  O199  1  0.46028766  0.14424076  0.73593054  1
  O  O200  1  0.48927182  0.61174230  0.25000343  1
  O  O201  1  0.49610567  0.61545418  0.75911271  1
  O  O202  1  0.98430477  0.14375451  0.26927099  1
  O  O203  1  0.98873028  0.13635816  0.75682598  1
  O  O204  1  0.99581010  0.62899644  0.24285206  1
  O  O205  1  0.99217945  0.61700540  0.73844732  1
  O  O206  1  0.35044096  0.23444003  0.01595792  1
  O  O207  1  0.36136972  0.26062473  0.48852845  1
  O  O208  1  0.38208857  0.76496564  0.00488967  1
  O  O209  1  0.36703725  0.73945290  0.51294098  1
  O  O210  1  0.87414832  0.25775666  0.00611776  1
  O  O211  1  0.87192703  0.24452179  0.51255635  1
  O  O212  1  0.86862118  0.75782572  0.00292327  1
  O  O213  1  0.87235948  0.76060028  0.51088752  1
  O  O214  1  0.10483500  0.23929897  0.48791812  1
  O  O215  1  0.12603430  0.24939591  1.00130433  1
  O  O216  1  0.13027823  0.73834013  0.49037966  1
  O  O217  1  0.12216269  0.73670030  1.00711322  1
  O  O218  1  0.63221340  0.23995957  0.48907898  1
  O  O219  1  0.64437142  0.25749916  1.00093085  1
  O  O220  1  0.65018502  0.76195238  0.51800778  1
  O  O221  1  0.63905855  0.76037934  0.99602617  1
  O  O222  1  0.48617392  0.23745709  0.13475475  1
  O  O223  1  0.52404010  0.25898681  0.60649316  1
  O  O224  1  0.49153907  0.72864785  0.11517062  1
  O  O225  1  0.49572192  0.75086989  0.64030292  1
  O  O226  1  0.98662084  0.25704397  0.13692926  1
  O  O227  1  0.98621235  0.25166832  0.63247556  1
  O  O228  1  0.99380521  0.74519154  0.12801969  1
  O  O229  1  0.99118930  0.74038332  0.62045388  1
  O  O230  1  -0.01599918  0.26632481  0.36680542  1
  O  O231  1  0.00909845  0.25307498  0.86650196  1
  O  O232  1  0.00619187  0.75379325  0.37062861  1
  O  O233  1  -0.00151032  0.76402503  0.87770204  1
  O  O234  1  0.51153708  0.24481073  0.35816617  1
  O  O235  1  0.50052621  0.22415112  0.88158604  1
  O  O236  1  0.52996221  0.73324862  0.41769522  1
  O  O237  1  0.50724711  0.75572250  0.85658680  1
  O  O238  1  0.24231968  0.14558309  0.48061758  1
  O  O239  1  0.23925614  0.12287290  1.01996172  1
  O  O240  1  0.23845612  0.62815739  0.48629666  1
  O  O241  1  0.24453800  0.61817610  0.98593787  1
  O  O242  1  0.75614359  0.13712835  0.48506799  1
  O  O243  1  0.75907784  0.13182659  0.98795212  1
  O  O244  1  0.76546836  0.63908166  0.49463260  1
  O  O245  1  0.75542631  0.64389311  1.00555487  1
  O  O246  1  0.23957572  0.37386926  0.01601258  1
  O  O247  1  0.25742099  0.37601350  0.49438888  1
  O  O248  1  0.27943777  0.88836072  0.01523333  1
  O  O249  1  0.24883319  0.85309433  0.49487830  1
  O  O250  1  0.76213606  0.36724499  0.00154704  1
  O  O251  1  0.74168808  0.35926999  0.50185463  1
  O  O252  1  0.76332221  0.86959107  0.00666106  1
  O  O253  1  0.76331555  0.87350681  0.51016707  1
  O  O254  1  0.13105001  0.49350527  0.24204164  1
  O  O255  1  0.14118466  0.50012258  0.75848915  1
  O  O256  1  0.14285107  0.97295683  0.26289514  1
  O  O257  1  0.12060644  0.99566665  0.74615523  1
  O  O258  1  0.63145791  0.48706864  0.24908302  1
  O  O259  1  0.64052419  0.51741515  0.75803562  1
  O  O260  1  0.62670431  1.00716306  0.23193433  1
  O  O261  1  0.64096946  1.00414202  0.74176796  1
  O  O262  1  0.37079335  0.00966451  0.25095150  1
  O  O263  1  0.36859481  0.00501377  0.76341900  1
  O  O264  1  0.36492928  0.50749320  0.24784242  1
  O  O265  1  0.37410881  0.50989322  0.75651161  1
  O  O266  1  0.88286567  0.01576601  0.25167894  1
  O  O267  1  0.87018348  0.00723332  0.75623007  1
  O  O268  1  0.86784812  0.50480828  0.25509601  1
  O  O269  1  0.87123864  0.50722043  0.75841121  1
  O  O270  1  0.10916069  0.38561616  0.36162746  1
  O  O271  1  0.13720841  0.35103854  0.85983518  1
  O  O272  1  0.11607121  0.85774257  0.38122027  1
  O  O273  1  0.11513061  0.87471049  0.88664200  1
  O  O274  1  0.63043692  0.36112309  0.36031274  1
  O  O275  1  0.62363313  0.36796123  0.86081093  1
  O  O276  1  0.62096098  0.86826851  0.37743049  1
  O  O277  1  0.62983452  0.86813797  0.87327912  1
  O  O278  1  0.38057918  0.12827815  0.13861691  1
  O  O279  1  0.33943459  0.10078094  0.64330924  1
  O  O280  1  0.39032323  0.62219064  0.12941100  1
  O  O281  1  0.37896758  0.63412449  0.65273803  1
  O  O282  1  0.86660221  0.13717408  0.13421844  1
  O  O283  1  0.86735836  0.13665750  0.63570207  1
  O  O284  1  0.88127256  0.62901779  0.12963648  1
  O  O285  1  0.88414535  0.63457422  0.63281872  1
  O  O286  1  0.24692582  0.25326557  0.12092120  1
  O  O287  1  0.22993407  0.25948337  0.59019293  1
  O  O288  1  0.27263837  0.74006694  0.12139217  1
  O  O289  1  0.25962518  0.72975501  0.61427462  1
  O  O290  1  0.75913455  0.25477880  0.11688658  1
  O  O291  1  0.75955837  0.24995087  0.61731551  1
  O  O292  1  0.75522416  0.76158830  0.11347937  1
  O  O293  1  0.76449435  0.76073088  0.62340746  1
  O  O294  1  0.22910109  0.26859066  0.38740496  1
  O  O295  1  0.23895022  0.24491903  0.90533760  1
  O  O296  1  0.24441458  0.73783195  0.37787734  1
  O  O297  1  0.25026903  0.73730978  0.87167165  1
  O  O298  1  0.74477605  0.24601136  0.38123634  1
  O  O299  1  0.76292879  0.23599828  0.88114320  1
  O  O300  1  0.75893984  0.74143781  0.38748338  1
  O  O301  1  0.74748658  0.75698471  0.88845888  1
  O  O302  1  -0.01081726  0.11452456  -0.00122935  1
  O  O303  1  0.00573445  0.10625657  0.49417820  1
  O  O304  1  0.00905351  0.61705783  0.00339509  1
  O  O305  1  0.00416706  0.61863591  0.50588325  1
  O  O306  1  0.48651836  0.12200185  0.02144208  1
  O  O307  1  0.50043702  0.13323459  0.50674611  1
  O  O308  1  0.49722193  0.62283682  -0.00026569  1
  O  O309  1  0.48975074  0.59685145  0.50014921  1
  O  O310  1  0.47976198  0.37963400  0.49253950  1
  O  O311  1  0.48992756  0.37046388  1.00223496  1
  O  O312  1  0.49485027  0.89011795  0.50775327  1
  O  O313  1  0.48417250  0.88439136  1.00967608  1
  O  O314  1  1.00672221  0.38694761  0.49021964  1
  O  O315  1  0.99159326  0.38558649  1.00744305  1
  O  O316  1  0.99443198  0.87640250  0.49668681  1
  O  O317  1  0.98733283  0.88263027  0.98843334  1
  O  O318  1  0.50681534  0.49647014  0.37371966  1
  O  O319  1  0.49290860  0.48815222  0.88258286  1
  O  O320  1  0.49737535  1.00496690  0.38402317  1
  O  O321  1  0.49852422  1.02150289  0.86600767  1
  O  O322  1  0.99073093  0.49553020  0.38049052  1
  O  O323  1  0.99338098  0.50401376  0.88574711  1
  O  O324  1  0.99868857  0.98167656  0.38447844  1
  O  O325  1  0.99341128  0.99712183  0.88440994  1
  O  O326  1  -0.00625313  -0.00606507  0.10668772  1
  O  O327  1  -0.00325910  -0.00703751  0.61186704  1
  O  O328  1  0.00433626  0.50571264  0.11540480  1
  O  O329  1  -0.01197124  0.50966133  0.61369364  1
  O  O330  1  0.50477742  0.01205744  0.13312355  1
  O  O331  1  0.51790480  -0.00117643  0.63328781  1
  O  O332  1  0.51283778  0.50907305  0.11592237  1
  O  O333  1  0.48409337  0.48246469  0.62513616  1
  O  O334  1  0.24114548  0.38094935  0.24283138  1
  O  O335  1  0.26491183  0.39082972  0.74833975  1
  O  O336  1  0.26156441  0.86515216  0.24412454  1
  O  O337  1  0.23400078  0.86546269  0.73354516  1
  O  O338  1  0.74272067  0.37965484  0.24170388  1
  O  O339  1  0.75049835  0.39320490  0.75740498  1
  O  O340  1  0.76224168  0.87356384  0.23457334  1
  O  O341  1  0.76306554  0.88763493  0.74054304  1
  O  O342  1  0.26495137  0.12997527  0.25266681  1
  O  O343  1  0.21099559  0.09359859  0.74701806  1
  O  O344  1  0.25168379  0.61364604  0.25481202  1
  O  O345  1  0.26015253  0.61737295  0.76636904  1
  O  O346  1  0.76059783  0.13487765  0.26295279  1
  O  O347  1  0.76238685  0.11807542  0.76181955  1
  O  O348  1  0.75456690  0.62017476  0.25891111  1
  O  O349  1  0.76532782  0.61685002  0.74246149  1
  O  O350  1  0.37985736  0.12482405  0.36113264  1
  O  O351  1  0.35803794  0.11400636  0.86467067  1
  O  O352  1  0.36434009  0.62970384  0.35892879  1
  O  O353  1  0.36700573  0.63154502  0.86661862  1
  O  O354  1  0.86216225  0.12388505  0.36893668  1
  O  O355  1  0.87109461  0.11532082  0.86610646  1
  O  O356  1  0.87181120  0.61483247  0.36851983  1
  O  O357  1  0.88357742  0.61781354  0.86519924  1
  O  O358  1  0.13081613  0.38146385  0.13523276  1
  O  O359  1  0.12820935  0.38324601  0.63351647  1
  O  O360  1  0.13071357  0.88649683  0.10954614  1
  O  O361  1  0.14267814  0.86439046  0.63980862  1
  O  O362  1  0.63169632  0.38818908  0.12982342  1
  O  O363  1  0.63139124  0.37593877  0.66250349  1
  O  O364  1  0.64057470  0.88162441  0.12320951  1
  O  O365  1  0.64129168  0.89020456  0.62572080  1
  O  O366  1  0.11127004  0.26369629  0.24392774  1
  O  O367  1  0.10640365  0.24246661  0.73920222  1
  O  O368  1  0.11884671  0.74029875  0.25845472  1
  O  O369  1  0.17085655  0.82735247  0.70512488  1
  O  O370  1  0.61838518  0.26057429  0.24895189  1
  O  O371  1  0.62376170  0.24125251  0.75686032  1
  O  O372  1  0.61923093  0.75947983  0.22356043  1
  O  O373  1  0.61333452  0.75121195  0.75081962  1
  O  O374  1  0.37882111  0.24093895  0.24693469  1
  O  O375  1  0.30767405  0.21509899  0.74820194  1
  O  O376  1  0.37682008  0.72762484  0.23669975  1
  O  O377  1  0.39260731  0.74482622  0.74936058  1
  O  O378  1  0.87763304  0.24830091  0.24096631  1
  O  O379  1  0.88173368  0.24428641  0.74299339  1
  O  O380  1  0.88153956  0.74218642  0.24425472  1
  O  O381  1  0.87142350  0.74297136  0.74239924  1
  O  O382  1  0.38101905  0.49135644  0.48755460  1
  O  O383  1  0.37391618  0.48627809  1.00182544  1
  O  O384  1  0.37137365  0.99759253  0.50191954  1
  O  O385  1  0.38256013  0.99797034  0.98254982  1
  O  O386  1  0.88323802  0.50626665  0.49022259  1
  O  O387  1  0.88205625  0.49553152  0.99401903  1
  O  O388  1  0.88395756  0.99061040  0.49874590  1
  O  O389  1  0.87939792  0.99407963  0.99143001  1
  O  O390  1  0.10914802  0.00752884  -0.00155353  1
  O  O391  1  0.11160128  -0.01783628  0.50317523  1
  O  O392  1  0.11770864  0.50126302  0.00141886  1
  O  O393  1  0.11165642  0.51213963  0.48977417  1
  O  O394  1  0.62083763  -0.00175897  0.01704289  1
  O  O395  1  0.62868052  0.00389272  0.51851768  1
  O  O396  1  0.63883190  0.49556661  0.00004655  1
  O  O397  1  0.59984802  0.47341045  0.50431252  1
  O  O398  1  0.36386160  0.35457857  0.13137229  1
  O  O399  1  0.36055624  0.38140637  0.60295228  1
  O  O400  1  0.38811595  0.85335490  0.13508886  1
  O  O401  1  0.37124238  0.85514121  0.62913039  1
  O  O402  1  0.86787015  0.36929651  0.11547140  1
  O  O403  1  0.86679769  0.35861154  0.63015474  1
  O  O404  1  0.86842249  0.87016439  0.11611441  1
  O  O405  1  0.87265380  0.87036689  0.62094564  1
  O  O406  1  0.12521261  0.10321764  0.39196726  1
  O  O407  1  0.12410169  0.14939217  0.87339352  1
  O  O408  1  0.12935306  0.63223259  0.37924658  1
  O  O409  1  0.13826542  0.62533796  0.88184876  1
  O  O410  1  0.63989684  0.13819683  0.36198606  1
  O  O411  1  0.64621793  0.12152026  0.87036650  1
  O  O412  1  0.64465810  0.61848695  0.39279742  1
  O  O413  1  0.62446687  0.65185532  0.87767487  1
