# generated using pymatgen
data_V79Zn79O256
_symmetry_space_group_name_H-M   'P 1'
_cell_length_a   16.89478484
_cell_length_b   16.92120413
_cell_length_c   16.90768514
_cell_angle_alpha   90.13353020
_cell_angle_beta   89.78855968
_cell_angle_gamma   90.02886894
_symmetry_Int_Tables_number   1
_chemical_formula_structural   V79Zn79O256
_chemical_formula_sum   'V79 Zn79 O256'
_cell_volume   4833.52413644
_cell_formula_units_Z   1
loop_
 _symmetry_equiv_pos_site_id
 _symmetry_equiv_pos_as_xyz
  1  'x, y, z'
loop_
 _atom_site_type_symbol
 _atom_site_label
 _atom_site_symmetry_multiplicity
 _atom_site_fract_x
 _atom_site_fract_y
 _atom_site_fract_z
 _atom_site_occupancy
  V  V0  1  0.63859930  0.74636794  0.87642029  1
  V  V1  1  0.86697864  0.00443967  0.86529799  1
  V  V2  1  0.75402721  0.37363960  0.12261435  1
  V  V3  1  0.12413604  0.75336812  0.88061036  1
  V  V4  1  0.37058983  0.49903366  0.36611457  1
  V  V5  1  0.60987566  0.37032701  0.75454606  1
  V  V6  1  0.25475167  0.75209539  0.49774055  1
  V  V7  1  0.87737350  0.00775112  0.37751722  1
  V  V8  1  0.25058445  0.87695482  0.12016705  1
  V  V9  1  0.37760218  0.75090566  0.62312351  1
  V  V10  1  0.86718459  0.87669103  0.00184717  1
  V  V11  1  0.05880212  0.56761216  0.67582282  1
  V  V12  1  0.63561358  -0.01321603  0.12577681  1
  V  V13  1  0.01896686  0.24363583  0.74876847  1
  V  V14  1  0.62634896  0.14143156  0.01139240  1
  V  V15  1  0.50176903  0.12868883  0.62575995  1
  V  V16  1  0.37921442  0.37497389  -0.00490890  1
  V  V17  1  0.87253396  0.87333108  0.51006832  1
  V  V18  1  0.24915739  0.62815939  0.37188390  1
  V  V19  1  0.62379901  0.12355902  0.49767178  1
  V  V20  1  0.62087571  0.50016955  0.62549938  1
  V  V21  1  0.12201919  0.24131907  0.38302526  1
  V  V22  1  0.50234784  0.76225170  0.75986660  1
  V  V23  1  -0.00067877  0.37755347  0.37415311  1
  V  V24  1  0.75127609  0.37341639  0.62707963  1
  V  V25  1  0.63424170  0.74202663  0.37295825  1
  V  V26  1  0.61955184  0.37923008  0.25352810  1
  V  V27  1  0.75297508  0.24538509  0.49668755  1
  V  V28  1  0.75072633  0.50415844  0.25554119  1
  V  V29  1  0.49893704  0.49694464  0.49123949  1
  V  V30  1  0.38564458  -0.00772706  0.88435813  1
  V  V31  1  0.38009964  0.88205477  0.49467691  1
  V  V32  1  0.49763902  0.74575832  0.24617904  1
  V  V33  1  0.00012270  0.75282644  0.73851375  1
  V  V34  1  0.24042931  0.38626011  0.63310777  1
  V  V35  1  0.62684016  0.24874030  0.37558360  1
  V  V36  1  0.24775412  0.12293942  0.88062597  1
  V  V37  1  0.12786807  0.88284941  0.25290407  1
  V  V38  1  -0.00443689  0.24072499  0.24453648  1
  V  V39  1  0.87652517  0.75825241  0.12915856  1
  V  V40  1  0.87339845  0.23564837  0.63824665  1
  V  V41  1  0.50759620  0.62414946  0.12222896  1
  V  V42  1  0.49729121  0.24717373  0.25498597  1
  V  V43  1  0.63110972  0.62033389  0.49367714  1
  V  V44  1  0.50690910  0.50090798  -0.00541221  1
  V  V45  1  0.73950938  -0.01111205  0.74201459  1
  V  V46  1  0.37242859  0.62572988  0.24240201  1
  V  V47  1  0.37168475  0.49788019  0.86822014  1
  V  V48  1  0.75360811  0.72343998  0.00644036  1
  V  V49  1  0.11566236  0.00963435  0.11527087  1
  V  V50  1  0.00626676  0.50510687  0.50244787  1
  V  V51  1  0.24615185  0.24593023  -0.00021880  1
  V  V52  1  0.87566443  0.37405950  -0.00355408  1
  V  V53  1  0.64460707  0.86724272  0.25107685  1
  V  V54  1  0.87126220  0.50681991  0.38003989  1
  V  V55  1  0.13491693  0.88003080  0.74656920  1
  V  V56  1  0.37097614  0.37499739  0.48828828  1
  V  V57  1  0.38348211  0.24006032  0.12470385  1
  V  V58  1  0.12258726  0.63607403  0.49634418  1
  V  V59  1  -0.00110920  0.88027780  0.88059557  1
  V  V60  1  0.75355948  0.02298400  0.25806521  1
  V  V61  1  0.61265285  0.24588174  0.86707832  1
  V  V62  1  0.87432709  0.23957613  0.12300080  1
  V  V63  1  0.01515366  0.37282113  0.87334103  1
  V  V64  1  0.74652283  0.50621889  0.75516334  1
  V  V65  1  0.74879113  0.75312479  0.51678917  1
  V  V66  1  0.87352220  0.63005911  0.25688745  1
  V  V67  1  0.87352543  0.62781077  0.74134948  1
  V  V68  1  0.25012337  0.62151241  0.86732502  1
  V  V69  1  0.25535108  0.75082599  0.00360629  1
  V  V70  1  0.00779271  0.75501303  0.25932424  1
  V  V71  1  0.25826861  -0.00308297  0.73925357  1
  V  V72  1  0.50128882  0.88497193  0.37146160  1
  V  V73  1  0.12459318  0.38929434  0.24605546  1
  V  V74  1  0.62023821  -0.01411101  0.61960643  1
  V  V75  1  0.87198773  0.50203926  0.87550297  1
  V  V76  1  0.37900544  0.25392054  0.63200657  1
  V  V77  1  0.24678197  0.38538166  0.12880297  1
  V  V78  1  0.11922258  0.61466203  0.00888391  1
  Zn  Zn79  1  0.37624935  0.62222714  0.74605117  1
  Zn  Zn80  1  0.63646716  0.50242912  0.11391979  1
  Zn  Zn81  1  0.74937516  0.13633347  0.86851802  1
  Zn  Zn82  1  0.49884877  0.62528011  0.62676439  1
  Zn  Zn83  1  0.08296255  0.18296957  0.93288817  1
  Zn  Zn84  1  0.00931842  0.88341896  0.39191017  1
  Zn  Zn85  1  0.87732122  0.37408417  0.50338656  1
  Zn  Zn86  1  0.39036326  0.86069522  -0.00042354  1
  Zn  Zn87  1  0.27137415  0.10094365  0.34533506  1
  Zn  Zn88  1  0.06143656  0.03905514  0.55920635  1
  Zn  Zn89  1  0.00764347  0.61479307  0.13064152  1
  Zn  Zn90  1  0.26263845  0.22162794  0.49094385  1
  Zn  Zn91  1  0.38344075  0.12837937  0.75737173  1
  Zn  Zn92  1  -0.00792491  0.02897920  0.00510863  1
  Zn  Zn93  1  0.50909054  -0.00390140  -0.00051501  1
  Zn  Zn94  1  0.18666535  0.19040156  0.19022586  1
  Zn  Zn95  1  0.20202528  0.18105825  0.67776782  1
  Zn  Zn96  1  0.19020259  0.68962407  0.18902873  1
  Zn  Zn97  1  0.19259251  0.69893718  0.68559584  1
  Zn  Zn98  1  0.68907390  0.19221359  0.19211848  1
  Zn  Zn99  1  0.69097322  0.17867522  0.69068630  1
  Zn  Zn100  1  0.69056374  0.68446549  0.18415386  1
  Zn  Zn101  1  0.68092282  0.68724336  0.69237843  1
  Zn  Zn102  1  0.29374548  0.28149849  0.29821851  1
  Zn  Zn103  1  0.30693784  0.31317230  0.81233045  1
  Zn  Zn104  1  0.32117732  0.92885571  0.29809001  1
  Zn  Zn105  1  0.31783141  0.81070586  0.81652919  1
  Zn  Zn106  1  0.81374684  0.31409867  0.31110042  1
  Zn  Zn107  1  0.80107436  0.31458083  0.81568441  1
  Zn  Zn108  1  0.82058843  0.81261889  0.32708738  1
  Zn  Zn109  1  0.81288252  0.81192287  0.81154721  1
  Zn  Zn110  1  0.18820305  0.43726152  0.43923538  1
  Zn  Zn111  1  0.19329646  0.43736499  0.94184223  1
  Zn  Zn112  1  0.19219531  0.94815008  0.44158946  1
  Zn  Zn113  1  0.18730044  0.94381940  0.93839091  1
  Zn  Zn114  1  0.68803667  0.43079737  0.43721889  1
  Zn  Zn115  1  0.68921789  0.42933591  0.93450520  1
  Zn  Zn116  1  0.68954022  0.93664104  0.43528000  1
  Zn  Zn117  1  0.68591254  0.92542451  0.93394214  1
  Zn  Zn118  1  0.31106928  0.05842819  0.06767980  1
  Zn  Zn119  1  0.32475035  0.07419559  0.53500125  1
  Zn  Zn120  1  0.31437868  0.56538801  0.05704499  1
  Zn  Zn121  1  0.30894651  0.56254323  0.56288384  1
  Zn  Zn122  1  0.80305148  0.06128983  0.05361515  1
  Zn  Zn123  1  0.81053412  0.05865518  0.56220867  1
  Zn  Zn124  1  0.84762009  0.54919076  0.07879670  1
  Zn  Zn125  1  0.81142759  0.56475785  0.56481627  1
  Zn  Zn126  1  0.43606393  0.43730494  0.18069698  1
  Zn  Zn127  1  0.43275649  0.43717612  0.68194641  1
  Zn  Zn128  1  0.45532738  0.91524350  0.15736626  1
  Zn  Zn129  1  0.43927683  0.93819459  0.68285087  1
  Zn  Zn130  1  0.94099517  0.43736019  0.18745499  1
  Zn  Zn131  1  0.93526687  0.42739345  0.69642057  1
  Zn  Zn132  1  0.93693941  0.94326560  0.19036019  1
  Zn  Zn133  1  0.93744522  0.93463692  0.68514658  1
  Zn  Zn134  1  0.06099908  0.06172374  0.31146777  1
  Zn  Zn135  1  0.04166551  0.04699716  0.76413880  1
  Zn  Zn136  1  0.06123299  0.56806649  0.31671932  1
  Zn  Zn137  1  0.05746375  0.56114456  0.84226021  1
  Zn  Zn138  1  0.48477863  0.03881838  0.25998246  1
  Zn  Zn139  1  0.56310336  0.05911878  0.80608216  1
  Zn  Zn140  1  0.56006096  0.56081658  0.31111939  1
  Zn  Zn141  1  0.55957298  0.57293823  0.81540092  1
  Zn  Zn142  1  0.44126068  0.18724859  0.43573531  1
  Zn  Zn143  1  0.44342866  0.17893191  0.94025016  1
  Zn  Zn144  1  0.44154952  0.68579587  0.43220551  1
  Zn  Zn145  1  0.43991218  0.68082723  0.93499596  1
  Zn  Zn146  1  0.94182786  0.18348759  0.44761302  1
  Zn  Zn147  1  0.92185556  0.19343010  0.93236877  1
  Zn  Zn148  1  0.93857147  0.69440089  0.44474718  1
  Zn  Zn149  1  0.93691336  0.68862996  0.93422271  1
  Zn  Zn150  1  0.05976297  0.31656031  0.06291534  1
  Zn  Zn151  1  0.05737642  0.31098833  0.56699094  1
  Zn  Zn152  1  0.05993016  0.81259648  0.06784498  1
  Zn  Zn153  1  0.07788613  0.84187479  0.55174771  1
  Zn  Zn154  1  0.56365953  0.31836586  0.06481291  1
  Zn  Zn155  1  0.55994537  0.31447825  0.56027939  1
  Zn  Zn156  1  0.57372452  0.80916066  0.05780188  1
  Zn  Zn157  1  0.55651760  0.80607593  0.55789090  1
  O  O158  1  0.13519621  0.10750646  0.13227788  1
  O  O159  1  0.16074693  0.10993911  0.59233246  1
  O  O160  1  0.12645275  0.62752818  0.11301474  1
  O  O161  1  0.12428941  0.62601037  0.61935766  1
  O  O162  1  0.63451157  0.13083396  0.11290071  1
  O  O163  1  0.61779462  0.12415753  0.61633356  1
  O  O164  1  0.61427851  0.61569803  0.13069272  1
  O  O165  1  0.62552846  0.61149132  0.61692874  1
  O  O166  1  0.36622241  0.38297152  0.38491638  1
  O  O167  1  0.36463717  0.38184134  0.88659054  1
  O  O168  1  0.39393007  0.87153400  0.37735864  1
  O  O169  1  0.37039952  0.88763452  0.88507725  1
  O  O170  1  0.88485624  0.38592528  0.37657112  1
  O  O171  1  0.87404992  0.37760580  0.88158280  1
  O  O172  1  0.87893796  0.88498002  0.38845212  1
  O  O173  1  0.88089543  0.88147137  0.88174456  1
  O  O174  1  0.25804651  -0.00623191  0.36665732  1
  O  O175  1  0.26369404  0.01011072  0.87669173  1
  O  O176  1  0.26080377  0.51251717  0.38175069  1
  O  O177  1  0.25879368  0.50973166  0.88030541  1
  O  O178  1  0.75806356  -0.00299252  0.36386978  1
  O  O179  1  0.75763085  -0.00860625  0.86894355  1
  O  O180  1  0.76186032  0.49234021  0.37030013  1
  O  O181  1  0.75547631  0.49238847  0.86249926  1
  O  O182  1  0.25513565  0.48377258  0.11792181  1
  O  O183  1  0.25644814  0.48696343  0.62883896  1
  O  O184  1  0.23608526  0.98446904  0.11430982  1
  O  O185  1  0.26771250  0.99662254  0.64291010  1
  O  O186  1  0.75659907  0.49213394  0.13846223  1
  O  O187  1  0.73979328  0.49275717  0.63083472  1
  O  O188  1  0.74399453  1.01093446  0.14182625  1
  O  O189  1  0.73760790  1.00063928  0.63440006  1
  O  O190  1  0.00415973  0.37355047  0.25766605  1
  O  O191  1  -0.00344121  0.35989682  0.76476871  1
  O  O192  1  0.00761040  0.86434224  0.24660550  1
  O  O193  1  0.01165094  0.86992631  0.76228914  1
  O  O194  1  0.51514807  0.37325290  0.23998396  1
  O  O195  1  0.51209424  0.37881494  0.74327655  1
  O  O196  1  0.51631049  0.86123532  0.25544503  1
  O  O197  1  0.49934364  0.86098410  0.74381107  1
  O  O198  1  0.49948649  0.14871217  0.25007609  1
  O  O199  1  0.49764616  0.12154045  0.73215953  1
  O  O200  1  0.49455056  0.62612457  0.24175265  1
  O  O201  1  0.49668712  0.63937471  0.74583199  1
  O  O202  1  1.00082941  0.14262962  0.25026250  1
  O  O203  1  0.99227241  0.14821830  0.76410127  1
  O  O204  1  0.99498845  0.63842408  0.25196025  1
  O  O205  1  1.00027663  0.62896846  0.74386137  1
  O  O206  1  0.37538228  0.25547988  0.00907070  1
  O  O207  1  0.38379667  0.27156554  0.50263162  1
  O  O208  1  0.36059290  0.74618735  -0.00722501  1
  O  O209  1  0.37465441  0.74986565  0.50463397  1
  O  O210  1  0.87190363  0.26131838  0.01316650  1
  O  O211  1  0.86810009  0.25319285  0.51258531  1
  O  O212  1  0.86916070  0.75303144  0.00637209  1
  O  O213  1  0.85472359  0.75254256  0.49831870  1
  O  O214  1  0.10325921  0.24812107  0.48202213  1
  O  O215  1  0.14144125  0.25528363  1.00278605  1
  O  O216  1  0.13674477  0.74359722  0.50769337  1
  O  O217  1  0.13106784  0.74658846  0.99139022  1
  O  O218  1  0.63177292  0.24901417  0.49520876  1
  O  O219  1  0.61986288  0.24538328  0.99184693  1
  O  O220  1  0.63149015  0.73994681  0.49412135  1
  O  O221  1  0.64890643  0.73995715  1.00484072  1
  O  O222  1  0.48985646  0.25534358  0.13009545  1
  O  O223  1  0.48823759  0.24618756  0.61984658  1
  O  O224  1  0.51175911  0.73751887  0.13408866  1
  O  O225  1  0.49559080  0.74594731  0.63318745  1
  O  O226  1  0.98858871  0.25694665  0.13505563  1
  O  O227  1  0.98307834  0.25937223  0.64063796  1
  O  O228  1  0.99081960  0.74498186  0.13537273  1
  O  O229  1  1.00903099  0.76245081  0.64156409  1
  O  O230  1  -0.00059779  0.25931009  0.36429563  1
  O  O231  1  0.00726311  0.25876010  0.86677964  1
  O  O232  1  -0.00301996  0.75474444  0.36165506  1
  O  O233  1  0.00933626  0.75798812  0.86889777  1
  O  O234  1  0.50538885  0.25482296  0.36275854  1
  O  O235  1  0.51149564  0.25135393  0.87837699  1
  O  O236  1  0.51461339  0.74916981  0.36429094  1
  O  O237  1  0.49074180  0.75307689  0.86195444  1
  O  O238  1  0.21220491  0.11160591  0.52505346  1
  O  O239  1  0.25531173  0.13075084  0.98974771  1
  O  O240  1  0.24115227  0.62992086  0.49544999  1
  O  O241  1  0.24034325  0.63300142  0.99386821  1
  O  O242  1  0.73983048  0.13886935  0.50835307  1
  O  O243  1  0.72653876  0.11503669  0.98487890  1
  O  O244  1  0.73932979  0.63357151  0.50509638  1
  O  O245  1  0.76815702  0.62624820  1.00851801  1
  O  O246  1  0.25795288  0.36605885  0.00782278  1
  O  O247  1  0.26608528  0.38243859  0.50879532  1
  O  O248  1  0.24476177  0.86544653  0.00554103  1
  O  O249  1  0.27255027  0.86318084  0.48597759  1
  O  O250  1  0.75628323  0.37908737  0.01378777  1
  O  O251  1  0.74989757  0.36690522  0.51250392  1
  O  O252  1  0.76572555  0.86781301  -0.00140427  1
  O  O253  1  0.75296189  0.85924985  0.49758795  1
  O  O254  1  0.11715940  0.48945088  0.25196313  1
  O  O255  1  0.11099476  0.51665456  0.74180047  1
  O  O256  1  0.11652091  0.98730236  0.23811760  1
  O  O257  1  0.14407504  0.98824940  0.75953455  1
  O  O258  1  0.63595069  0.49410117  0.25461716  1
  O  O259  1  0.62668109  0.49479751  0.74522537  1
  O  O260  1  0.65013557  0.98460430  0.24912505  1
  O  O261  1  0.62874783  0.99277132  0.73533266  1
  O  O262  1  0.39305680  -0.01810395  0.22916383  1
  O  O263  1  0.36902680  -0.00707144  0.76253160  1
  O  O264  1  0.38177630  0.50711125  0.25836807  1
  O  O265  1  0.38449381  0.49974765  0.76454711  1
  O  O266  1  0.86065881  -0.00386093  0.25959666  1
  O  O267  1  0.86364125  -0.00665949  0.76095463  1
  O  O268  1  0.86978237  0.50925368  0.26208037  1
  O  O269  1  0.86490979  0.50400928  0.75492627  1
  O  O270  1  0.11260306  0.37486651  0.36859144  1
  O  O271  1  0.11392794  0.38195249  0.87901137  1
  O  O272  1  0.12451487  0.87847167  0.35439748  1
  O  O273  1  0.11877921  0.86992546  0.87340089  1
  O  O274  1  0.62848322  0.36456837  0.36470832  1
  O  O275  1  0.62300042  0.36849853  0.86009019  1
  O  O276  1  0.61988028  0.86335292  0.36956447  1
  O  O277  1  0.61241185  0.84503307  0.90144736  1
  O  O278  1  0.37381898  0.14121593  0.12091107  1
  O  O279  1  0.38433490  0.13952577  0.61568841  1
  O  O280  1  0.38397950  0.61710123  0.13526137  1
  O  O281  1  0.37611434  0.63500311  0.62503483  1
  O  O282  1  0.86586541  0.14135222  0.11568089  1
  O  O283  1  0.86765323  0.13721396  0.62567298  1
  O  O284  1  0.87512547  0.64285790  0.14558194  1
  O  O285  1  0.87609629  0.62086543  0.64073519  1
  O  O286  1  0.26336613  0.25735393  0.11536429  1
  O  O287  1  0.26812763  0.25176653  0.60887643  1
  O  O288  1  0.23682586  0.76124605  0.11149031  1
  O  O289  1  0.26411922  0.74941638  0.61166911  1
  O  O290  1  0.76519574  0.26286211  0.13933914  1
  O  O291  1  0.75482104  0.25568169  0.62075777  1
  O  O292  1  0.76185253  0.74594153  0.11475938  1
  O  O293  1  0.73896914  0.75062492  0.61586571  1
  O  O294  1  0.22476711  0.26897948  0.39019507  1
  O  O295  1  0.26294100  0.23383755  0.88438937  1
  O  O296  1  0.25831384  0.73277503  0.38988071  1
  O  O297  1  0.24196059  0.74432179  0.88268584  1
  O  O298  1  0.74536760  0.25898441  0.38747244  1
  O  O299  1  0.72701682  0.25148603  0.87265763  1
  O  O300  1  0.73725985  0.74779934  0.38225703  1
  O  O301  1  0.74604716  0.74612343  0.88715863  1
  O  O302  1  0.00009785  0.13951293  -0.00752060  1
  O  O303  1  0.00745983  0.12379762  0.51147175  1
  O  O304  1  0.01701540  0.63328589  -0.00256538  1
  O  O305  1  0.00988935  0.62079014  0.49735802  1
  O  O306  1  0.52366807  0.11287479  -0.00359689  1
  O  O307  1  0.51422789  0.13030613  0.50783404  1
  O  O308  1  0.49225629  0.61169802  0.01047840  1
  O  O309  1  0.51189813  0.61450394  0.50192203  1
  O  O310  1  0.48845337  0.38868521  0.50455843  1
  O  O311  1  0.48947400  0.38868666  1.00695950  1
  O  O312  1  0.49558011  0.86610422  0.47950682  1
  O  O313  1  0.49223260  0.88873912  1.04450255  1
  O  O314  1  0.99864594  0.38717739  0.49246560  1
  O  O315  1  0.98973692  0.36580794  0.98403228  1
  O  O316  1  0.97534292  0.84856707  0.49914061  1
  O  O317  1  0.99051452  0.86977339  0.98847302  1
  O  O318  1  0.48814645  0.50342777  0.38262228  1
  O  O319  1  0.49095096  0.50810727  0.88911317  1
  O  O320  1  0.51157277  0.98333561  0.36218861  1
  O  O321  1  0.48911730  0.99979476  0.87375180  1
  O  O322  1  0.99175475  0.49658392  0.38321944  1
  O  O323  1  0.98538540  0.48010236  0.86730284  1
  O  O324  1  0.98342735  0.99586403  0.36468034  1
  O  O325  1  0.98543152  0.99143731  0.86598676  1
  O  O326  1  0.00930427  0.00112107  0.12244048  1
  O  O327  1  0.01567797  0.00845121  0.65933661  1
  O  O328  1  -0.04175817  0.51538709  0.11235644  1
  O  O329  1  -0.00114304  0.49915174  0.62200834  1
  O  O330  1  0.53822633  0.01162690  0.15103947  1
  O  O331  1  0.51393427  0.00864321  0.62373665  1
  O  O332  1  0.50247426  0.50579462  0.11240592  1
  O  O333  1  0.50879588  0.50030971  0.61551738  1
  O  O334  1  0.24210979  0.36943018  0.23540407  1
  O  O335  1  0.24840659  0.36439031  0.73209281  1
  O  O336  1  0.23531284  0.86980698  0.23328787  1
  O  O337  1  0.24317098  0.88289021  0.76256953  1
  O  O338  1  0.74522226  0.38470314  0.24458468  1
  O  O339  1  0.73800946  0.38590184  0.74094291  1
  O  O340  1  0.74435174  0.85824455  0.25316728  1
  O  O341  1  0.75017463  0.88760813  0.75336585  1
  O  O342  1  0.26962067  0.17262677  0.26242684  1
  O  O343  1  0.25980083  0.11158486  0.75754984  1
  O  O344  1  0.26072773  0.63273010  0.25749910  1
  O  O345  1  0.25124146  0.63512420  0.76426650  1
  O  O346  1  0.74713745  0.12183371  0.26102116  1
  O  O347  1  0.74100793  0.10104235  0.75731841  1
  O  O348  1  0.75883628  0.61460775  0.24994724  1
  O  O349  1  0.75492827  0.61439811  0.74664754  1
  O  O350  1  0.33750423  0.13973808  0.43441977  1
  O  O351  1  0.37239688  0.11278488  0.87390403  1
  O  O352  1  0.37065006  0.61720882  0.36525729  1
  O  O353  1  0.36492166  0.61518223  0.87446114  1
  O  O354  1  0.87557359  0.10751270  0.38782823  1
  O  O355  1  0.86679385  0.10748513  0.87902237  1
  O  O356  1  0.88136216  0.61865550  0.36850323  1
  O  O357  1  0.88791056  0.60937304  0.86333566  1
  O  O358  1  0.13761965  0.37155018  0.12936559  1
  O  O359  1  0.14256528  0.37080024  0.61061780  1
  O  O360  1  0.12731342  0.88406372  0.12954361  1
  O  O361  1  0.13433959  0.86573377  0.64964518  1
  O  O362  1  0.63743616  0.37869022  0.13290121  1
  O  O363  1  0.62999662  0.38144388  0.63257720  1
  O  O364  1  0.63310225  0.88141997  0.13557647  1
  O  O365  1  0.61839354  0.88799593  0.60971520  1
  O  O366  1  0.10930914  0.26416973  0.25590962  1
  O  O367  1  0.11734944  0.23868586  0.73214091  1
  O  O368  1  0.11234770  0.75859960  0.24380122  1
  O  O369  1  0.12310515  0.75874741  0.76303535  1
  O  O370  1  0.61690513  0.25899549  0.25487895  1
  O  O371  1  0.62305022  0.26155437  0.75264507  1
  O  O372  1  0.62279983  0.74802701  0.25567838  1
  O  O373  1  0.61777607  0.75012960  0.76594406  1
  O  O374  1  0.39235592  0.26965352  0.23686468  1
  O  O375  1  0.37177059  0.24862119  0.73442711  1
  O  O376  1  0.39362698  0.73638872  0.25272250  1
  O  O377  1  0.38274620  0.75272597  0.73985817  1
  O  O378  1  0.88601750  0.25663633  0.23972997  1
  O  O379  1  0.86260973  0.25137932  0.73888183  1
  O  O380  1  0.88356456  0.74920174  0.24933995  1
  O  O381  1  0.88690859  0.73873206  0.76152557  1
  O  O382  1  0.38187531  0.49553559  0.49175738  1
  O  O383  1  0.38155570  0.49242672  0.99125808  1
  O  O384  1  0.38097867  0.97986550  0.50427031  1
  O  O385  1  0.38147919  1.00197853  0.99127854  1
  O  O386  1  0.88403014  0.50388137  0.49521458  1
  O  O387  1  0.86630541  0.48684076  0.98303031  1
  O  O388  1  0.86273758  0.98505611  0.49020606  1
  O  O389  1  0.87651101  0.99276082  0.99101930  1
  O  O390  1  0.11492294  -0.00003291  0.00937361  1
  O  O391  1  0.10287104  -0.05340486  0.50517912  1
  O  O392  1  0.12646482  0.51564733  -0.00510456  1
  O  O393  1  0.11293194  0.51175356  0.49698205  1
  O  O394  1  0.63213940  -0.00803988  0.01918136  1
  O  O395  1  0.63868838  0.01152462  0.51049205  1
  O  O396  1  0.61079502  0.49131791  -0.00493298  1
  O  O397  1  0.62087216  0.50110272  0.50394535  1
  O  O398  1  0.36437917  0.36972113  0.11497411  1
  O  O399  1  0.36947845  0.36596379  0.61818188  1
  O  O400  1  0.35121726  0.86970958  0.11923110  1
  O  O401  1  0.38996131  0.86294941  0.60488841  1
  O  O402  1  0.87023512  0.36992347  0.11616273  1
  O  O403  1  0.86167606  0.37075288  0.62607922  1
  O  O404  1  0.88389331  0.86634508  0.11677093  1
  O  O405  1  0.87066364  0.88274570  0.61040792  1
  O  O406  1  0.12671818  0.14110681  0.36370588  1
  O  O407  1  0.14771852  0.11834304  0.86601690  1
  O  O408  1  0.13523064  0.62398819  0.38458166  1
  O  O409  1  0.13166532  0.63434202  0.88510099  1
  O  O410  1  0.62347401  0.14458670  0.38653300  1
  O  O411  1  0.61968093  0.13882306  0.87082757  1
  O  O412  1  0.62224524  0.62741403  0.38442314  1
  O  O413  1  0.61072679  0.64768489  0.88633680  1
