# generated using pymatgen
data_V79Zn79O256
_symmetry_space_group_name_H-M   'P 1'
_cell_length_a   16.86341407
_cell_length_b   16.87512847
_cell_length_c   16.86268589
_cell_angle_alpha   89.86806130
_cell_angle_beta   89.99036153
_cell_angle_gamma   90.12598952
_symmetry_Int_Tables_number   1
_chemical_formula_structural   V79Zn79O256
_chemical_formula_sum   'V79 Zn79 O256'
_cell_volume   4798.62855671
_cell_formula_units_Z   1
loop_
 _symmetry_equiv_pos_site_id
 _symmetry_equiv_pos_as_xyz
  1  'x, y, z'
loop_
 _atom_site_type_symbol
 _atom_site_label
 _atom_site_symmetry_multiplicity
 _atom_site_fract_x
 _atom_site_fract_y
 _atom_site_fract_z
 _atom_site_occupancy
  V  V0  1  0.25198801  0.37537953  0.12298115  1
  V  V1  1  0.25031497  0.87240275  0.12341702  1
  V  V2  1  0.86748810  0.24639710  0.13181664  1
  V  V3  1  0.25148524  0.00501429  0.74659356  1
  V  V4  1  0.22703137  0.37973759  0.62812244  1
  V  V5  1  0.50186021  -0.01028869  0.49692081  1
  V  V6  1  0.38295302  0.74850980  0.12891894  1
  V  V7  1  0.12137689  -0.00188900  0.11847867  1
  V  V8  1  0.87388874  0.23378529  0.63120715  1
  V  V9  1  0.36866204  0.75112612  0.63390353  1
  V  V10  1  0.49700720  0.24493930  0.74821029  1
  V  V11  1  0.00020565  0.88038966  0.88322629  1
  V  V12  1  0.49438028  0.38017952  0.37813114  1
  V  V13  1  -0.02093032  0.37420428  0.37841088  1
  V  V14  1  0.51056667  0.77027657  0.75390592  1
  V  V15  1  0.12233166  0.86856342  0.25161004  1
  V  V16  1  0.36626326  0.86722134  0.50426805  1
  V  V17  1  0.87207570  0.74441018  0.12670513  1
  V  V18  1  0.87111135  -0.00168605  0.35775774  1
  V  V19  1  0.25078253  0.25088108  -0.00405636  1
  V  V20  1  0.37570171  -0.00839766  0.37658060  1
  V  V21  1  0.00691447  0.24708012  0.25325343  1
  V  V22  1  0.63051684  0.11996901  0.00434656  1
  V  V23  1  0.24632588  0.62980833  0.39118307  1
  V  V24  1  0.87160338  0.88043428  0.51238802  1
  V  V25  1  0.62128253  0.61744990  0.50583241  1
  V  V26  1  -0.00842968  0.50993047  0.48939224  1
  V  V27  1  0.74633791  0.88714424  0.13625641  1
  V  V28  1  0.26275979  0.60819905  0.86704694  1
  V  V29  1  0.87453694  0.01418647  0.87968539  1
  V  V30  1  0.75605508  0.38562260  0.62316025  1
  V  V31  1  0.63564848  0.38819475  0.24037257  1
  V  V32  1  0.11713042  0.51919555  0.62365260  1
  V  V33  1  0.12789721  0.37343413  0.26251648  1
  V  V34  1  0.62541930  0.12165132  0.50258339  1
  V  V35  1  0.75106532  0.61372811  0.37113380  1
  V  V36  1  0.87691012  0.38266934  0.00000058  1
  V  V37  1  0.63024507  0.38674887  0.74156930  1
  V  V38  1  -0.00860268  0.74956535  0.75309443  1
  V  V39  1  0.75566605  0.00155573  0.75766780  1
  V  V40  1  0.24654809  0.12739465  0.37740619  1
  V  V41  1  0.12453932  0.25454674  0.86304654  1
  V  V42  1  0.25594032  0.50144578  0.24938848  1
  V  V43  1  0.62589416  0.76722102  0.88115821  1
  V  V44  1  0.50177109  0.38043184  0.87333890  1
  V  V45  1  0.50525823  0.62162294  0.63945161  1
  V  V46  1  0.24853863  -0.00297942  0.25143616  1
  V  V47  1  0.11217886  0.50074334  0.12144973  1
  V  V48  1  -0.00975743  0.23788999  0.74641428  1
  V  V49  1  0.38264797  0.87507752  -0.00684359  1
  V  V50  1  0.75767894  0.25097898  0.50037082  1
  V  V51  1  0.38544952  0.00675391  0.86658278  1
  V  V52  1  0.12963294  0.87708871  0.75044526  1
  V  V53  1  0.51031795  0.61807426  0.11946026  1
  V  V54  1  0.75483557  0.24525726  -0.01975768  1
  V  V55  1  0.63102201  -0.01666995  0.63429230  1
  V  V56  1  0.37628163  0.26587093  0.61508676  1
  V  V57  1  0.50068064  0.00786251  0.01771106  1
  V  V58  1  0.74822074  0.61376598  0.87230837  1
  V  V59  1  0.11683548  0.00298753  0.62608350  1
  V  V60  1  0.87178250  0.60817105  0.24801539  1
  V  V61  1  0.00120522  0.12424314  0.12897018  1
  V  V62  1  0.74765596  0.75655890  0.50277814  1
  V  V63  1  0.38250005  0.24344354  0.12172383  1
  V  V64  1  0.38042570  0.12297919  0.24626311  1
  V  V65  1  0.75265897  0.11979883  0.36293963  1
  V  V66  1  -0.00276681  0.38512251  0.86940326  1
  V  V67  1  0.11124126  0.62184899  0.00138475  1
  V  V68  1  0.61365468  0.88348825  0.25191656  1
  V  V69  1  0.12079430  0.13277616  0.50027627  1
  V  V70  1  -0.00119080  0.74346642  0.24836631  1
  V  V71  1  0.25342864  0.74467862  -0.00394670  1
  V  V72  1  0.37917050  0.38283910  -0.00567642  1
  V  V73  1  0.62257300  0.24891967  0.37125614  1
  V  V74  1  0.12380470  0.12458775  -0.00144629  1
  V  V75  1  0.87359275  0.87575396  0.00184431  1
  V  V76  1  0.38024374  0.62593393  0.25126524  1
  V  V77  1  0.49002923  0.12068784  0.62748139  1
  V  V78  1  0.61087306  0.75241256  0.36866920  1
  Zn  Zn79  1  0.25283455  0.26179413  0.48957392  1
  Zn  Zn80  1  0.51393012  0.50141177  0.00251470  1
  Zn  Zn81  1  0.12529534  0.74701158  0.87491644  1
  Zn  Zn82  1  0.25592773  0.13002569  0.86707035  1
  Zn  Zn83  1  -0.00566531  0.63698714  0.60857796  1
  Zn  Zn84  1  0.86751273  0.60547585  0.74620839  1
  Zn  Zn85  1  -0.00566578  0.00607687  0.50407268  1
  Zn  Zn86  1  0.36515826  0.49288283  0.39795097  1
  Zn  Zn87  1  0.11276995  0.72696931  0.40938796  1
  Zn  Zn88  1  0.50265879  0.24929111  0.24297954  1
  Zn  Zn89  1  0.49712402  0.48454638  0.51795648  1
  Zn  Zn90  1  0.73874069  0.74592734  0.00444950  1
  Zn  Zn91  1  -0.00378843  0.87245488  0.37648003  1
  Zn  Zn92  1  0.86096629  0.75238343  0.63587223  1
  Zn  Zn93  1  0.63232567  0.24074194  0.86211631  1
  Zn  Zn94  1  0.19136348  0.18696362  0.18818217  1
  Zn  Zn95  1  0.19132333  0.18785897  0.68235897  1
  Zn  Zn96  1  0.18966506  0.68442880  0.18601437  1
  Zn  Zn97  1  0.18229802  0.68870794  0.68960615  1
  Zn  Zn98  1  0.68193707  0.18390587  0.18396599  1
  Zn  Zn99  1  0.68680379  0.18459252  0.68983585  1
  Zn  Zn100  1  0.68954087  0.69170157  0.19126945  1
  Zn  Zn101  1  0.68578004  0.68976407  0.69455412  1
  Zn  Zn102  1  0.31490265  0.31021217  0.30965409  1
  Zn  Zn103  1  0.31512137  0.31940505  0.80568149  1
  Zn  Zn104  1  0.31149312  0.80823718  0.31604239  1
  Zn  Zn105  1  0.31515012  0.81217997  0.81208883  1
  Zn  Zn106  1  0.80819411  0.30826875  0.30767411  1
  Zn  Zn107  1  0.81604971  0.43724767  0.80898989  1
  Zn  Zn108  1  0.80811244  0.80864141  0.31632671  1
  Zn  Zn109  1  0.80360812  0.82214538  0.81433391  1
  Zn  Zn110  1  0.18681833  0.44559364  0.44799295  1
  Zn  Zn111  1  0.18387157  0.43737806  0.93442485  1
  Zn  Zn112  1  0.16709517  0.90611869  0.46136746  1
  Zn  Zn113  1  0.19522541  0.93783007  0.93336541  1
  Zn  Zn114  1  0.68351290  0.43251701  0.43768174  1
  Zn  Zn115  1  0.68964127  0.42513980  0.93373551  1
  Zn  Zn116  1  0.68684029  0.93659654  0.43231751  1
  Zn  Zn117  1  0.69033523  0.93939134  0.94316113  1
  Zn  Zn118  1  0.31026453  0.06058451  0.05962267  1
  Zn  Zn119  1  0.30578870  0.05613478  0.56119133  1
  Zn  Zn120  1  0.31275117  0.56379504  0.06261897  1
  Zn  Zn121  1  0.32945677  0.54459387  0.59549150  1
  Zn  Zn122  1  0.81501411  0.06363855  0.06439410  1
  Zn  Zn123  1  0.80625688  0.06168947  0.56212363  1
  Zn  Zn124  1  0.79783878  0.56294335  0.05924035  1
  Zn  Zn125  1  0.81813536  0.56841939  0.56181566  1
  Zn  Zn126  1  0.44486890  0.43383594  0.18798670  1
  Zn  Zn127  1  0.43559654  0.44182186  0.70005542  1
  Zn  Zn128  1  0.43608766  0.93450868  0.18853167  1
  Zn  Zn129  1  0.43928655  0.93760634  0.68501217  1
  Zn  Zn130  1  0.93476512  0.42781601  0.18687075  1
  Zn  Zn131  1  0.94558755  0.42841673  0.67806452  1
  Zn  Zn132  1  0.93984221  0.93365755  0.18400359  1
  Zn  Zn133  1  0.93647882  0.94076200  0.69566687  1
  Zn  Zn134  1  0.06145196  0.05601541  0.31579733  1
  Zn  Zn135  1  0.06175023  0.06328742  0.81496365  1
  Zn  Zn136  1  0.06266061  0.56009376  0.31151819  1
  Zn  Zn137  1  0.06983844  0.56491639  0.81170683  1
  Zn  Zn138  1  0.56167686  0.06135255  0.31280712  1
  Zn  Zn139  1  0.56888642  0.06256291  0.81486740  1
  Zn  Zn140  1  0.56425174  0.56176013  0.31062312  1
  Zn  Zn141  1  0.57139137  0.56763223  0.81756487  1
  Zn  Zn142  1  0.43780273  0.18253225  0.43612287  1
  Zn  Zn143  1  0.44302016  0.18758937  0.93378873  1
  Zn  Zn144  1  0.42967622  0.67765681  0.44407216  1
  Zn  Zn145  1  0.44304231  0.68387348  0.93388367  1
  Zn  Zn146  1  0.93545832  0.18464454  0.43421131  1
  Zn  Zn147  1  0.94327439  0.19534680  0.94137888  1
  Zn  Zn148  1  0.92878221  0.69083425  0.43056257  1
  Zn  Zn149  1  0.92699986  0.68736380  0.93261290  1
  Zn  Zn150  1  0.06105251  0.31375633  0.06130481  1
  Zn  Zn151  1  0.05627515  0.31102267  0.55706647  1
  Zn  Zn152  1  0.05901838  0.80551834  0.06416482  1
  Zn  Zn153  1  0.05769778  0.81735511  0.57131815  1
  Zn  Zn154  1  0.56864517  0.30844708  0.05848109  1
  Zn  Zn155  1  0.56741563  0.30803692  0.56288298  1
  Zn  Zn156  1  0.56252573  0.81571319  0.06509921  1
  Zn  Zn157  1  0.56007612  0.80667901  0.56066551  1
  O  O158  1  0.12297969  0.11788090  0.11915545  1
  O  O159  1  0.13113977  0.11748898  0.60977036  1
  O  O160  1  0.12825155  0.61155279  0.11552081  1
  O  O161  1  0.11547522  0.62396707  0.61952029  1
  O  O162  1  0.61887146  0.13421411  0.10526498  1
  O  O163  1  0.61673507  0.11926550  0.61272058  1
  O  O164  1  0.60784097  0.63591238  0.13406603  1
  O  O165  1  0.61914249  0.63314013  0.61381615  1
  O  O166  1  0.38938781  0.37274576  0.37285240  1
  O  O167  1  0.38779862  0.37043921  0.88138241  1
  O  O168  1  0.37116207  0.88095960  0.38647762  1
  O  O169  1  0.37097782  0.88588091  0.88753399  1
  O  O170  1  0.88025730  0.37609271  0.36914408  1
  O  O171  1  0.88476592  0.38052635  0.88784447  1
  O  O172  1  0.86959128  0.88701683  0.38134677  1
  O  O173  1  0.88104144  0.88027245  0.88624916  1
  O  O174  1  0.26240200  0.00647246  0.36947262  1
  O  O175  1  0.26208344  0.00520091  0.86803621  1
  O  O176  1  0.24986792  0.50666634  0.36512354  1
  O  O177  1  0.24949623  0.50753785  0.87635258  1
  O  O178  1  0.76112630  0.00622206  0.37856894  1
  O  O179  1  0.76167587  -0.00102352  0.87039745  1
  O  O180  1  0.74386978  0.51501403  0.38374484  1
  O  O181  1  0.74626472  0.50689903  0.87428828  1
  O  O182  1  0.24553776  0.49379131  0.13255292  1
  O  O183  1  0.22299796  0.49116099  0.61280859  1
  O  O184  1  0.24272989  0.99294418  0.12988140  1
  O  O185  1  0.23914520  0.99990764  0.63758320  1
  O  O186  1  0.69252875  0.50341442  0.08315628  1
  O  O187  1  0.75579257  0.48401818  0.61213862  1
  O  O188  1  0.75502750  0.98663009  0.12609199  1
  O  O189  1  0.73600260  1.00217191  0.63144457  1
  O  O190  1  0.00745281  0.36924537  0.26047354  1
  O  O191  1  -0.00682481  0.35975193  0.76477207  1
  O  O192  1  0.00551188  0.86222785  0.24795510  1
  O  O193  1  0.00729383  0.87149544  0.76255745  1
  O  O194  1  0.50902875  0.36885672  0.26268471  1
  O  O195  1  0.50799205  0.36970649  0.75319126  1
  O  O196  1  0.51382039  0.87147188  0.24192173  1
  O  O197  1  0.50365300  0.86920381  0.75234960  1
  O  O198  1  0.48453694  0.12567915  0.25524060  1
  O  O199  1  0.50910755  0.13347424  0.73917378  1
  O  O200  1  0.48664197  0.61769908  0.24157995  1
  O  O201  1  0.51004245  0.63343680  0.74137273  1
  O  O202  1  1.01251316  0.13432983  0.24160519  1
  O  O203  1  1.00386789  0.13871322  0.74967266  1
  O  O204  1  0.98191520  0.62858798  0.25735488  1
  O  O205  1  0.99984642  0.64657888  0.76135838  1
  O  O206  1  0.36727924  0.25331922  0.00201755  1
  O  O207  1  0.37407505  0.24100148  0.51273977  1
  O  O208  1  0.37179082  0.75686483  0.00464176  1
  O  O209  1  0.38254098  0.76184446  0.51011639  1
  O  O210  1  0.86550651  0.24867324  0.00845021  1
  O  O211  1  0.86483663  0.24430593  0.50787180  1
  O  O212  1  0.87443588  0.75900059  0.01094267  1
  O  O213  1  0.86130103  0.76026275  0.49732662  1
  O  O214  1  0.12860384  0.23554767  0.50310676  1
  O  O215  1  0.13508852  0.24518925  0.99443013  1
  O  O216  1  0.12847314  0.79922536  0.48962902  1
  O  O217  1  0.13426925  0.73636900  1.00601233  1
  O  O218  1  0.63263615  0.23856166  0.49200353  1
  O  O219  1  0.64274425  0.24491148  0.99533222  1
  O  O220  1  0.63329562  0.74670890  0.48956941  1
  O  O221  1  0.61901105  0.75382485  0.98695278  1
  O  O222  1  0.48565689  0.24872525  0.11993965  1
  O  O223  1  0.49225780  0.24073001  0.62538971  1
  O  O224  1  0.48787309  0.74065959  0.11868582  1
  O  O225  1  0.50269025  0.74673922  0.64075972  1
  O  O226  1  0.99786463  0.24249029  0.13388125  1
  O  O227  1  0.98527958  0.25836434  0.63462754  1
  O  O228  1  0.98443490  0.74878043  0.13458635  1
  O  O229  1  0.99717469  0.75386167  0.64319772  1
  O  O230  1  -0.00793636  0.26037369  0.36385655  1
  O  O231  1  0.00497680  0.25259483  0.86265144  1
  O  O232  1  0.00191728  0.75173968  0.36269886  1
  O  O233  1  0.00096632  0.76259644  0.86962754  1
  O  O234  1  0.50953961  0.25482043  0.37686547  1
  O  O235  1  0.50140851  0.25889475  0.86349817  1
  O  O236  1  0.51265218  0.74172569  0.38160277  1
  O  O237  1  0.51018422  0.74680605  0.86262482  1
  O  O238  1  0.24108086  0.12309474  0.49220235  1
  O  O239  1  0.24255367  0.13601382  0.99788764  1
  O  O240  1  0.25367588  0.61739106  0.48766729  1
  O  O241  1  0.24695469  0.63055969  0.99293601  1
  O  O242  1  0.74093645  0.13088942  0.49247212  1
  O  O243  1  0.74083488  0.13052135  1.00324254  1
  O  O244  1  0.74140567  0.63334470  0.49216198  1
  O  O245  1  0.75622429  0.63317358  0.98097869  1
  O  O246  1  0.25763545  0.36692751  0.00045309  1
  O  O247  1  0.24550061  0.37330561  0.51698672  1
  O  O248  1  0.25853471  0.86648232  0.00471756  1
  O  O249  1  0.26897478  0.88217218  0.50774658  1
  O  O250  1  0.76494303  0.35663200  -0.00682917  1
  O  O251  1  0.73762514  0.36053941  0.51191867  1
  O  O252  1  0.75662837  0.87161750  0.01422331  1
  O  O253  1  0.75621898  0.86456123  0.49499278  1
  O  O254  1  0.13345159  0.49381667  0.23879197  1
  O  O255  1  0.10749133  0.50317005  0.72368195  1
  O  O256  1  0.12855259  0.99197915  0.23693563  1
  O  O257  1  0.13074763  0.99724078  0.74793826  1
  O  O258  1  0.62587383  0.48855123  0.25029169  1
  O  O259  1  0.61953850  0.48486702  0.74829658  1
  O  O260  1  0.62464787  0.98355626  0.26036227  1
  O  O261  1  0.62585936  0.99552302  0.73884030  1
  O  O262  1  0.37007683  0.00209785  0.25626255  1
  O  O263  1  0.36878453  -0.00912275  0.76034842  1
  O  O264  1  0.36555746  0.50406951  0.24792581  1
  O  O265  1  0.35505477  0.51496896  0.70396817  1
  O  O266  1  0.87623977  -0.00402980  0.25869703  1
  O  O267  1  0.86710465  0.00390830  0.76433744  1
  O  O268  1  0.87437451  0.50907092  0.24134675  1
  O  O269  1  0.88628750  0.49475288  0.74522752  1
  O  O270  1  0.12825541  0.37858537  0.36331924  1
  O  O271  1  0.11097203  0.36207086  0.88540186  1
  O  O272  1  0.12231467  0.88660990  0.35304127  1
  O  O273  1  0.11551620  0.87726926  0.87315112  1
  O  O274  1  0.61985718  0.36533842  0.36508571  1
  O  O275  1  0.62198301  0.36489122  0.85987065  1
  O  O276  1  0.62728012  0.86296716  0.36551592  1
  O  O277  1  0.62618085  0.86766456  0.87881080  1
  O  O278  1  0.36358847  0.13115599  0.13450766  1
  O  O279  1  0.38743993  0.12025893  0.62069148  1
  O  O280  1  0.38148198  0.63093857  0.13130728  1
  O  O281  1  0.39792683  0.64602072  0.61818784  1
  O  O282  1  0.88941869  0.13473237  0.11865676  1
  O  O283  1  0.87501056  0.13440224  0.61973994  1
  O  O284  1  0.85684563  0.62999345  0.13927599  1
  O  O285  1  0.87942225  0.63623829  0.63089297  1
  O  O286  1  0.25624522  0.25522897  0.11409828  1
  O  O287  1  0.26423178  0.25984407  0.62421478  1
  O  O288  1  0.26000784  0.75086893  0.11437270  1
  O  O289  1  0.26981544  0.74177252  0.63492759  1
  O  O290  1  0.76656867  0.24152422  0.12650583  1
  O  O291  1  0.75891113  0.24797099  0.61935002  1
  O  O292  1  0.75889250  0.75828376  0.12512858  1
  O  O293  1  0.74378803  0.74612918  0.60687346  1
  O  O294  1  0.25683828  0.23396848  0.37417019  1
  O  O295  1  0.24447017  0.25309052  0.87823640  1
  O  O296  1  0.24820554  0.73354000  0.37511896  1
  O  O297  1  0.24856963  0.74805383  0.88737174  1
  O  O298  1  0.74435320  0.24189327  0.38230514  1
  O  O299  1  0.75696719  0.24130202  0.88240003  1
  O  O300  1  0.74138076  0.73950146  0.38523201  1
  O  O301  1  0.73569540  0.75298973  0.87628168  1
  O  O302  1  0.01604250  0.13523728  0.01296450  1
  O  O303  1  0.01577164  0.12448896  0.49228137  1
  O  O304  1  0.01274789  0.63177876  -0.00536728  1
  O  O305  1  -0.00229889  0.61686143  0.48815865  1
  O  O306  1  0.50442840  0.11329651  -0.00016963  1
  O  O307  1  0.50759270  0.11331022  0.50551882  1
  O  O308  1  0.49793748  0.62019481  0.01318768  1
  O  O309  1  0.51662179  0.63325496  0.50886115  1
  O  O310  1  0.51545508  0.37390307  0.48406429  1
  O  O311  1  0.49679564  0.37290512  0.99113221  1
  O  O312  1  0.49480594  0.88539877  0.50162281  1
  O  O313  1  0.49152647  0.89072019  1.00794231  1
  O  O314  1  0.99788324  0.37434984  0.48123861  1
  O  O315  1  0.98611000  0.36173424  0.98682725  1
  O  O316  1  0.97815152  0.87435923  0.49733887  1
  O  O317  1  0.99024893  0.87064161  0.99499702  1
  O  O318  1  0.49966650  0.48523526  0.37450715  1
  O  O319  1  0.51653426  0.48588661  0.88269730  1
  O  O320  1  0.48686667  1.00561733  0.38502534  1
  O  O321  1  0.48744270  1.00034343  0.87639167  1
  O  O322  1  1.00226441  0.48559426  0.37906459  1
  O  O323  1  1.01217452  0.48324538  0.87164691  1
  O  O324  1  0.98322483  0.99682928  0.37930342  1
  O  O325  1  0.98621672  0.99193126  0.87038697  1
  O  O326  1  0.01070620  0.00909590  0.12916990  1
  O  O327  1  0.01058998  0.00076551  0.62882924  1
  O  O328  1  0.01379662  0.49402687  0.13020986  1
  O  O329  1  0.00434874  0.49988595  0.60652965  1
  O  O330  1  0.49386860  0.00606343  0.11664754  1
  O  O331  1  0.51123224  0.00398257  0.61866319  1
  O  O332  1  0.50030000  0.51198706  0.12294235  1
  O  O333  1  0.50466370  0.51849412  0.63118057  1
  O  O334  1  0.24602075  0.38084346  0.24487721  1
  O  O335  1  0.25912012  0.37725315  0.72574635  1
  O  O336  1  0.24305490  0.87529147  0.24291313  1
  O  O337  1  0.23730354  0.88491302  0.76227424  1
  O  O338  1  0.73581869  0.37195705  0.25121808  1
  O  O339  1  0.73906324  0.37690821  0.73888835  1
  O  O340  1  0.74473046  0.87125769  0.24051850  1
  O  O341  1  0.75118600  0.89770309  0.74769233  1
  O  O342  1  0.25572209  0.11727750  0.25717828  1
  O  O343  1  0.24680797  0.11225689  0.75051134  1
  O  O344  1  0.25949549  0.61544305  0.24890232  1
  O  O345  1  0.23773456  0.63174765  0.77129897  1
  O  O346  1  0.74421353  0.12805083  0.26361349  1
  O  O347  1  0.73768274  0.10447949  0.75007699  1
  O  O348  1  0.75536908  0.62501571  0.26220052  1
  O  O349  1  0.75049659  0.62843323  0.76185097  1
  O  O350  1  0.36763694  0.11494828  0.36816669  1
  O  O351  1  0.37514309  0.11154603  0.87680763  1
  O  O352  1  0.36454384  0.62161123  0.36585467  1
  O  O353  1  0.36254493  0.62598462  0.87776952  1
  O  O354  1  0.86697313  0.10907959  0.37953329  1
  O  O355  1  0.88207595  0.11203954  0.88916105  1
  O  O356  1  0.86008569  0.62483059  0.36363502  1
  O  O357  1  0.85772133  0.63102462  0.86494980  1
  O  O358  1  0.13049870  0.38530071  0.12707264  1
  O  O359  1  0.12615313  0.36732332  0.63083282  1
  O  O360  1  0.12772345  0.88021146  0.12819046  1
  O  O361  1  0.12030059  0.88741255  0.64288214  1
  O  O362  1  0.61667982  0.36458578  0.14299436  1
  O  O363  1  0.63541276  0.36920852  0.63412551  1
  O  O364  1  0.63689903  0.86905127  0.13767610  1
  O  O365  1  0.62354805  0.88579097  0.61776458  1
  O  O366  1  0.11831963  0.26145132  0.24159485  1
  O  O367  1  0.11879955  0.24555090  0.75746794  1
  O  O368  1  0.11410956  0.75495397  0.23850603  1
  O  O369  1  0.11484494  0.76187530  0.75418221  1
  O  O370  1  0.62245897  0.24702931  0.26190884  1
  O  O371  1  0.61310273  0.25730626  0.74434165  1
  O  O372  1  0.62609275  0.75516930  0.26480139  1
  O  O373  1  0.61664668  0.75753045  0.75841868  1
  O  O374  1  0.37491445  0.24021433  0.23856974  1
  O  O375  1  0.38843804  0.25484281  0.73371855  1
  O  O376  1  0.36833505  0.74059176  0.23925961  1
  O  O377  1  0.38968088  0.75925994  0.74090956  1
  O  O378  1  0.88651983  0.25317884  0.23745705  1
  O  O379  1  0.88284777  0.24054514  0.73945020  1
  O  O380  1  0.88001431  0.74364363  0.24498047  1
  O  O381  1  0.88674975  0.76469705  0.75313530  1
  O  O382  1  0.38992997  0.51802766  0.50386963  1
  O  O383  1  0.37753689  0.48376239  1.00685152  1
  O  O384  1  0.38228293  0.98992697  0.49695427  1
  O  O385  1  0.38420205  0.99669807  0.99306502  1
  O  O386  1  0.89144766  0.50070767  0.50095001  1
  O  O387  1  0.86814622  0.47981951  1.02050738  1
  O  O388  1  0.87108617  0.98829469  0.50062173  1
  O  O389  1  0.86881535  0.98917884  0.99048554  1
  O  O390  1  0.13529024  0.00932209  0.00919635  1
  O  O391  1  0.12006361  0.00042754  0.51211700  1
  O  O392  1  0.12675209  0.50839745  0.01150765  1
  O  O393  1  0.10538452  0.49642802  0.50861098  1
  O  O394  1  0.61335609  0.00853674  -0.00080474  1
  O  O395  1  0.62093750  0.00403990  0.50405070  1
  O  O396  1  0.64531117  0.49299681  0.01973256  1
  O  O397  1  0.62005237  0.51527188  0.49702875  1
  O  O398  1  0.37185724  0.36401593  0.11676064  1
  O  O399  1  0.38852996  0.36449254  0.61431069  1
  O  O400  1  0.37024972  0.86732463  0.11755273  1
  O  O401  1  0.38298920  0.86419163  0.61518731  1
  O  O402  1  0.88532726  0.35451064  0.11270526  1
  O  O403  1  0.85858846  0.35972489  0.62828053  1
  O  O404  1  0.86597693  0.86859702  0.12165715  1
  O  O405  1  0.87368732  0.87448686  0.61568315  1
  O  O406  1  0.13531859  0.11218227  0.38736349  1
  O  O407  1  0.12550532  0.13473610  0.88458047  1
  O  O408  1  0.13845665  0.62282150  0.36995424  1
  O  O409  1  0.13381325  0.62383130  0.89192244  1
  O  O410  1  0.62960056  0.12798555  0.38363098  1
  O  O411  1  0.61793432  0.12937574  0.89331975  1
  O  O412  1  0.63113499  0.63334706  0.38209249  1
  O  O413  1  0.64056775  0.63757926  0.87285208  1
