# generated using pymatgen
data_V79Zn79O256
_symmetry_space_group_name_H-M   'P 1'
_cell_length_a   16.90803420
_cell_length_b   16.90158693
_cell_length_c   16.90404581
_cell_angle_alpha   90.10276792
_cell_angle_beta   89.91975016
_cell_angle_gamma   90.15261525
_symmetry_Int_Tables_number   1
_chemical_formula_structural   V79Zn79O256
_chemical_formula_sum   'V79 Zn79 O256'
_cell_volume   4830.68367507
_cell_formula_units_Z   1
loop_
 _symmetry_equiv_pos_site_id
 _symmetry_equiv_pos_as_xyz
  1  'x, y, z'
loop_
 _atom_site_type_symbol
 _atom_site_label
 _atom_site_symmetry_multiplicity
 _atom_site_fract_x
 _atom_site_fract_y
 _atom_site_fract_z
 _atom_site_occupancy
  V  V0  1  0.00737180  0.86884471  0.86063949  1
  V  V1  1  0.61688728  0.62473723  0.00171326  1
  V  V2  1  -0.00138123  0.25904044  0.25595445  1
  V  V3  1  -0.01181917  0.38420172  0.89161482  1
  V  V4  1  0.87615978  0.87756888  0.00303194  1
  V  V5  1  0.13767567  0.37519099  0.24188137  1
  V  V6  1  0.50138158  0.25614078  0.23709062  1
  V  V7  1  0.62384738  0.50287888  0.62772044  1
  V  V8  1  0.62658901  0.12525267  0.49926229  1
  V  V9  1  0.88167363  0.62552381  0.25781168  1
  V  V10  1  0.49671939  -0.00321307  0.49902278  1
  V  V11  1  0.37303982  0.00535854  0.87323921  1
  V  V12  1  0.00561404  0.00416592  -0.00013514  1
  V  V13  1  0.00446677  0.12673631  0.12301404  1
  V  V14  1  0.49610118  0.00415706  0.00202050  1
  V  V15  1  0.74879387  0.00027357  0.24982048  1
  V  V16  1  0.88987622  0.74121043  0.12387316  1
  V  V17  1  0.50052979  0.49803788  0.49068472  1
  V  V18  1  0.12659616  0.24940024  0.37486823  1
  V  V19  1  0.50308046  0.25265982  0.75061601  1
  V  V20  1  0.62808613  0.24975407  0.87249517  1
  V  V21  1  0.74621994  0.37585489  0.63246159  1
  V  V22  1  0.86890009  0.12729443  0.75428893  1
  V  V23  1  0.38518134  0.12337460  0.23780309  1
  V  V24  1  0.87585202  0.25109837  0.62530000  1
  V  V25  1  0.50663623  0.63851035  0.63230311  1
  V  V26  1  0.62535726  0.12633092  -0.00197098  1
  V  V27  1  0.62730582  0.74554548  0.87412365  1
  V  V28  1  0.25604625  0.87329801  0.62659296  1
  V  V29  1  0.37685809  0.25715578  0.62232327  1
  V  V30  1  0.62133476  0.87167593  0.75044855  1
  V  V31  1  0.00190030  0.86834408  0.37323972  1
  V  V32  1  0.25201095  0.75634759  0.02183232  1
  V  V33  1  0.13044922  0.74404331  0.38662733  1
  V  V34  1  0.62499188  0.86798895  0.25331423  1
  V  V35  1  0.12885268  0.86715827  0.24743904  1
  V  V36  1  0.62309807  0.00737215  0.12631020  1
  V  V37  1  0.12799808  0.26155455  0.87454169  1
  V  V38  1  0.50007866  0.12585191  0.62556465  1
  V  V39  1  0.87495813  -0.00138350  0.37703668  1
  V  V40  1  0.37357024  0.00219892  0.37883422  1
  V  V41  1  0.24803409  0.24517158  0.01376211  1
  V  V42  1  0.87592690  0.25651276  0.12027549  1
  V  V43  1  0.75118581  0.25197737  0.49827402  1
  V  V44  1  0.00071292  0.62739515  0.63770001  1
  V  V45  1  0.87400787  0.74766065  0.64476310  1
  V  V46  1  0.26768403  0.62329463  0.38648195  1
  V  V47  1  0.87107703  0.86333487  0.49948963  1
  V  V48  1  0.87409972  0.12569930  0.25016278  1
  V  V49  1  0.37663169  0.62668376  0.22914629  1
  V  V50  1  0.12858690  -0.00079617  0.12766188  1
  V  V51  1  0.50020707  0.37499277  0.87642790  1
  V  V52  1  0.74600518  0.87167889  0.62283521  1
  V  V53  1  0.24048488  0.12279226  0.87105032  1
  V  V54  1  0.86860767  0.00721766  0.87695394  1
  V  V55  1  0.25121008  0.24379466  0.49476584  1
  V  V56  1  0.75055747  0.74411098  -0.00198476  1
  V  V57  1  0.00520703  0.26020603  0.75064984  1
  V  V58  1  0.00986576  0.50574588  0.50089535  1
  V  V59  1  0.86996606  0.50035992  0.37658471  1
  V  V60  1  0.36786665  0.36962229  0.01318660  1
  V  V61  1  0.24946964  0.00550333  0.25811852  1
  V  V62  1  0.75240286  0.50431415  0.76410029  1
  V  V63  1  0.00385886  0.12497192  0.62303851  1
  V  V64  1  0.49209637  0.86911364  0.87794489  1
  V  V65  1  0.87950723  0.37823577  0.49635644  1
  V  V66  1  0.49764588  0.86347754  0.37740302  1
  V  V67  1  0.23149681  0.37562817  0.62871440  1
  V  V68  1  0.61631942  0.26339567  0.37174827  1
  V  V69  1  0.61219172  0.50131289  0.12655706  1
  V  V70  1  0.75272152  0.25114809  -0.00391861  1
  V  V71  1  0.36211284  0.49905000  0.86856338  1
  V  V72  1  0.12748118  0.62878554  -0.02022234  1
  V  V73  1  0.75377595  0.38499281  0.12642668  1
  V  V74  1  0.13034507  -0.00549880  0.63584854  1
  V  V75  1  0.12061496  0.51429834  0.12523789  1
  V  V76  1  0.74920890  0.12582337  0.37433267  1
  V  V77  1  0.62520303  -0.00099323  0.62623719  1
  V  V78  1  0.49766731  0.74921806  0.22336942  1
  Zn  Zn79  1  0.74571769  0.00547534  0.75550103  1
  Zn  Zn80  1  0.75019377  0.87350401  0.12564067  1
  Zn  Zn81  1  0.26908968  0.49073945  0.25165847  1
  Zn  Zn82  1  0.31497816  0.81389602  0.44415051  1
  Zn  Zn83  1  0.87328987  0.61908786  0.78130494  1
  Zn  Zn84  1  0.22997757  0.49933255  0.74403371  1
  Zn  Zn85  1  0.34622658  0.72877397  0.62598166  1
  Zn  Zn86  1  0.00039129  -0.00231440  0.50149823  1
  Zn  Zn87  1  0.12930338  0.11993600  0.49035246  1
  Zn  Zn88  1  0.48786190  0.50641850  0.00043633  1
  Zn  Zn89  1  0.13783779  0.62440238  0.51794475  1
  Zn  Zn90  1  0.36978700  0.12548291  0.74791520  1
  Zn  Zn91  1  0.74267688  0.50439033  0.25926645  1
  Zn  Zn92  1  0.37562069  0.62957852  0.75825935  1
  Zn  Zn93  1  0.38709456  0.37498285  0.47586917  1
  Zn  Zn94  1  0.18826302  0.18245455  0.19584443  1
  Zn  Zn95  1  0.18721831  0.18886940  0.68754384  1
  Zn  Zn96  1  0.18932585  0.68213374  0.19578485  1
  Zn  Zn97  1  0.19307792  0.68295080  0.69559450  1
  Zn  Zn98  1  0.68638182  0.19161133  0.18642895  1
  Zn  Zn99  1  0.68654721  0.18965529  0.68728893  1
  Zn  Zn100  1  0.69599732  0.68345753  0.18389893  1
  Zn  Zn101  1  0.69080286  0.68489946  0.69387351  1
  Zn  Zn102  1  0.31838312  0.30293214  0.31116064  1
  Zn  Zn103  1  0.31256297  0.31360909  0.81089546  1
  Zn  Zn104  1  0.31810195  0.82466588  0.18503577  1
  Zn  Zn105  1  0.31825433  0.82009817  0.79712249  1
  Zn  Zn106  1  0.80922412  0.31695338  0.31049656  1
  Zn  Zn107  1  0.81546412  0.31711008  0.81427425  1
  Zn  Zn108  1  0.82607791  0.81987116  0.29699848  1
  Zn  Zn109  1  0.81139249  0.82074892  0.81643269  1
  Zn  Zn110  1  0.22652311  0.41807056  0.41381596  1
  Zn  Zn111  1  0.18488690  0.43717885  0.94464676  1
  Zn  Zn112  1  0.18466898  0.94086392  0.44472446  1
  Zn  Zn113  1  0.18829877  0.93456149  0.93587417  1
  Zn  Zn114  1  0.68723060  0.44050897  0.44415989  1
  Zn  Zn115  1  0.68626506  0.43323469  0.94482041  1
  Zn  Zn116  1  0.68507283  0.93393465  0.43848249  1
  Zn  Zn117  1  0.68615374  0.93507581  0.93905969  1
  Zn  Zn118  1  0.31004292  0.05869694  0.05971276  1
  Zn  Zn119  1  0.31210985  0.06272869  0.56545827  1
  Zn  Zn120  1  0.29618465  0.55633267  0.06016757  1
  Zn  Zn121  1  0.31844270  0.55716332  0.57124411  1
  Zn  Zn122  1  0.81075969  0.06682914  0.06336343  1
  Zn  Zn123  1  0.81392014  0.05998083  0.56340020  1
  Zn  Zn124  1  0.81944962  0.56841389  0.04753934  1
  Zn  Zn125  1  0.81652691  0.55876673  0.57154028  1
  Zn  Zn126  1  0.43566052  0.43549534  0.19614297  1
  Zn  Zn127  1  0.44022652  0.43517320  0.68811506  1
  Zn  Zn128  1  0.44087487  0.94099314  0.18756730  1
  Zn  Zn129  1  0.43509384  0.93836393  0.69367692  1
  Zn  Zn130  1  0.94179317  0.44230285  0.18651669  1
  Zn  Zn131  1  0.93825772  0.44201589  0.69041240  1
  Zn  Zn132  1  0.94165448  0.93558530  0.18821013  1
  Zn  Zn133  1  0.93597148  0.94160182  0.68733439  1
  Zn  Zn134  1  0.05873154  0.06280023  0.31253043  1
  Zn  Zn135  1  0.05865278  0.06438433  0.81290186  1
  Zn  Zn136  1  0.05925716  0.55815536  0.31253989  1
  Zn  Zn137  1  0.06322792  0.55619088  0.81140187  1
  Zn  Zn138  1  0.56168137  0.06371757  0.31426665  1
  Zn  Zn139  1  0.56090569  0.06408066  0.81410646  1
  Zn  Zn140  1  0.55487197  0.56201559  0.30230541  1
  Zn  Zn141  1  0.56432793  0.55752234  0.81009514  1
  Zn  Zn142  1  0.43595157  0.18379450  0.43561643  1
  Zn  Zn143  1  0.43431326  0.18644059  0.94185471  1
  Zn  Zn144  1  0.44763282  0.67679998  0.45266354  1
  Zn  Zn145  1  0.43047770  0.68645201  0.94281612  1
  Zn  Zn146  1  0.93902639  0.18901869  0.43622959  1
  Zn  Zn147  1  0.94158118  0.19131624  0.93678624  1
  Zn  Zn148  1  0.94120841  0.68556768  0.43929671  1
  Zn  Zn149  1  0.95506600  0.69235092  0.94842457  1
  Zn  Zn150  1  0.06668801  0.31359589  0.06267032  1
  Zn  Zn151  1  0.06170940  0.31289458  0.55621450  1
  Zn  Zn152  1  0.07035010  0.81255397  0.05412396  1
  Zn  Zn153  1  0.06012580  0.81331509  0.56679896  1
  Zn  Zn154  1  0.56481117  0.31846962  0.05914854  1
  Zn  Zn155  1  0.56390462  0.31696876  0.56042339  1
  Zn  Zn156  1  0.56499602  0.82146979  0.05852269  1
  Zn  Zn157  1  0.45831676  0.82118344  0.56511218  1
  O  O158  1  0.11130885  0.11575231  0.13504246  1
  O  O159  1  0.11566420  0.11967931  0.62463594  1
  O  O160  1  0.11611001  0.61406166  0.14458525  1
  O  O161  1  0.10370008  0.64439215  0.62985793  1
  O  O162  1  0.62983255  0.11566363  0.11676761  1
  O  O163  1  0.62096225  0.11998827  0.61949315  1
  O  O164  1  0.63139361  0.60985191  0.11577792  1
  O  O165  1  0.62268537  0.61195100  0.63180648  1
  O  O166  1  0.33599217  0.39112411  0.37711994  1
  O  O167  1  0.38202459  0.38056335  0.88261505  1
  O  O168  1  0.38569817  0.88866691  0.37921077  1
  O  O169  1  0.38764609  0.88311081  0.86962150  1
  O  O170  1  0.87240721  0.38121389  0.38761318  1
  O  O171  1  0.88834039  0.36832976  0.88202209  1
  O  O172  1  0.88000039  0.87517210  0.37930802  1
  O  O173  1  0.88293706  0.88616733  0.88519482  1
  O  O174  1  0.25876529  -0.00622903  0.36755721  1
  O  O175  1  0.25663016  0.01537816  0.88752914  1
  O  O176  1  0.23836644  0.52452860  0.36298087  1
  O  O177  1  0.25966464  0.48877884  0.86867022  1
  O  O178  1  0.75417367  0.00481588  0.37009157  1
  O  O179  1  0.76406982  -0.00315524  0.87793115  1
  O  O180  1  0.76281395  0.49430707  0.37551512  1
  O  O181  1  0.74075958  0.48753648  0.86194491  1
  O  O182  1  0.23243709  0.50509148  0.14202900  1
  O  O183  1  0.25040797  0.47504049  0.61177953  1
  O  O184  1  0.23373692  1.00737239  0.13189319  1
  O  O185  1  0.23651078  0.99731843  0.62155415  1
  O  O186  1  0.76360833  0.48737729  0.11040862  1
  O  O187  1  0.74185287  0.49470635  0.63070988  1
  O  O188  1  0.74213807  0.99858092  0.13142326  1
  O  O189  1  0.74394270  0.99040502  0.62725293  1
  O  O190  1  0.00635141  0.36184167  0.24547905  1
  O  O191  1  -0.00703778  0.36271986  0.75545271  1
  O  O192  1  0.01309819  0.88200815  0.26303217  1
  O  O193  1  -0.00959462  0.87696641  0.76124972  1
  O  O194  1  0.48927554  0.35484027  0.25400768  1
  O  O195  1  0.49743995  0.36147706  0.76139683  1
  O  O196  1  0.50489457  0.86204288  0.25499823  1
  O  O197  1  0.51098540  0.88097732  0.76511146  1
  O  O198  1  0.49139946  0.12863365  0.24931154  1
  O  O199  1  0.50011944  0.13551946  0.74345669  1
  O  O200  1  0.49204877  0.64306055  0.25140792  1
  O  O201  1  0.50179060  0.62077833  0.73706429  1
  O  O202  1  0.99237284  0.13360857  0.24156928  1
  O  O203  1  0.99054918  0.13505550  0.74208767  1
  O  O204  1  0.98200884  0.61924709  0.24919637  1
  O  O205  1  0.98691993  0.62117718  0.74052388  1
  O  O206  1  0.36466615  0.26036595  -0.00127990  1
  O  O207  1  0.37070559  0.25085140  0.50404867  1
  O  O208  1  0.34675344  0.74509528  -0.01421235  1
  O  O209  1  0.38199313  0.74995229  0.51332241  1
  O  O210  1  0.86674358  0.23993547  0.01155386  1
  O  O211  1  0.87217889  0.25863983  0.50401228  1
  O  O212  1  0.87097021  0.75779029  0.00767373  1
  O  O213  1  0.87422667  0.76042300  0.50210975  1
  O  O214  1  0.12951222  0.24726417  0.49020816  1
  O  O215  1  0.14065960  0.25382730  0.99167851  1
  O  O216  1  0.11914791  0.74550063  0.48957101  1
  O  O217  1  0.13829220  0.74061968  0.99814700  1
  O  O218  1  0.63025645  0.24593361  0.48977328  1
  O  O219  1  0.63066605  0.24326097  0.99505366  1
  O  O220  1  0.70291023  0.67732323  0.50278552  1
  O  O221  1  0.63130688  0.74711369  0.99533645  1
  O  O222  1  0.51361007  0.25128477  0.13782975  1
  O  O223  1  0.49831015  0.24688250  0.63031941  1
  O  O224  1  0.49927344  0.75287352  0.12464069  1
  O  O225  1  0.51717548  0.73801557  0.62172807  1
  O  O226  1  0.99418090  0.24378273  0.12961456  1
  O  O227  1  0.99604123  0.24512977  0.63147580  1
  O  O228  1  0.98753343  0.75774895  0.11794651  1
  O  O229  1  0.98231520  0.74406595  0.62491538  1
  O  O230  1  0.00557704  0.24870452  0.36416475  1
  O  O231  1  0.00969878  0.25673288  0.87051561  1
  O  O232  1  0.01042771  0.76004432  0.37745867  1
  O  O233  1  -0.00271489  0.76948568  0.87851064  1
  O  O234  1  0.51350188  0.24770767  0.37405658  1
  O  O235  1  0.50457237  0.25338463  0.86933571  1
  O  O236  1  0.49390714  0.76244540  0.38219413  1
  O  O237  1  0.50536324  0.76509516  0.88525229  1
  O  O238  1  0.24738996  0.13928212  0.50922555  1
  O  O239  1  0.25817976  0.13956608  0.98859815  1
  O  O240  1  0.25104447  0.61713566  0.49197310  1
  O  O241  1  0.23672877  0.64029095  1.00846399  1
  O  O242  1  0.74757387  0.13171602  0.49585530  1
  O  O243  1  0.73934765  0.13816321  1.00466292  1
  O  O244  1  0.74778573  0.62069807  0.48525451  1
  O  O245  1  0.73579096  0.63778422  1.00012370  1
  O  O246  1  0.25995272  0.36192546  -0.00197226  1
  O  O247  1  0.24966912  0.35610917  0.51359330  1
  O  O248  1  0.23740408  0.85498531  -0.00261311  1
  O  O249  1  0.25311413  0.88191791  0.51253741  1
  O  O250  1  0.74925908  0.36013267  0.01111229  1
  O  O251  1  0.76007908  0.37056786  0.50972903  1
  O  O252  1  0.76207147  0.86913607  0.00120101  1
  O  O253  1  0.75472780  0.87626820  0.51155332  1
  O  O254  1  0.11939305  0.48146727  0.24904272  1
  O  O255  1  0.11931439  0.50340570  0.73357624  1
  O  O256  1  0.13128139  0.99506702  0.24849329  1
  O  O257  1  0.12013307  1.00667175  0.73507331  1
  O  O258  1  0.62683934  0.50664233  0.23144578  1
  O  O259  1  0.63851502  0.49744911  0.73899676  1
  O  O260  1  0.62774508  0.99404940  0.24367493  1
  O  O261  1  0.62566321  0.99336144  0.74637547  1
  O  O262  1  0.37118100  0.00698722  0.25864883  1
  O  O263  1  0.38125513  0.00717687  0.76735860  1
  O  O264  1  0.38533829  0.52157615  0.25050600  1
  O  O265  1  0.37871294  0.49333576  0.76534467  1
  O  O266  1  0.86925176  0.00319230  0.25553910  1
  O  O267  1  0.87355709  0.01044269  0.75940445  1
  O  O268  1  0.87799828  0.50570108  0.26077758  1
  O  O269  1  0.85899168  0.50280900  0.74804657  1
  O  O270  1  0.13229191  0.36028808  0.36130708  1
  O  O271  1  0.11980217  0.36544340  0.87777892  1
  O  O272  1  0.12142232  0.86616147  0.36981532  1
  O  O273  1  0.10517136  0.89113271  0.87268163  1
  O  O274  1  0.63118852  0.36180747  0.37674083  1
  O  O275  1  0.61108380  0.36052852  0.88870009  1
  O  O276  1  0.61592335  0.88010005  0.36082805  1
  O  O277  1  0.61760939  0.86902969  0.86962774  1
  O  O278  1  0.37672255  0.11390107  0.13896345  1
  O  O279  1  0.38257914  0.13610836  0.62625726  1
  O  O280  1  0.37125509  0.62206593  0.13094203  1
  O  O281  1  0.39943704  0.62250597  0.62346647  1
  O  O282  1  0.88216253  0.13383901  0.13148774  1
  O  O283  1  0.88227315  0.12992511  0.63211778  1
  O  O284  1  0.88056889  0.63767504  0.11963294  1
  O  O285  1  0.87585271  0.64225263  0.62362226  1
  O  O286  1  0.24482040  0.23951489  0.11259214  1
  O  O287  1  0.25906268  0.25532177  0.62165298  1
  O  O288  1  0.24822612  0.75379665  0.12739280  1
  O  O289  1  0.23571223  0.76812853  0.62439674  1
  O  O290  1  0.75645164  0.26004929  0.12077728  1
  O  O291  1  0.75474234  0.25674158  0.61950320  1
  O  O292  1  0.75987478  0.75390629  0.11289389  1
  O  O293  1  0.76151317  0.75973271  0.63321760  1
  O  O294  1  0.24195336  0.24715023  0.38453249  1
  O  O295  1  0.24374736  0.24244056  0.87764093  1
  O  O296  1  0.23959467  0.73934344  0.38381427  1
  O  O297  1  0.21831331  0.76137571  0.84294527  1
  O  O298  1  0.74143272  0.24570096  0.37722374  1
  O  O299  1  0.73978433  0.25958802  0.88301481  1
  O  O300  1  0.63754036  0.68816255  0.39495321  1
  O  O301  1  0.73968354  0.75919132  0.88616436  1
  O  O302  1  -0.00501156  0.11653830  0.01147079  1
  O  O303  1  -0.00318064  0.12643427  0.51394733  1
  O  O304  1  0.02825457  0.62967951  0.00512758  1
  O  O305  1  0.00007171  0.61821704  0.51202440  1
  O  O306  1  0.51211069  0.11703359  -0.00284555  1
  O  O307  1  0.50779103  0.11758495  0.50543442  1
  O  O308  1  0.51126336  0.62549883  0.00040977  1
  O  O309  1  0.51169583  0.60854061  0.51871793  1
  O  O310  1  0.50310219  0.38878750  0.49847055  1
  O  O311  1  0.48523750  0.37255155  0.99312985  1
  O  O312  1  0.51127550  0.88944731  0.49181719  1
  O  O313  1  0.50767369  0.88975860  0.98501762  1
  O  O314  1  0.98932273  0.39278653  0.51241437  1
  O  O315  1  1.00329941  0.37201457  0.99108111  1
  O  O316  1  0.98973843  0.87521101  0.49117531  1
  O  O317  1  0.99052573  0.88591915  0.99726141  1
  O  O318  1  0.51210931  0.51160235  0.39157654  1
  O  O319  1  0.49793839  0.48653770  0.87839893  1
  O  O320  1  0.49575105  0.99271799  0.38186099  1
  O  O321  1  0.49455923  0.99518523  0.88314759  1
  O  O322  1  0.98647928  0.50935204  0.39326510  1
  O  O323  1  1.00286693  0.48221093  0.87251427  1
  O  O324  1  0.99216206  0.99088309  0.37726553  1
  O  O325  1  0.98972128  0.99903658  0.88476395  1
  O  O326  1  0.00436969  0.00846061  0.12099086  1
  O  O327  1  0.00643481  0.00879759  0.62457350  1
  O  O328  1  0.02132326  0.48826490  0.12252498  1
  O  O329  1  -0.01336964  0.51923382  0.61540615  1
  O  O330  1  0.51414488  -0.00403424  0.11478553  1
  O  O331  1  0.50486130  0.00377679  0.61869312  1
  O  O332  1  0.51087696  0.49226893  0.12161757  1
  O  O333  1  0.51688348  0.49765082  0.62756965  1
  O  O334  1  0.24076439  0.37090029  0.24696770  1
  O  O335  1  0.25508062  0.37541953  0.73276738  1
  O  O336  1  0.23480472  0.88804288  0.24737642  1
  O  O337  1  0.25503378  0.88704703  0.72774575  1
  O  O338  1  0.75304573  0.38288186  0.23201942  1
  O  O339  1  0.75827037  0.38282213  0.73822850  1
  O  O340  1  0.74138489  0.87911759  0.25161290  1
  O  O341  1  0.74154021  0.88075596  0.74325099  1
  O  O342  1  0.26362714  0.11374985  0.25004498  1
  O  O343  1  0.25093735  0.12957485  0.76645233  1
  O  O344  1  0.27314373  0.63695306  0.26222772  1
  O  O345  1  0.26894247  0.60359955  0.71343786  1
  O  O346  1  0.75459311  0.12096124  0.25391361  1
  O  O347  1  0.76400262  0.12632500  0.74493770  1
  O  O348  1  0.77110107  0.61500475  0.23582542  1
  O  O349  1  0.75319272  0.61118993  0.75671107  1
  O  O350  1  0.38131784  0.10899149  0.36623326  1
  O  O351  1  0.36578768  0.12167438  0.87296923  1
  O  O352  1  0.36810995  0.62918860  0.38054717  1
  O  O353  1  0.38233256  0.60185866  0.87779814  1
  O  O354  1  0.86917341  0.12055498  0.37022156  1
  O  O355  1  0.88267799  0.11951870  0.86644031  1
  O  O356  1  0.87377983  0.62343598  0.36455574  1
  O  O357  1  0.87593287  0.61923728  0.90141048  1
  O  O358  1  0.12790877  0.37313112  0.13861434  1
  O  O359  1  0.13208952  0.36500535  0.62866959  1
  O  O360  1  0.11221214  0.88408934  0.14111720  1
  O  O361  1  0.12886517  0.88857882  0.62205034  1
  O  O362  1  0.64005490  0.39265451  0.11569971  1
  O  O363  1  0.63820508  0.38156370  0.62354360  1
  O  O364  1  0.62787124  0.88630212  0.13470119  1
  O  O365  1  0.63221120  0.88034714  0.63622957  1
  O  O366  1  0.11892047  0.25639882  0.25292911  1
  O  O367  1  0.11443178  0.24369350  0.76110875  1
  O  O368  1  0.13108099  0.76461283  0.26020730  1
  O  O369  1  0.16184257  0.74961485  0.79307307  1
  O  O370  1  0.61407900  0.24343978  0.26224239  1
  O  O371  1  0.61675569  0.24538745  0.76023987  1
  O  O372  1  0.61477148  0.75776566  0.23635003  1
  O  O373  1  0.63189072  0.76070904  0.76137101  1
  O  O374  1  0.38714469  0.23274527  0.25314277  1
  O  O375  1  0.38603972  0.24811503  0.74130217  1
  O  O376  1  0.39076859  0.74624090  0.24001862  1
  O  O377  1  0.37066528  0.74219837  0.73900998  1
  O  O378  1  0.88001266  0.24751318  0.24280913  1
  O  O379  1  0.88209727  0.24432335  0.74556262  1
  O  O380  1  0.87233725  0.73862427  0.23597204  1
  O  O381  1  0.86972365  0.74352368  0.74755116  1
  O  O382  1  0.39717222  0.49710559  0.50727378  1
  O  O383  1  0.36872410  0.48702993  0.99109732  1
  O  O384  1  0.38937506  1.00967399  0.49518801  1
  O  O385  1  0.38685231  1.00964792  0.98851785  1
  O  O386  1  0.87573109  0.49510443  0.49506708  1
  O  O387  1  0.87193309  0.54866364  0.94402311  1
  O  O388  1  0.87461708  0.98674392  0.49422754  1
  O  O389  1  0.88158934  0.99669153  0.99817628  1
  O  O390  1  0.11256764  -0.00727592  0.01294780  1
  O  O391  1  0.11774735  0.00635731  0.51076570  1
  O  O392  1  0.14071107  0.51704427  0.01516477  1
  O  O393  1  0.10923192  0.50510002  0.49760147  1
  O  O394  1  0.62180206  0.00767628  0.00501709  1
  O  O395  1  0.61847661  0.00634122  0.50494659  1
  O  O396  1  0.62270970  0.50875316  0.00752657  1
  O  O397  1  0.62091189  0.49640126  0.51785276  1
  O  O398  1  0.37655853  0.38122319  0.11155117  1
  O  O399  1  0.37986874  0.36083771  0.62078863  1
  O  O400  1  0.37000426  0.89479491  0.11816517  1
  O  O401  1  0.36930260  0.87754049  0.62274895  1
  O  O402  1  0.86937912  0.36506407  0.12689895  1
  O  O403  1  0.86831791  0.37096860  0.61675947  1
  O  O404  1  0.87460611  0.86816343  0.11913593  1
  O  O405  1  0.86876376  0.86491833  0.62165595  1
  O  O406  1  0.11927359  0.13994949  0.37156197  1
  O  O407  1  0.13591419  0.13059847  0.87653797  1
  O  O408  1  0.12447355  0.64119513  0.36764074  1
  O  O409  1  0.13029678  0.61919792  0.88012795  1
  O  O410  1  0.63185886  0.13039537  0.38115212  1
  O  O411  1  0.62259284  0.13643471  0.88483949  1
  O  O412  1  0.65258729  0.62411726  0.35967269  1
  O  O413  1  0.61621769  0.63910389  0.88131770  1
