# generated using pymatgen
data_V79Zn79O256
_symmetry_space_group_name_H-M   'P 1'
_cell_length_a   16.92989389
_cell_length_b   16.93465452
_cell_length_c   16.94270226
_cell_angle_alpha   90.17155529
_cell_angle_beta   89.85866421
_cell_angle_gamma   90.12208643
_symmetry_Int_Tables_number   1
_chemical_formula_structural   V79Zn79O256
_chemical_formula_sum   'V79 Zn79 O256'
_cell_volume   4857.45749398
_cell_formula_units_Z   1
loop_
 _symmetry_equiv_pos_site_id
 _symmetry_equiv_pos_as_xyz
  1  'x, y, z'
loop_
 _atom_site_type_symbol
 _atom_site_label
 _atom_site_symmetry_multiplicity
 _atom_site_fract_x
 _atom_site_fract_y
 _atom_site_fract_z
 _atom_site_occupancy
  V  V0  1  0.49560603  0.26606012  0.26187053  1
  V  V1  1  0.00326810  0.13043664  0.62407898  1
  V  V2  1  0.12654684  0.62246315  -0.00328276  1
  V  V3  1  0.62955411  0.62193374  0.00156395  1
  V  V4  1  0.62724496  0.38233963  0.74992850  1
  V  V5  1  0.50101681  0.12732468  0.13022063  1
  V  V6  1  0.37066867  0.25334070  0.61832884  1
  V  V7  1  0.37696715  0.61362267  0.74653054  1
  V  V8  1  0.13280981  0.49058913  0.12698307  1
  V  V9  1  0.37723067  -0.00142773  0.37731626  1
  V  V10  1  0.37314269  0.75369630  0.11840984  1
  V  V11  1  0.49964312  0.11930695  0.62661002  1
  V  V12  1  0.37730572  0.49411628  0.89336096  1
  V  V13  1  0.13404364  -0.00162268  0.62360822  1
  V  V14  1  0.49702871  0.37764435  0.88287882  1
  V  V15  1  0.25724039  0.87279622  0.62482118  1
  V  V16  1  0.71734155  0.89332403  0.15226044  1
  V  V17  1  0.63157655  0.25070471  0.87936734  1
  V  V18  1  0.25265165  0.61458729  0.86923421  1
  V  V19  1  0.13204566  0.61998352  0.49429684  1
  V  V20  1  -0.00449973  -0.01337850  0.50808039  1
  V  V21  1  0.11961970  0.24815309  0.84111372  1
  V  V22  1  0.25665089  0.74444766  0.49572128  1
  V  V23  1  0.49437802  0.50194443  0.49011156  1
  V  V24  1  0.25114734  0.37892505  0.63244459  1
  V  V25  1  0.37288568  0.00248709  0.87743985  1
  V  V26  1  -0.00909189  0.62411864  0.63268448  1
  V  V27  1  0.12159989  0.12938679  0.02634914  1
  V  V28  1  0.13481362  0.49873392  0.63553049  1
  V  V29  1  0.86957270  0.50030070  0.86381999  1
  V  V30  1  0.75208319  -0.00980053  0.74808643  1
  V  V31  1  0.12499516  0.87228614  0.25036329  1
  V  V32  1  0.36868029  0.12555502  0.75526521  1
  V  V33  1  -0.00727394  0.86704215  0.37763048  1
  V  V34  1  0.25391349  0.75581093  -0.00304180  1
  V  V35  1  0.38659945  0.74284461  0.62565791  1
  V  V36  1  0.63365678  -0.00042419  0.62542484  1
  V  V37  1  0.50235033  0.74475975  0.74848602  1
  V  V38  1  0.87675946  0.12838905  0.74513050  1
  V  V39  1  0.25062967  0.00024442  0.25383473  1
  V  V40  1  0.12982222  0.74748338  0.37496944  1
  V  V41  1  0.37506248  0.12349847  0.25002745  1
  V  V42  1  0.13004642  0.87090319  0.74842982  1
  V  V43  1  0.14218429  0.12721395  0.49244212  1
  V  V44  1  0.24291535  0.50279623  0.26853865  1
  V  V45  1  0.49922699  0.25260027  0.75004212  1
  V  V46  1  0.00285081  0.37259545  0.85558512  1
  V  V47  1  -0.00009468  0.49347365  0.49199446  1
  V  V48  1  -0.00883280  0.63934895  0.12257348  1
  V  V49  1  0.87707035  0.25348658  0.62698224  1
  V  V50  1  0.37324647  0.37387680  0.47861280  1
  V  V51  1  0.63148954  0.62758169  0.50524166  1
  V  V52  1  0.50637180  0.87317448  0.36586653  1
  V  V53  1  0.36402165  0.62878307  0.26488665  1
  V  V54  1  0.75047841  0.61645662  0.86188976  1
  V  V55  1  0.49973596  0.00129330  0.00392714  1
  V  V56  1  0.49685253  0.87467983  0.87995106  1
  V  V57  1  0.74319698  0.37884623  0.12322416  1
  V  V58  1  0.00542988  0.00385373  0.00802144  1
  V  V59  1  0.00308905  0.87597260  0.87665009  1
  V  V60  1  0.62124225  0.12737963  0.50215308  1
  V  V61  1  0.86723473  0.37221498  0.00194978  1
  V  V62  1  0.62122470  0.12871321  0.00031804  1
  V  V63  1  0.12937680  0.74861665  0.86957508  1
  V  V64  1  0.24749919  0.88204402  0.12406484  1
  V  V65  1  0.80566765  0.19096988  0.05552928  1
  V  V66  1  0.11851357  0.26293435  0.36755442  1
  V  V67  1  0.86324240  0.77020496  0.63251943  1
  V  V68  1  0.49603125  0.61952139  0.11702057  1
  V  V69  1  0.62315113  0.49890061  0.12781326  1
  V  V70  1  0.85675496  0.62299821  0.27877450  1
  V  V71  1  0.63208059  0.73399408  0.36649714  1
  V  V72  1  0.50101545  0.75107459  0.24645634  1
  V  V73  1  -0.00041216  0.49373657  0.00054804  1
  V  V74  1  0.87957955  0.00063590  0.87334974  1
  V  V75  1  0.39353361  0.87553805  0.50134791  1
  V  V76  1  0.74752000  0.38782851  0.63141811  1
  V  V77  1  0.62894082  0.75031694  0.88097519  1
  V  V78  1  0.74538646  0.24980363  0.50219163  1
  Zn  Zn79  1  0.87825643  0.37798545  0.49208321  1
  Zn  Zn80  1  0.24681220  0.24281060  0.97087746  1
  Zn  Zn81  1  0.31667948  0.31758716  0.08978693  1
  Zn  Zn82  1  0.81660835  0.80340929  0.03973093  1
  Zn  Zn83  1  0.62944337  0.86941220  0.74418998  1
  Zn  Zn84  1  -0.02725389  0.21447198  0.26752844  1
  Zn  Zn85  1  0.75172285  0.12664921  0.87405871  1
  Zn  Zn86  1  0.25146713  0.00318628  0.75791046  1
  Zn  Zn87  1  0.61763328  0.51769549  0.63287056  1
  Zn  Zn88  1  0.63460129  0.38948539  0.26841427  1
  Zn  Zn89  1  0.88133924  0.00399168  0.37342575  1
  Zn  Zn90  1  0.61946941  0.26006478  0.38273785  1
  Zn  Zn91  1  0.77522054  0.76899140  0.48416513  1
  Zn  Zn92  1  0.79597766  0.13189718  0.33846497  1
  Zn  Zn93  1  -0.00801447  0.74116916  0.75361216  1
  Zn  Zn94  1  0.17916774  0.19157313  0.19799759  1
  Zn  Zn95  1  0.19184218  0.18829443  0.67954473  1
  Zn  Zn96  1  0.18206593  0.68750383  0.18599346  1
  Zn  Zn97  1  0.19445095  0.68449041  0.68339892  1
  Zn  Zn98  1  0.66974384  0.20214788  0.18386269  1
  Zn  Zn99  1  0.69032916  0.18875652  0.69027580  1
  Zn  Zn100  1  0.69469852  0.68761631  0.18187908  1
  Zn  Zn101  1  0.69379441  0.69066489  0.68707406  1
  Zn  Zn102  1  0.28763260  0.29793430  0.28013237  1
  Zn  Zn103  1  0.30997174  0.31811619  0.80857256  1
  Zn  Zn104  1  0.31494135  0.81409928  0.31201827  1
  Zn  Zn105  1  0.31670639  0.81185810  0.81272333  1
  Zn  Zn106  1  0.81149606  0.31409464  0.31006480  1
  Zn  Zn107  1  0.81459428  0.31456369  0.81111632  1
  Zn  Zn108  1  0.83276500  0.80196372  0.21733772  1
  Zn  Zn109  1  0.83003038  0.79450490  0.83890498  1
  Zn  Zn110  1  0.18888519  0.42827171  0.44167794  1
  Zn  Zn111  1  0.19107603  0.42390222  0.94175441  1
  Zn  Zn112  1  0.19282142  0.93134258  0.43904467  1
  Zn  Zn113  1  0.18647636  0.94373129  0.94102070  1
  Zn  Zn114  1  0.68336473  0.43471804  0.44606707  1
  Zn  Zn115  1  0.68060884  0.43863746  0.94256195  1
  Zn  Zn116  1  0.72518584  0.90802582  0.36696176  1
  Zn  Zn117  1  0.68794133  0.93803108  0.94030098  1
  Zn  Zn118  1  0.32703730  0.10652020  0.04346913  1
  Zn  Zn119  1  0.31959348  0.05937157  0.56309489  1
  Zn  Zn120  1  0.31154755  0.56602564  0.06390815  1
  Zn  Zn121  1  0.31741726  0.55921598  0.55801051  1
  Zn  Zn122  1  0.82044844  -0.01119015  0.07123088  1
  Zn  Zn123  1  0.81662658  0.06729194  0.53902373  1
  Zn  Zn124  1  0.80904999  0.56023639  0.05682380  1
  Zn  Zn125  1  0.81435472  0.55799720  0.45408983  1
  Zn  Zn126  1  0.41997796  0.44487877  0.19600489  1
  Zn  Zn127  1  0.44386634  0.43810583  0.67939621  1
  Zn  Zn128  1  0.43665186  0.93878023  0.18257194  1
  Zn  Zn129  1  0.44258657  0.93453238  0.69299773  1
  Zn  Zn130  1  0.92672692  0.45196544  0.18374428  1
  Zn  Zn131  1  0.93627732  0.44627778  0.67689109  1
  Zn  Zn132  1  0.93832795  0.94529799  0.19681313  1
  Zn  Zn133  1  0.94270993  0.93902597  0.69343539  1
  Zn  Zn134  1  0.06647141  0.05255503  0.31782393  1
  Zn  Zn135  1  0.06468245  0.06219069  0.80873356  1
  Zn  Zn136  1  0.04052666  0.55788860  0.29829168  1
  Zn  Zn137  1  0.06262159  0.55543470  0.81284987  1
  Zn  Zn138  1  0.55994583  0.06469898  0.32040875  1
  Zn  Zn139  1  0.56216987  0.06325773  0.81231606  1
  Zn  Zn140  1  0.55304840  0.56138437  0.30903952  1
  Zn  Zn141  1  0.55856198  0.56239751  0.81741033  1
  Zn  Zn142  1  0.43420168  0.18632469  0.43777121  1
  Zn  Zn143  1  0.43749693  0.19491843  0.93943385  1
  Zn  Zn144  1  0.44831782  0.68689142  0.44074559  1
  Zn  Zn145  1  0.43864020  0.68427773  0.93527815  1
  Zn  Zn146  1  0.93931850  0.18683721  0.44676046  1
  Zn  Zn147  1  0.95079967  0.18590904  0.93225109  1
  Zn  Zn148  1  0.94408551  0.68954487  0.44979757  1
  Zn  Zn149  1  0.93736051  0.68627224  0.94181466  1
  Zn  Zn150  1  0.05540556  0.31072445  0.07419285  1
  Zn  Zn151  1  0.06948108  0.31133677  0.55579524  1
  Zn  Zn152  1  0.06672079  0.81532799  0.05887334  1
  Zn  Zn153  1  0.06456680  0.80443610  0.56592725  1
  Zn  Zn154  1  0.51570101  0.33830701  0.09094854  1
  Zn  Zn155  1  0.55519585  0.32112305  0.56149169  1
  Zn  Zn156  1  0.56560443  0.81387081  0.06231410  1
  Zn  Zn157  1  0.61956915  0.84839609  0.51835604  1
  O  O158  1  0.12156956  0.12081282  0.12491775  1
  O  O159  1  0.12299343  0.11717847  0.61800884  1
  O  O160  1  0.12199707  0.62449831  0.10458110  1
  O  O161  1  0.13204827  0.61262536  0.61559847  1
  O  O162  1  0.61329875  0.13115988  0.11086074  1
  O  O163  1  0.61493893  0.12254185  0.62959984  1
  O  O164  1  0.61754049  0.62116053  0.11892021  1
  O  O165  1  0.62768840  0.63328883  0.61068923  1
  O  O166  1  0.36071101  0.36248282  0.38319702  1
  O  O167  1  0.37943023  0.38813247  0.86971810  1
  O  O168  1  0.38610938  0.87625051  0.38260692  1
  O  O169  1  0.38838479  0.88303687  0.87071418  1
  O  O170  1  0.83974191  0.40366674  0.38198580  1
  O  O171  1  0.88366803  0.37782528  0.88150864  1
  O  O172  1  0.89441905  0.87022919  0.37511690  1
  O  O173  1  0.89343314  0.89306412  0.85477913  1
  O  O174  1  0.26618879  -0.01567263  0.36555972  1
  O  O175  1  0.26738960  -0.00818554  0.87602694  1
  O  O176  1  0.23195073  0.50811730  0.36704606  1
  O  O177  1  0.26185760  0.50537767  0.88158652  1
  O  O178  1  0.77053715  0.01094772  0.36085966  1
  O  O179  1  0.76333252  0.00377902  0.86858695  1
  O  O180  1  0.78030543  0.46706398  0.38406376  1
  O  O181  1  0.75334780  0.50840880  0.88026273  1
  O  O182  1  0.23483968  0.50634273  0.12171096  1
  O  O183  1  0.24349091  0.49330993  0.62075871  1
  O  O184  1  0.25745465  0.98324393  0.13365200  1
  O  O185  1  0.24754646  0.99099071  0.62755808  1
  O  O186  1  0.73574261  0.49152876  0.11729691  1
  O  O187  1  0.74060484  0.48543831  0.62533681  1
  O  O188  1  0.73476202  0.99349261  0.14713646  1
  O  O189  1  0.73919992  1.00865705  0.63181018  1
  O  O190  1  -0.01935965  0.35460543  0.22031871  1
  O  O191  1  -0.00421043  0.38157095  0.75783493  1
  O  O192  1  0.01186441  0.88318336  0.26920743  1
  O  O193  1  0.01805976  0.87452778  0.75677817  1
  O  O194  1  0.48522972  0.36531860  0.25739244  1
  O  O195  1  0.50561638  0.36693544  0.75561442  1
  O  O196  1  0.48884108  0.86011557  0.25260343  1
  O  O197  1  0.50505596  0.86354383  0.76114240  1
  O  O198  1  0.49377732  0.11867538  0.24353814  1
  O  O199  1  0.49195283  0.13606409  0.74472761  1
  O  O200  1  0.48218007  0.63325330  0.24129351  1
  O  O201  1  0.49136874  0.63607691  0.75824428  1
  O  O202  1  0.98372911  0.09234277  0.25120085  1
  O  O203  1  0.99061427  0.11422274  0.73186362  1
  O  O204  1  1.02356831  0.63855313  0.21829310  1
  O  O205  1  1.01377333  0.62476475  0.73730903  1
  O  O206  1  0.35501715  0.21955682  0.01117633  1
  O  O207  1  0.38099722  0.26027465  0.50997649  1
  O  O208  1  0.36374183  0.74333632  0.00402434  1
  O  O209  1  0.37559904  0.75422151  0.50704150  1
  O  O210  1  0.87493833  0.25127642  -0.00062882  1
  O  O211  1  0.86552172  0.25937439  0.51233449  1
  O  O212  1  0.86977028  0.77195865  -0.05021402  1
  O  O213  1  0.87691146  0.74262058  0.52562955  1
  O  O214  1  0.12391129  0.23250543  0.48958350  1
  O  O215  1  0.10719010  0.23329138  1.00958619  1
  O  O216  1  0.13849696  0.74187687  0.49787049  1
  O  O217  1  0.13482237  0.74028843  0.98926792  1
  O  O218  1  0.62743756  0.24353153  0.51100974  1
  O  O219  1  0.61388900  0.23860288  0.98440525  1
  O  O220  1  0.61111229  0.73473144  0.48077365  1
  O  O221  1  0.61955904  0.74152170  0.98826360  1
  O  O222  1  0.50005495  0.23608953  0.14767262  1
  O  O223  1  0.49047909  0.24832210  0.63619791  1
  O  O224  1  0.49183708  0.74389101  0.12854487  1
  O  O225  1  0.49024691  0.75325322  0.63749037  1
  O  O226  1  0.97964984  0.29142101  0.16581848  1
  O  O227  1  0.99183540  0.24027910  0.61226794  1
  O  O228  1  0.99360327  0.73742805  0.09509773  1
  O  O229  1  0.99632285  0.73657904  0.62814112  1
  O  O230  1  0.00889007  0.24212822  0.38347073  1
  O  O231  1  0.00456294  0.26539421  0.86868702  1
  O  O232  1  0.01393351  0.76171835  0.38930054  1
  O  O233  1  0.01293982  0.75748492  0.87056659  1
  O  O234  1  0.50209243  0.24123564  0.36405517  1
  O  O235  1  0.50241274  0.25715750  0.86416468  1
  O  O236  1  0.49955603  0.75406393  0.36121020  1
  O  O237  1  0.50542029  0.75549755  0.86977751  1
  O  O238  1  0.24137066  0.12076091  0.50765746  1
  O  O239  1  0.22310013  0.12701527  0.99882262  1
  O  O240  1  0.24686827  0.63481581  0.50260409  1
  O  O241  1  0.24418546  0.63192173  0.98797944  1
  O  O242  1  0.72845357  0.13798481  0.51900822  1
  O  O243  1  0.74104145  0.13240449  0.99526713  1
  O  O244  1  0.73280908  0.62984311  0.49230821  1
  O  O245  1  0.73564558  0.62532368  0.99386357  1
  O  O246  1  0.24337400  0.35168309  0.00635810  1
  O  O247  1  0.26837340  0.38215974  0.51132588  1
  O  O248  1  0.23810325  0.86274108  0.00770899  1
  O  O249  1  0.26468432  0.86335517  0.50658263  1
  O  O250  1  0.75759794  0.37437525  0.00283733  1
  O  O251  1  0.74556735  0.36573092  0.52161609  1
  O  O252  1  0.74657779  0.89733369  0.02788265  1
  O  O253  1  0.72441313  0.86831368  0.47605574  1
  O  O254  1  0.13304481  0.51373259  0.23534624  1
  O  O255  1  0.12825331  0.50011994  0.73429975  1
  O  O256  1  0.13918616  0.98331155  0.26029610  1
  O  O257  1  0.13137828  0.99211927  0.74038167  1
  O  O258  1  0.61614841  0.50015053  0.23447776  1
  O  O259  1  0.61435015  0.48677508  0.74931257  1
  O  O260  1  0.66149788  1.05260722  0.26292771  1
  O  O261  1  0.63448334  1.00290670  0.74267024  1
  O  O262  1  0.36997206  0.00065715  0.25780471  1
  O  O263  1  0.37677959  0.00823549  0.75747108  1
  O  O264  1  0.35985891  0.52152655  0.25193612  1
  O  O265  1  0.38243411  0.51172821  0.74680362  1
  O  O266  1  0.91291293  0.04213278  0.25860403  1
  O  O267  1  0.87055967  0.01001325  0.75116875  1
  O  O268  1  0.91213385  0.53433392  0.25911802  1
  O  O269  1  0.87776996  0.49498440  0.76483929  1
  O  O270  1  0.11862616  0.36375789  0.37794376  1
  O  O271  1  0.10779234  0.36991333  0.87361054  1
  O  O272  1  0.12340053  0.86490194  0.37094432  1
  O  O273  1  0.12509144  0.87129456  0.86524226  1
  O  O274  1  0.62239472  0.37358347  0.37831048  1
  O  O275  1  0.61866463  0.37065219  0.86760651  1
  O  O276  1  0.61029102  0.85586013  0.36959213  1
  O  O277  1  0.61891937  0.86550365  0.87392737  1
  O  O278  1  0.38666429  0.11553900  0.14153772  1
  O  O279  1  0.38183450  0.13307947  0.63052878  1
  O  O280  1  0.37943422  0.63668260  0.12598894  1
  O  O281  1  0.36764982  0.63440520  0.63326882  1
  O  O282  1  0.85371641  0.12407413  0.10672220  1
  O  O283  1  0.88312599  0.13312841  0.62608291  1
  O  O284  1  0.89121393  0.61612052  0.11427638  1
  O  O285  1  0.89469692  0.61615964  0.63137338  1
  O  O286  1  0.26083917  0.26139109  0.17140436  1
  O  O287  1  0.25995541  0.26405666  0.62610970  1
  O  O288  1  0.25515001  0.75344229  0.11468345  1
  O  O289  1  0.26336744  0.75468853  0.61644135  1
  O  O290  1  0.74797428  0.25448953  0.11604102  1
  O  O291  1  0.76133365  0.25337451  0.62312984  1
  O  O292  1  0.75135709  0.77263662  0.13087765  1
  O  O293  1  0.76031594  0.75989251  0.62690024  1
  O  O294  1  0.21973278  0.24562369  0.35735323  1
  O  O295  1  0.22408453  0.26110723  0.85855680  1
  O  O296  1  0.24450184  0.75723915  0.38728920  1
  O  O297  1  0.24990027  0.74124493  0.88033541  1
  O  O298  1  0.74360775  0.24853068  0.39782108  1
  O  O299  1  0.73670936  0.24905353  0.86733809  1
  O  O300  1  0.73013423  0.74302969  0.36779737  1
  O  O301  1  0.73469341  0.73312285  0.86620547  1
  O  O302  1  0.00756999  0.11250083  0.00011336  1
  O  O303  1  0.01386594  0.10459908  0.51322673  1
  O  O304  1  0.00863948  0.61240571  -0.00524670  1
  O  O305  1  0.01405526  0.61663890  0.51483207  1
  O  O306  1  0.50378264  0.12217781  0.00915204  1
  O  O307  1  0.50745232  0.13600407  0.51824944  1
  O  O308  1  0.50857588  0.63162699  0.00950735  1
  O  O309  1  0.50360635  0.60993969  0.50148630  1
  O  O310  1  0.48339369  0.38005248  0.49491250  1
  O  O311  1  0.50689211  0.36652225  0.97976710  1
  O  O312  1  0.49698660  0.86790015  0.48816482  1
  O  O313  1  0.50688033  0.88598550  0.99001685  1
  O  O314  1  1.00031210  0.38928200  0.50831220  1
  O  O315  1  0.98856048  0.38254458  1.00087759  1
  O  O316  1  1.01569655  0.88100018  0.49414898  1
  O  O317  1  1.01713407  0.88828889  0.98291051  1
  O  O318  1  0.50270884  0.49783468  0.38894894  1
  O  O319  1  0.48494583  0.49326551  0.87375668  1
  O  O320  1  0.49261369  0.98329111  0.36414593  1
  O  O321  1  0.49395103  0.99273625  0.87814838  1
  O  O322  1  1.01046819  0.50620619  0.39379552  1
  O  O323  1  0.99419458  0.48939833  0.88140325  1
  O  O324  1  1.00022400  0.98644794  0.39576339  1
  O  O325  1  0.99861159  0.99431851  0.87517488  1
  O  O326  1  -0.00090120  -0.01183760  0.10485057  1
  O  O327  1  0.01673369  0.00003505  0.62114238  1
  O  O328  1  0.01243910  0.51178123  0.11247543  1
  O  O329  1  0.01712403  0.50761761  0.61997942  1
  O  O330  1  0.49699015  0.00727867  0.11292485  1
  O  O331  1  0.50916418  0.01358124  0.63819537  1
  O  O332  1  0.50210313  0.51617235  0.13169403  1
  O  O333  1  0.51095473  0.48648755  0.60350456  1
  O  O334  1  0.25923987  0.40663614  0.25120324  1
  O  O335  1  0.25418583  0.38270706  0.73174354  1
  O  O336  1  0.24630864  0.87812892  0.24271387  1
  O  O337  1  0.24545487  0.87456735  0.74366028  1
  O  O338  1  0.74705694  0.36690646  0.22729363  1
  O  O339  1  0.74025535  0.37088601  0.74184173  1
  O  O340  1  0.74117788  0.87100671  0.25428211  1
  O  O341  1  0.74921025  0.88931124  0.75757448  1
  O  O342  1  0.25958962  0.10587377  0.24597796  1
  O  O343  1  0.26463651  0.12396257  0.74222333  1
  O  O344  1  0.25806687  0.62495396  0.24671499  1
  O  O345  1  0.26108674  0.62971231  0.76269411  1
  O  O346  1  0.70283120  0.12163055  0.26359093  1
  O  O347  1  0.76335419  0.11754489  0.75080932  1
  O  O348  1  0.76128230  0.61725059  0.24643978  1
  O  O349  1  0.74053476  0.61620193  0.76321598  1
  O  O350  1  0.38477913  0.10613549  0.36984480  1
  O  O351  1  0.38444711  0.11712082  0.86295418  1
  O  O352  1  0.37307147  0.63798746  0.36272473  1
  O  O353  1  0.37177436  0.61094440  0.86945632  1
  O  O354  1  0.86269392  0.10737023  0.43304603  1
  O  O355  1  0.88283771  0.11833726  0.86187388  1
  O  O356  1  0.86860675  0.63144988  0.38424104  1
  O  O357  1  0.85767069  0.61582067  0.87896361  1
  O  O358  1  0.12009664  0.39291140  0.12486843  1
  O  O359  1  0.14073847  0.38530581  0.61465518  1
  O  O360  1  0.13404537  0.86358007  0.13862138  1
  O  O361  1  0.13446124  0.87849609  0.63042309  1
  O  O362  1  0.62402483  0.38576810  0.11876800  1
  O  O363  1  0.63536015  0.36665693  0.63672660  1
  O  O364  1  0.61773413  0.87773228  0.13998307  1
  O  O365  1  0.61744499  0.89646750  0.62513239  1
  O  O366  1  0.09510639  0.22657534  0.26667848  1
  O  O367  1  0.11670344  0.25055507  0.74185886  1
  O  O368  1  0.13492092  0.75961811  0.26368202  1
  O  O369  1  0.13165631  0.75850931  0.75115756  1
  O  O370  1  0.60713857  0.26532299  0.25503633  1
  O  O371  1  0.61503143  0.25646636  0.75770927  1
  O  O372  1  0.60981613  0.73264536  0.25614064  1
  O  O373  1  0.61663658  0.74821418  0.75814140  1
  O  O374  1  0.38727843  0.23043429  0.26584404  1
  O  O375  1  0.38101070  0.24543112  0.74437971  1
  O  O376  1  0.37657978  0.74201762  0.23950301  1
  O  O377  1  0.38254133  0.74116854  0.74491773  1
  O  O378  1  0.85893003  0.21631854  0.28694481  1
  O  O379  1  0.87282835  0.24022342  0.73963827  1
  O  O380  1  0.89127950  0.71521380  0.25324822  1
  O  O381  1  0.87642453  0.75121212  0.73886623  1
  O  O382  1  0.38457140  0.48997884  0.49688087  1
  O  O383  1  0.37637467  0.50252051  0.99136217  1
  O  O384  1  0.37434964  0.98554105  0.49246399  1
  O  O385  1  0.38872826  1.01613902  0.98835715  1
  O  O386  1  0.89604985  0.50020633  0.50969357  1
  O  O387  1  0.88183902  0.49150953  0.98791612  1
  O  O388  1  0.89716092  0.98390304  0.52262780  1
  O  O389  1  0.89314653  1.00315644  0.98361300  1
  O  O390  1  0.11387846  0.01500644  -0.00739347  1
  O  O391  1  0.12770377  0.00061140  0.51208604  1
  O  O392  1  0.11953073  0.50361988  0.00294927  1
  O  O393  1  0.12195557  0.50598061  0.50781096  1
  O  O394  1  0.61066596  0.01781884  -0.01500499  1
  O  O395  1  0.62354093  0.01994173  0.52097589  1
  O  O396  1  0.61897732  0.51123174  0.01010784  1
  O  O397  1  0.61993720  0.51630314  0.49866549  1
  O  O398  1  0.40880832  0.37591814  0.11139278  1
  O  O399  1  0.36746911  0.36802835  0.62371747  1
  O  O400  1  0.36585253  0.86009096  0.12740675  1
  O  O401  1  0.37789963  0.86728474  0.61907386  1
  O  O402  1  0.85935149  0.39065258  0.10963264  1
  O  O403  1  0.86228281  0.37032930  0.63044295  1
  O  O404  1  0.86167071  0.88574581  0.13787040  1
  O  O405  1  0.88153767  0.86814861  0.62975461  1
  O  O406  1  0.12878602  0.10836366  0.39423186  1
  O  O407  1  0.11072269  0.14868249  0.86554168  1
  O  O408  1  0.11514111  0.63744216  0.38732920  1
  O  O409  1  0.13382319  0.62394943  0.87892865  1
  O  O410  1  0.61335309  0.12912666  0.40131408  1
  O  O411  1  0.62506589  0.13460017  0.87847790  1
  O  O412  1  0.61575544  0.63047472  0.37904261  1
  O  O413  1  0.63056343  0.62650250  0.88212397  1
