# generated using pymatgen
data_V79Zn79O256
_symmetry_space_group_name_H-M   'P 1'
_cell_length_a   16.93587318
_cell_length_b   16.93113184
_cell_length_c   16.93363706
_cell_angle_alpha   89.85648178
_cell_angle_beta   89.94737871
_cell_angle_gamma   90.18399744
_symmetry_Int_Tables_number   1
_chemical_formula_structural   V79Zn79O256
_chemical_formula_sum   'V79 Zn79 O256'
_cell_volume   4855.56803105
_cell_formula_units_Z   1
loop_
 _symmetry_equiv_pos_site_id
 _symmetry_equiv_pos_as_xyz
  1  'x, y, z'
loop_
 _atom_site_type_symbol
 _atom_site_label
 _atom_site_symmetry_multiplicity
 _atom_site_fract_x
 _atom_site_fract_y
 _atom_site_fract_z
 _atom_site_occupancy
  V  V0  1  0.74768126  0.12823674  0.38046359  1
  V  V1  1  0.12766601  0.23979336  0.87565460  1
  V  V2  1  0.49457227  0.87270744  0.37739068  1
  V  V3  1  0.50181921  0.50285330  -0.00054135  1
  V  V4  1  0.36809313  0.37782778  0.00418310  1
  V  V5  1  0.74973573  0.25017602  0.00227289  1
  V  V6  1  0.24050499  -0.00840643  0.25045863  1
  V  V7  1  0.36973732  0.26556180  0.62363801  1
  V  V8  1  0.13083498  0.01016986  0.11178548  1
  V  V9  1  0.62564457  0.87507728  0.24425438  1
  V  V10  1  0.49374490  -0.00404885  0.49956504  1
  V  V11  1  0.37036248  0.62244552  0.74845509  1
  V  V12  1  0.87180452  0.51108276  0.86586666  1
  V  V13  1  0.87035610  -0.00260185  0.37276884  1
  V  V14  1  0.02337374  0.87061861  0.88905763  1
  V  V15  1  0.74557529  0.37378781  0.63077713  1
  V  V16  1  0.37826696  0.12551231  0.24580033  1
  V  V17  1  0.37139532  0.76026446  0.61552756  1
  V  V18  1  0.87674146  0.49990336  0.37447773  1
  V  V19  1  0.86558759  0.24738318  0.61970790  1
  V  V20  1  0.50307924  0.37700477  0.86785449  1
  V  V21  1  0.86836842  0.12019953  0.75224627  1
  V  V22  1  0.74585268  -0.00158350  0.24180458  1
  V  V23  1  0.00311947  0.36302149  0.36829319  1
  V  V24  1  0.62141546  0.87076294  0.75740883  1
  V  V25  1  0.62254151  0.49628674  0.62410619  1
  V  V26  1  0.49737786  0.74802868  0.24902445  1
  V  V27  1  0.49598531  0.62859139  0.12597315  1
  V  V28  1  0.75059796  0.51013966  0.74719545  1
  V  V29  1  0.30520870  0.80035580  0.07371196  1
  V  V30  1  0.62514918  0.25218823  0.37718069  1
  V  V31  1  0.37250959  0.49608400  0.87347486  1
  V  V32  1  0.49831490  0.37728037  0.38624964  1
  V  V33  1  0.00732997  0.50047507  0.50928215  1
  V  V34  1  0.00030547  0.37677815  0.87417571  1
  V  V35  1  0.75252539  0.37496349  0.12279108  1
  V  V36  1  0.38128477  0.49727801  0.38860526  1
  V  V37  1  -0.00779670  0.65405306  0.64729347  1
  V  V38  1  0.75562254  0.77395922  0.01985460  1
  V  V39  1  0.11596938  0.49446572  0.11484741  1
  V  V40  1  0.74475758  0.86323862  0.61657351  1
  V  V41  1  0.23961493  0.62032077  0.37580400  1
  V  V42  1  0.24082372  0.13166568  0.37657981  1
  V  V43  1  0.74586204  0.12065112  0.87773306  1
  V  V44  1  0.87885638  0.63467402  0.24108679  1
  V  V45  1  0.49912780  0.74850475  0.75533115  1
  V  V46  1  0.74399066  -0.00086324  0.74960399  1
  V  V47  1  0.50038804  0.24942887  0.24353462  1
  V  V48  1  0.36777159  0.25479010  0.12592612  1
  V  V49  1  0.62129183  0.25515443  0.86879873  1
  V  V50  1  0.62291639  0.12699424  0.50119766  1
  V  V51  1  0.24717922  0.23839004  -0.00578597  1
  V  V52  1  0.02270863  0.74627050  0.25193360  1
  V  V53  1  0.60487925  0.00454368  0.12535056  1
  V  V54  1  0.25033499  0.49056872  0.24168817  1
  V  V55  1  0.13118594  -0.01233553  0.62743414  1
  V  V56  1  0.62598034  0.50456460  0.12211060  1
  V  V57  1  0.75200800  0.63336788  0.37977184  1
  V  V58  1  0.37400110  -0.00231006  0.37584198  1
  V  V59  1  0.12371723  0.37760531  0.73548721  1
  V  V60  1  -0.00396576  -0.00474777  0.50132751  1
  V  V61  1  0.24789701  0.75945764  0.49249107  1
  V  V62  1  0.48849852  0.87966903  0.88544545  1
  V  V63  1  0.87614287  0.13020075  0.24107392  1
  V  V64  1  0.86366327  0.85887995  0.49658469  1
  V  V65  1  0.86676847  0.37242637  0.49894890  1
  V  V66  1  0.49823204  0.61850271  0.61623489  1
  V  V67  1  0.24959516  0.26361124  0.49913583  1
  V  V68  1  0.61261155  0.12186886  0.00732192  1
  V  V69  1  0.87492528  0.37732103  -0.00209296  1
  V  V70  1  0.23539066  0.62733196  0.88570199  1
  V  V71  1  0.48785864  0.12364484  0.63114031  1
  V  V72  1  0.75235905  0.50106361  0.24777767  1
  V  V73  1  0.00999603  0.86675603  0.37354379  1
  V  V74  1  0.63006803  0.62814072  0.49990627  1
  V  V75  1  0.36831410  0.01266243  0.87621415  1
  V  V76  1  -0.00364495  0.11949143  0.62506833  1
  V  V77  1  0.24163494  0.49068073  0.73653124  1
  V  V78  1  -0.00203835  0.24893441  0.74872033  1
  Zn  Zn79  1  0.13682557  0.35955272  0.24760007  1
  Zn  Zn80  1  0.12572791  0.62176295  0.51319774  1
  Zn  Zn81  1  0.25389199  0.01933487  0.74284117  1
  Zn  Zn82  1  0.61880830  -0.00105029  0.62476215  1
  Zn  Zn83  1  0.63004559  0.75664461  0.38155364  1
  Zn  Zn84  1  0.00597879  0.51664091  -0.01113821  1
  Zn  Zn85  1  0.62475421  0.37579247  0.25004170  1
  Zn  Zn86  1  0.74101324  0.65345873  0.87233164  1
  Zn  Zn87  1  0.00803396  0.64258534  0.10612667  1
  Zn  Zn88  1  0.11858258  0.13085538  0.49592618  1
  Zn  Zn89  1  0.37295961  0.62437483  0.24998539  1
  Zn  Zn90  1  0.62589422  0.64364052  -0.01299220  1
  Zn  Zn91  1  0.00173728  0.24979992  0.22667000  1
  Zn  Zn92  1  0.00947506  0.13246426  0.10558438  1
  Zn  Zn93  1  0.49356947  0.25038327  0.75059259  1
  Zn  Zn94  1  0.18680541  0.18953212  0.18923100  1
  Zn  Zn95  1  0.18043092  0.19512955  0.67707978  1
  Zn  Zn96  1  0.19006041  0.67803488  0.17073354  1
  Zn  Zn97  1  0.18909223  0.67967958  0.67912483  1
  Zn  Zn98  1  0.68989313  0.18624953  0.18825955  1
  Zn  Zn99  1  0.68096757  0.18743928  0.68644466  1
  Zn  Zn100  1  0.68725551  0.69146220  0.18517845  1
  Zn  Zn101  1  0.68363071  0.68574358  0.68901781  1
  Zn  Zn102  1  0.31779258  0.31371193  0.31748363  1
  Zn  Zn103  1  0.31116556  0.18679640  0.80416066  1
  Zn  Zn104  1  0.28866822  0.79062946  0.28342754  1
  Zn  Zn105  1  0.31917055  0.80447886  0.82230967  1
  Zn  Zn106  1  0.81275896  0.31101965  0.30957772  1
  Zn  Zn107  1  0.80965729  0.31287737  0.81093727  1
  Zn  Zn108  1  0.81497475  0.81470812  0.30256613  1
  Zn  Zn109  1  0.81872031  0.81412205  0.80720511  1
  Zn  Zn110  1  0.18433549  0.43795851  0.43113593  1
  Zn  Zn111  1  0.18935521  0.43541557  0.92998276  1
  Zn  Zn112  1  0.18768156  0.94376589  0.44138934  1
  Zn  Zn113  1  0.21086040  0.93863702  0.94467985  1
  Zn  Zn114  1  0.68541639  0.44165819  0.43960558  1
  Zn  Zn115  1  0.68622608  0.44507079  0.93394946  1
  Zn  Zn116  1  0.68072058  0.94063378  0.43527093  1
  Zn  Zn117  1  0.68152956  0.93419912  0.94079339  1
  Zn  Zn118  1  0.31600951  0.05790660  0.06556614  1
  Zn  Zn119  1  0.31051147  0.06521089  0.55903725  1
  Zn  Zn120  1  0.31276648  0.56490265  0.06324159  1
  Zn  Zn121  1  0.31251858  0.56247176  0.55980272  1
  Zn  Zn122  1  0.85016653  0.00101406  0.08877196  1
  Zn  Zn123  1  0.80812905  0.05425564  0.56268313  1
  Zn  Zn124  1  0.81133489  0.57221524  0.05495773  1
  Zn  Zn125  1  0.81781028  0.56679865  0.56450952  1
  Zn  Zn126  1  0.43826865  0.43706968  0.19254619  1
  Zn  Zn127  1  0.43519750  0.43774559  0.68677826  1
  Zn  Zn128  1  0.42920239  0.93039695  0.18800880  1
  Zn  Zn129  1  0.43204734  0.93892509  0.69373721  1
  Zn  Zn130  1  0.93736997  0.43939011  0.18552182  1
  Zn  Zn131  1  0.93419680  0.43638079  0.68742704  1
  Zn  Zn132  1  0.99098385  0.91925905  0.16597329  1
  Zn  Zn133  1  0.92541109  0.92834194  0.68614260  1
  Zn  Zn134  1  0.05759328  0.06363179  0.31098036  1
  Zn  Zn135  1  0.06821600  0.06036890  0.80694231  1
  Zn  Zn136  1  0.06350182  0.55484850  0.30784384  1
  Zn  Zn137  1  0.05975526  0.56758239  0.80321830  1
  Zn  Zn138  1  0.56048913  0.06350913  0.31238730  1
  Zn  Zn139  1  0.55938039  0.05998992  0.81627563  1
  Zn  Zn140  1  0.56542833  0.56185317  0.31242583  1
  Zn  Zn141  1  0.56457943  0.56263176  0.80798205  1
  Zn  Zn142  1  0.43434594  0.18876589  0.43841462  1
  Zn  Zn143  1  0.43622307  0.18921026  0.94018682  1
  Zn  Zn144  1  0.43596985  0.68570222  0.43344980  1
  Zn  Zn145  1  0.42902570  0.68841985  0.94328732  1
  Zn  Zn146  1  0.93151524  0.18448602  0.43801140  1
  Zn  Zn147  1  0.93109574  0.19521844  0.93220122  1
  Zn  Zn148  1  0.94008955  0.68285530  0.43835989  1
  Zn  Zn149  1  0.92282301  0.69236879  0.94306047  1
  Zn  Zn150  1  0.06553241  0.31402056  0.06459776  1
  Zn  Zn151  1  0.05743493  0.30916765  0.55298000  1
  Zn  Zn152  1  0.10188895  0.81069788  0.07819425  1
  Zn  Zn153  1  0.06367347  0.80758020  0.55633143  1
  Zn  Zn154  1  0.56177091  0.31600129  0.05959275  1
  Zn  Zn155  1  0.56122350  0.30967356  0.56387691  1
  Zn  Zn156  1  0.56689859  0.81092866  0.06180343  1
  Zn  Zn157  1  0.56048294  0.80897922  0.56506455  1
  O  O158  1  0.13134201  0.11788552  0.12301620  1
  O  O159  1  0.10432766  0.11699203  0.62219041  1
  O  O160  1  0.11618578  0.60059013  0.13728500  1
  O  O161  1  0.10059006  0.63203646  0.62727637  1
  O  O162  1  0.62790983  0.12155853  0.11390647  1
  O  O163  1  0.61268609  0.12742618  0.61410102  1
  O  O164  1  0.61815712  0.61429776  0.12636943  1
  O  O165  1  0.61785823  0.61859550  0.61912484  1
  O  O166  1  0.38439807  0.38780978  0.37308930  1
  O  O167  1  0.38448984  0.38871508  0.88425454  1
  O  O168  1  0.38794609  0.88875680  0.36767013  1
  O  O169  1  0.38326484  0.88317920  0.87215807  1
  O  O170  1  0.87509647  0.38054471  0.38156475  1
  O  O171  1  0.88326113  0.37810131  0.87734172  1
  O  O172  1  0.87458963  0.88272560  0.37900091  1
  O  O173  1  0.92268973  0.89413481  0.89088152  1
  O  O174  1  0.25620752  0.01212253  0.37253244  1
  O  O175  1  0.26290418  -0.00295840  0.86457260  1
  O  O176  1  0.26104114  0.50466693  0.37147438  1
  O  O177  1  0.25787123  0.50544112  0.86237630  1
  O  O178  1  0.75120204  0.00906163  0.36948624  1
  O  O179  1  0.73839892  0.01084798  0.86411529  1
  O  O180  1  0.75942276  0.50592238  0.36928205  1
  O  O181  1  0.76337243  0.49016354  0.86202208  1
  O  O182  1  0.24358923  0.50358108  0.13787971  1
  O  O183  1  0.25163621  0.50510535  0.63776001  1
  O  O184  1  0.24655546  1.00477284  0.14391126  1
  O  O185  1  0.23405071  1.00306960  0.61718173  1
  O  O186  1  0.74426964  0.49592550  0.12613091  1
  O  O187  1  0.74674600  0.49459993  0.63010360  1
  O  O188  1  0.74000371  1.00345249  0.13984311  1
  O  O189  1  0.73994802  0.99484769  0.63472062  1
  O  O190  1  -0.01453191  0.36798990  0.26283834  1
  O  O191  1  0.00195866  0.36990686  0.75665419  1
  O  O192  1  -0.00035001  0.85907479  0.26610952  1
  O  O193  1  0.03919299  0.86779262  0.78800116  1
  O  O194  1  0.50309114  0.36466822  0.26001538  1
  O  O195  1  0.49527608  0.37496605  0.76411492  1
  O  O196  1  0.50606729  0.86857256  0.25780769  1
  O  O197  1  0.50454727  0.86571536  0.75183875  1
  O  O198  1  0.48882521  0.13711491  0.25933481  1
  O  O199  1  0.50590151  0.12421328  0.73250898  1
  O  O200  1  0.50478793  0.63206024  0.24384788  1
  O  O201  1  0.49078659  0.63011854  0.74186233  1
  O  O202  1  0.98036119  0.12679342  0.25873668  1
  O  O203  1  0.98749242  0.12499725  0.74400412  1
  O  O204  1  0.99048953  0.63512394  0.26215046  1
  O  O205  1  0.99400515  0.64007124  0.74804802  1
  O  O206  1  0.36678025  0.25677234  0.00580601  1
  O  O207  1  0.36227983  0.24379092  0.50996114  1
  O  O208  1  0.36300828  0.73729070  0.01956342  1
  O  O209  1  0.37032472  0.74539247  0.50908243  1
  O  O210  1  0.85949062  0.26461717  -0.00961537  1
  O  O211  1  0.87597913  0.25746042  0.51080553  1
  O  O212  1  0.85855886  0.75650050  0.00405688  1
  O  O213  1  0.87211924  0.76033284  0.49065080  1
  O  O214  1  0.14194466  0.24527127  0.50829396  1
  O  O215  1  0.14157621  0.26126290  0.99112243  1
  O  O216  1  0.14448843  0.74472749  0.50198006  1
  O  O217  1  0.19303313  0.74893714  1.07393990  1
  O  O218  1  0.61763723  0.23863963  0.48733829  1
  O  O219  1  0.63025344  0.24277415  0.99331051  1
  O  O220  1  0.62266320  0.73420809  0.50074027  1
  O  O221  1  0.64348998  0.75631592  1.00120023  1
  O  O222  1  0.49191754  0.25617375  0.13651072  1
  O  O223  1  0.48946534  0.23875863  0.62107130  1
  O  O224  1  0.50952550  0.73907025  0.13552900  1
  O  O225  1  0.48788351  0.74018608  0.63080441  1
  O  O226  1  0.99290945  0.24163835  0.11055743  1
  O  O227  1  0.98805967  0.23822230  0.62726958  1
  O  O228  1  1.01723540  0.75289636  0.14663071  1
  O  O229  1  0.99275197  0.75332736  0.62450263  1
  O  O230  1  -0.00791435  0.26281559  0.38190750  1
  O  O231  1  0.00423881  0.25882504  0.86994164  1
  O  O232  1  -0.00073762  0.76066446  0.37392361  1
  O  O233  1  0.00168280  0.76835930  0.88395104  1
  O  O234  1  0.50507956  0.25650743  0.36805411  1
  O  O235  1  0.50431012  0.25957905  0.87526839  1
  O  O236  1  0.50590306  0.75812704  0.37246528  1
  O  O237  1  0.48192758  0.76005131  0.86186392  1
  O  O238  1  0.24730449  0.12796881  0.48516087  1
  O  O239  1  0.25440934  0.14116920  1.00484811  1
  O  O240  1  0.24648429  0.62380407  0.48811631  1
  O  O241  1  0.24750951  0.60804491  0.98422279  1
  O  O242  1  0.73737998  0.11596091  0.49072361  1
  O  O243  1  0.73966943  0.13698349  0.98778954  1
  O  O244  1  0.74541490  0.62004140  0.49051147  1
  O  O245  1  0.74890900  0.64361928  0.99624129  1
  O  O246  1  0.26503147  0.37103039  -0.00737478  1
  O  O247  1  0.24907672  0.36177523  0.48691873  1
  O  O248  1  0.26304859  0.86444319  0.00743929  1
  O  O249  1  0.25226968  0.85846980  0.48385558  1
  O  O250  1  0.75373602  0.37059580  0.00352719  1
  O  O251  1  0.76136168  0.38272659  0.50952514  1
  O  O252  1  0.74953466  0.87712603  0.00687080  1
  O  O253  1  0.74435760  0.87644225  0.50822379  1
  O  O254  1  0.13843643  0.48993164  0.24873566  1
  O  O255  1  0.13401813  0.49301434  0.75124232  1
  O  O256  1  0.13991495  1.00924146  0.25493247  1
  O  O257  1  0.12566090  0.99881532  0.73155241  1
  O  O258  1  0.63389842  0.49839185  0.24048122  1
  O  O259  1  0.63504219  0.50152660  0.73327096  1
  O  O260  1  0.62708488  0.99776453  0.24428943  1
  O  O261  1  0.62791348  0.99159093  0.74704316  1
  O  O262  1  0.36654050  0.00813533  0.25686600  1
  O  O263  1  0.36650498  -0.00212935  0.75964225  1
  O  O264  1  0.36199308  0.49989571  0.25472384  1
  O  O265  1  0.36474798  0.50355230  0.75389916  1
  O  O266  1  0.86302087  0.00852992  0.26495636  1
  O  O267  1  0.85976156  0.01190159  0.74319093  1
  O  O268  1  0.87324683  0.50887614  0.25848563  1
  O  O269  1  0.86822285  0.49686261  0.75858344  1
  O  O270  1  0.10485633  0.37794486  0.37027081  1
  O  O271  1  0.11370953  0.36991376  0.86580173  1
  O  O272  1  0.10700317  0.88137719  0.38527119  1
  O  O273  1  0.12855127  0.86035868  0.89937538  1
  O  O274  1  0.62205197  0.36772761  0.37382205  1
  O  O275  1  0.61462617  0.36697145  0.88439654  1
  O  O276  1  0.61175322  0.87883854  0.36502070  1
  O  O277  1  0.60838906  0.88262592  0.86255246  1
  O  O278  1  0.37058681  0.13568729  0.13835518  1
  O  O279  1  0.38610412  0.12689776  0.62105637  1
  O  O280  1  0.39279973  0.61262679  0.13140818  1
  O  O281  1  0.38210697  0.62462354  0.63212436  1
  O  O282  1  0.86969518  0.10968428  0.14335370  1
  O  O283  1  0.87565358  0.12845915  0.62940545  1
  O  O284  1  0.88426693  0.61636402  0.14066244  1
  O  O285  1  0.89863215  0.62140400  0.61804999  1
  O  O286  1  0.26175909  0.25285859  0.11565253  1
  O  O287  1  0.26026848  0.25195080  0.61185927  1
  O  O288  1  0.27883293  0.74749410  0.17554436  1
  O  O289  1  0.26390093  0.73987384  0.60764020  1
  O  O290  1  0.74095050  0.26211368  0.11394670  1
  O  O291  1  0.75675137  0.25668639  0.63104201  1
  O  O292  1  0.75060983  0.75865621  0.12204799  1
  O  O293  1  0.74553369  0.76505676  0.63125025  1
  O  O294  1  0.25926811  0.23845841  0.38496584  1
  O  O295  1  0.24469334  0.24629987  0.88594373  1
  O  O296  1  0.26103591  0.72993074  0.38193532  1
  O  O297  1  0.26109910  0.72504502  0.87479417  1
  O  O298  1  0.73831724  0.23969379  0.36924544  1
  O  O299  1  0.73922786  0.24625666  0.87981836  1
  O  O300  1  0.74887932  0.73669097  0.36622635  1
  O  O301  1  0.76035718  0.76413489  0.88133777  1
  O  O302  1  -0.04760675  0.09917526  -0.00498695  1
  O  O303  1  -0.00754266  0.11275351  0.50717846  1
  O  O304  1  -0.00378578  0.62871788  -0.00393359  1
  O  O305  1  0.00439014  0.60672623  0.49311220  1
  O  O306  1  0.51430595  0.13193052  0.00129336  1
  O  O307  1  0.50425581  0.11686583  0.50557091  1
  O  O308  1  0.50352563  0.62104304  0.00837270  1
  O  O309  1  0.50663879  0.62663032  0.51097359  1
  O  O310  1  0.50532046  0.37176802  0.48549420  1
  O  O311  1  0.49057109  0.38187878  0.99179632  1
  O  O312  1  0.50775289  0.88568888  0.49195664  1
  O  O313  1  0.50296158  0.86900784  0.98291800  1
  O  O314  1  0.98844198  0.38139273  0.48918761  1
  O  O315  1  0.99071177  0.37749328  0.98714285  1
  O  O316  1  0.98564544  0.87920046  0.49077162  1
  O  O317  1  1.02605982  0.85728467  0.99472262  1
  O  O318  1  0.48899331  0.49346931  0.36800866  1
  O  O319  1  0.49331555  0.49539125  0.87777059  1
  O  O320  1  0.49307693  0.99575092  0.38051693  1
  O  O321  1  0.48725233  0.98729201  0.86851643  1
  O  O322  1  0.98882061  0.48894475  0.37765824  1
  O  O323  1  0.98782728  0.49317940  0.86875192  1
  O  O324  1  0.98996870  0.99065650  0.38112616  1
  O  O325  1  1.03679709  0.97514203  0.89083675  1
  O  O326  1  0.02079562  0.02226229  0.12379746  1
  O  O327  1  -0.00441665  0.00018172  0.61979641  1
  O  O328  1  0.00826415  0.49793910  0.11745852  1
  O  O329  1  -0.00433940  0.49203118  0.60883837  1
  O  O330  1  0.50578975  0.00325040  0.13459936  1
  O  O331  1  0.49596798  0.00870609  0.61725162  1
  O  O332  1  0.50911540  0.50433342  0.12197104  1
  O  O333  1  0.50873014  0.50863531  0.63268323  1
  O  O334  1  0.25264462  0.38642207  0.25822908  1
  O  O335  1  0.23879782  0.38836821  0.74721769  1
  O  O336  1  0.24831108  0.89442178  0.26888495  1
  O  O337  1  0.22540118  0.84090485  0.74965751  1
  O  O338  1  0.75227157  0.38113014  0.23871834  1
  O  O339  1  0.75476347  0.38417696  0.73612132  1
  O  O340  1  0.73534923  0.88600172  0.26083542  1
  O  O341  1  0.73934314  0.88253899  0.74085967  1
  O  O342  1  0.26007370  0.12330315  0.26395771  1
  O  O343  1  0.23444909  0.13003918  0.74778371  1
  O  O344  1  0.25068964  0.61005325  0.26447146  1
  O  O345  1  0.25731679  0.61601779  0.75330492  1
  O  O346  1  0.75413708  0.11810538  0.26091578  1
  O  O347  1  0.74835456  0.11885798  0.75514381  1
  O  O348  1  0.76337615  0.62101299  0.25523291  1
  O  O349  1  0.75031201  0.61404843  0.74942507  1
  O  O350  1  0.36915205  0.11636508  0.36757990  1
  O  O351  1  0.38403732  0.11980739  0.86609716  1
  O  O352  1  0.37205652  0.60888811  0.37274647  1
  O  O353  1  0.37659687  0.61130288  0.86408195  1
  O  O354  1  0.86294753  0.11695026  0.37461621  1
  O  O355  1  0.85804883  0.13698496  0.85924252  1
  O  O356  1  0.86915352  0.61622862  0.37003516  1
  O  O357  1  0.87104608  0.61105976  0.87365703  1
  O  O358  1  0.12068413  0.38875966  0.13303308  1
  O  O359  1  0.11154197  0.36727792  0.63723131  1
  O  O360  1  0.10718039  0.90602708  0.13711472  1
  O  O361  1  0.11870789  0.88992237  0.61310610  1
  O  O362  1  0.63481916  0.38455638  0.12526072  1
  O  O363  1  0.63512605  0.38181420  0.61426569  1
  O  O364  1  0.61494080  0.88777509  0.13842865  1
  O  O365  1  0.63012472  0.87644244  0.63238582  1
  O  O366  1  0.11536475  0.24990669  0.24901846  1
  O  O367  1  0.11679129  0.25898683  0.75655410  1
  O  O368  1  0.11955660  0.73630765  0.26199322  1
  O  O369  1  0.17104548  0.78966805  0.73566410  1
  O  O370  1  0.61723263  0.24804083  0.25943615  1
  O  O371  1  0.61909665  0.24523139  0.76492687  1
  O  O372  1  0.61815767  0.75991066  0.25476946  1
  O  O373  1  0.60970254  0.75635592  0.74541998  1
  O  O374  1  0.38008767  0.24626031  0.24440077  1
  O  O375  1  0.37592739  0.24866904  0.72815207  1
  O  O376  1  0.39584035  0.74462941  0.26548221  1
  O  O377  1  0.37755418  0.73952860  0.73660202  1
  O  O378  1  0.87048679  0.23379519  0.24930494  1
  O  O379  1  0.87708072  0.24194700  0.73928182  1
  O  O380  1  0.88123691  0.73657986  0.25161958  1
  O  O381  1  0.90483580  0.83357423  0.74552848  1
  O  O382  1  0.37517576  0.49929654  0.48750149  1
  O  O383  1  0.38089257  0.49576509  0.99355660  1
  O  O384  1  0.38394774  1.00562233  0.48909082  1
  O  O385  1  0.36890025  1.00889635  0.97890487  1
  O  O386  1  0.88289427  0.49138954  0.49083814  1
  O  O387  1  0.87103774  0.49055605  0.98233954  1
  O  O388  1  0.87796542  0.99306541  0.48981084  1
  O  O389  1  0.89356372  1.04607744  0.98833397  1
  O  O390  1  0.15077460  0.00564580  0.01386079  1
  O  O391  1  0.10947222  0.00552122  0.50687830  1
  O  O392  1  0.12460723  0.48977272  0.01077692  1
  O  O393  1  0.10994181  0.49382650  0.49769223  1
  O  O394  1  0.62541951  0.01474843  0.00896479  1
  O  O395  1  0.61118670  0.01091262  0.49955234  1
  O  O396  1  0.61906354  0.49763630  0.01175371  1
  O  O397  1  0.62954085  0.51216300  0.51340486  1
  O  O398  1  0.38198440  0.36767951  0.11505451  1
  O  O399  1  0.38395441  0.36406061  0.61741595  1
  O  O400  1  0.36797289  0.86366633  0.12522544  1
  O  O401  1  0.37744860  0.85841551  0.62701609  1
  O  O402  1  0.86245408  0.38641107  0.11137809  1
  O  O403  1  0.86751943  0.36586921  0.61826484  1
  O  O404  1  0.89297746  0.90478700  0.11950803  1
  O  O405  1  0.85098771  0.88433715  0.60734210  1
  O  O406  1  0.13774673  0.12283928  0.37485269  1
  O  O407  1  0.10912203  0.14162621  0.87477913  1
  O  O408  1  0.13865324  0.61276278  0.37787658  1
  O  O409  1  0.13634563  0.62052026  0.86837968  1
  O  O410  1  0.62828108  0.13114622  0.38090697  1
  O  O411  1  0.62685210  0.13158904  0.88510459  1
  O  O412  1  0.63532578  0.62107504  0.38375761  1
  O  O413  1  0.63678822  0.60541728  0.87945829  1
