# generated using pymatgen
data_V79Zn79O256
_symmetry_space_group_name_H-M   'P 1'
_cell_length_a   16.93799717
_cell_length_b   16.94088882
_cell_length_c   16.91930406
_cell_angle_alpha   90.02016634
_cell_angle_beta   90.16660687
_cell_angle_gamma   89.92804621
_symmetry_Int_Tables_number   1
_chemical_formula_structural   V79Zn79O256
_chemical_formula_sum   'V79 Zn79 O256'
_cell_volume   4854.88043207
_cell_formula_units_Z   1
loop_
 _symmetry_equiv_pos_site_id
 _symmetry_equiv_pos_as_xyz
  1  'x, y, z'
loop_
 _atom_site_type_symbol
 _atom_site_label
 _atom_site_symmetry_multiplicity
 _atom_site_fract_x
 _atom_site_fract_y
 _atom_site_fract_z
 _atom_site_occupancy
  V  V0  1  0.39077871  0.11691583  0.74341465  1
  V  V1  1  0.87060325  0.50207087  0.38468212  1
  V  V2  1  0.23928953  0.00718561  0.74360453  1
  V  V3  1  0.61974677  0.00253127  0.62446321  1
  V  V4  1  0.87516496  0.12766587  0.73566826  1
  V  V5  1  -0.00263286  0.37997850  0.37991206  1
  V  V6  1  0.25544741  0.12565926  0.35995783  1
  V  V7  1  0.12670071  0.50085848  0.12075082  1
  V  V8  1  0.24351410  0.74054946  0.49790008  1
  V  V9  1  0.49251184  0.88556228  0.89128414  1
  V  V10  1  0.49299668  0.37203979  0.37577486  1
  V  V11  1  0.86887876  0.62523868  0.25424245  1
  V  V12  1  0.49349693  0.00386110  0.49995736  1
  V  V13  1  0.25450330  0.11951082  0.87400581  1
  V  V14  1  0.50303619  0.50148288  0.50408508  1
  V  V15  1  0.00749548  0.87414422  0.37853550  1
  V  V16  1  0.74907773  0.00133787  0.24661897  1
  V  V17  1  0.75355046  0.86518362  0.62416545  1
  V  V18  1  0.74730488  0.24916414  -0.00404147  1
  V  V19  1  0.87854633  -0.00111901  0.38224630  1
  V  V20  1  0.39242939  0.23361957  0.62384789  1
  V  V21  1  0.74633511  0.36427233  0.62296960  1
  V  V22  1  0.87506133  0.63358226  0.74182094  1
  V  V23  1  0.75137086  0.13127438  0.38264945  1
  V  V24  1  0.62459198  0.74907586  0.88083205  1
  V  V25  1  0.87414377  0.25119656  0.12545846  1
  V  V26  1  0.25661868  0.37270317  0.10710886  1
  V  V27  1  0.86939797  0.76474169  0.12680773  1
  V  V28  1  0.74332795  0.38113280  0.12619699  1
  V  V29  1  0.75089657  -0.00015179  0.74707980  1
  V  V30  1  0.62416107  0.62220952  0.00953353  1
  V  V31  1  0.38345042  0.74754117  0.62341318  1
  V  V32  1  0.75143042  0.76273996  0.00646439  1
  V  V33  1  0.62224587  0.51288463  0.62684356  1
  V  V34  1  0.62438772  0.87561772  0.75135582  1
  V  V35  1  0.02430785  0.62920851  0.60022242  1
  V  V36  1  0.87492184  -0.00177006  0.87369066  1
  V  V37  1  -0.00369773  0.12652902  0.12381948  1
  V  V38  1  0.37070960  0.62257062  0.75533156  1
  V  V39  1  0.50114547  0.48351266  -0.00268733  1
  V  V40  1  0.01215369  0.75370230  0.25550464  1
  V  V41  1  0.51218234  0.87859643  0.37153678  1
  V  V42  1  0.61958596  0.26314029  0.85927811  1
  V  V43  1  0.13850407  0.75763724  0.87826160  1
  V  V44  1  0.62979438  0.87154084  0.24225193  1
  V  V45  1  0.12662525  0.12739453  -0.00276411  1
  V  V46  1  0.87250967  0.37942623  0.00231292  1
  V  V47  1  0.61931557  0.37308189  0.25027980  1
  V  V48  1  0.73448660  0.73865920  0.48137182  1
  V  V49  1  -0.00521980  0.25585166  0.74049534  1
  V  V50  1  0.38135224  0.87283053  0.49447227  1
  V  V51  1  0.12436817  0.37545426  0.25011057  1
  V  V52  1  0.87327495  0.50575970  0.87466035  1
  V  V53  1  0.50155863  0.74717506  0.74997385  1
  V  V54  1  0.25808006  0.49161706  0.26039037  1
  V  V55  1  -0.00043029  0.50306282  -0.00022586  1
  V  V56  1  -0.00194786  0.25290937  0.24985227  1
  V  V57  1  0.74699248  0.49828953  0.74995043  1
  V  V58  1  0.87251480  0.86666067  0.50181703  1
  V  V59  1  0.74579069  0.50112859  0.25483501  1
  V  V60  1  0.37431104  0.62066375  0.26191609  1
  V  V61  1  0.87484366  0.12697997  0.25129683  1
  V  V62  1  0.24450480  0.87553160  0.62353266  1
  V  V63  1  0.39248057  0.12390445  0.24168032  1
  V  V64  1  0.37271062  0.37079588  0.51035209  1
  V  V65  1  0.62285112  0.12777218  0.50224581  1
  V  V66  1  0.13243837  0.63271207  -0.00006568  1
  V  V67  1  0.01935986  0.11615611  0.62222638  1
  V  V68  1  -0.00624447  -0.00136734  0.00032498  1
  V  V69  1  -0.00227552  0.87378123  0.87578176  1
  V  V70  1  0.36318613  0.75809344  0.12025041  1
  V  V71  1  -0.00209554  0.37019211  0.87376474  1
  V  V72  1  0.62289347  0.25090873  0.37819886  1
  V  V73  1  0.24673141  0.24779508  0.50106669  1
  V  V74  1  0.37659429  0.48142368  0.87558723  1
  V  V75  1  0.49222800  0.62284907  0.12077844  1
  V  V76  1  0.12667970  -0.01118783  0.13551674  1
  V  V77  1  0.87196340  0.35820918  0.50482684  1
  V  V78  1  0.74779841  0.12885248  0.87186893  1
  Zn  Zn79  1  0.12308608  0.24683781  0.37922640  1
  Zn  Zn80  1  0.37691894  0.23751970  0.12052926  1
  Zn  Zn81  1  0.22644398  0.63030616  0.38196398  1
  Zn  Zn82  1  0.11411170  0.08004933  0.48500923  1
  Zn  Zn83  1  0.13131078  0.25323137  0.87236514  1
  Zn  Zn84  1  0.62369426  0.99786746  0.11417296  1
  Zn  Zn85  1  0.12209909  0.87758541  0.74406475  1
  Zn  Zn86  1  0.26690224  0.25486981  -0.00963374  1
  Zn  Zn87  1  0.15353305  0.41091443  0.72010851  1
  Zn  Zn88  1  0.00056540  0.62842370  0.12710454  1
  Zn  Zn89  1  0.74898529  0.62536178  0.88011372  1
  Zn  Zn90  1  0.25188991  0.62445563  0.87523254  1
  Zn  Zn91  1  -0.00456479  0.75339408  0.74419950  1
  Zn  Zn92  1  0.52683387  0.71764856  0.26934073  1
  Zn  Zn93  1  0.26827647  -0.02787576  0.24984742  1
  Zn  Zn94  1  0.18436656  0.18986002  0.17807813  1
  Zn  Zn95  1  0.19332336  0.21714009  0.69424154  1
  Zn  Zn96  1  0.19360351  0.68371459  0.18926176  1
  Zn  Zn97  1  0.18890048  0.69134703  0.68869268  1
  Zn  Zn98  1  0.68978633  0.19391500  0.19259072  1
  Zn  Zn99  1  0.68463870  0.18727319  0.68650809  1
  Zn  Zn100  1  0.68853863  0.68548794  0.18636558  1
  Zn  Zn101  1  0.68834778  0.68530202  0.68929923  1
  Zn  Zn102  1  0.31764695  0.29962563  0.30655538  1
  Zn  Zn103  1  0.31279873  0.30717628  0.79902601  1
  Zn  Zn104  1  0.31759005  0.80386232  0.31246517  1
  Zn  Zn105  1  0.31736346  0.82227714  0.81165821  1
  Zn  Zn106  1  0.80974346  0.31411966  0.31561071  1
  Zn  Zn107  1  0.81524673  0.31511904  0.80771726  1
  Zn  Zn108  1  0.81026436  0.81230796  0.31428532  1
  Zn  Zn109  1  0.80756680  0.81405870  0.81805156  1
  Zn  Zn110  1  0.17154891  0.46301663  0.43080827  1
  Zn  Zn111  1  0.17491719  0.45621140  0.90424521  1
  Zn  Zn112  1  0.21084934  0.92339645  0.41281459  1
  Zn  Zn113  1  0.19345258  0.94088477  0.94438004  1
  Zn  Zn114  1  0.68691745  0.43822119  0.44152885  1
  Zn  Zn115  1  0.68325900  0.43662029  0.93621881  1
  Zn  Zn116  1  0.69034845  0.93972200  0.43906189  1
  Zn  Zn117  1  0.67545411  0.94004468  0.93918292  1
  Zn  Zn118  1  0.30855534  0.04318801  0.06237992  1
  Zn  Zn119  1  0.28323222  0.04486462  0.53851710  1
  Zn  Zn120  1  0.31649920  0.55856906  0.05825332  1
  Zn  Zn121  1  0.32932092  0.56637313  0.56204391  1
  Zn  Zn122  1  0.78385890  0.04201585  0.04036319  1
  Zn  Zn123  1  0.81139233  0.05836023  0.56268805  1
  Zn  Zn124  1  0.81210477  0.56797346  0.06794660  1
  Zn  Zn125  1  0.81010180  0.56476354  0.56414864  1
  Zn  Zn126  1  0.43950568  0.43647206  0.18152250  1
  Zn  Zn127  1  0.44326462  0.42937890  0.69162875  1
  Zn  Zn128  1  0.43791390  0.94317820  0.18756547  1
  Zn  Zn129  1  0.43505678  0.93494824  0.69077591  1
  Zn  Zn130  1  0.93504139  0.44064769  0.18912977  1
  Zn  Zn131  1  0.97262836  0.43343765  0.65845602  1
  Zn  Zn132  1  0.94080198  0.94068161  0.19417180  1
  Zn  Zn133  1  0.94113615  0.94018757  0.68406040  1
  Zn  Zn134  1  0.06277803  0.06380146  0.31375935  1
  Zn  Zn135  1  0.06183272  0.06710229  0.81006825  1
  Zn  Zn136  1  0.05521546  0.57060853  0.32203765  1
  Zn  Zn137  1  0.06190145  0.56603280  0.80360589  1
  Zn  Zn138  1  0.56442784  0.05807870  0.31359271  1
  Zn  Zn139  1  0.56576724  0.06379136  0.81749811  1
  Zn  Zn140  1  0.56074673  0.55014425  0.31533106  1
  Zn  Zn141  1  0.55972511  0.55988614  0.81574912  1
  Zn  Zn142  1  0.43763257  0.18595938  0.43139140  1
  Zn  Zn143  1  0.43019747  0.19790051  0.92431632  1
  Zn  Zn144  1  0.48469986  0.67847848  0.42810259  1
  Zn  Zn145  1  0.43683827  0.69460902  0.93985220  1
  Zn  Zn146  1  0.94384930  0.18635300  0.44179789  1
  Zn  Zn147  1  0.93055313  0.18549574  0.93657410  1
  Zn  Zn148  1  0.93138915  0.69015476  0.43908829  1
  Zn  Zn149  1  0.93970463  0.69005987  0.94159125  1
  Zn  Zn150  1  0.06364331  0.31400794  0.05898604  1
  Zn  Zn151  1  0.06438932  0.31270946  0.56519272  1
  Zn  Zn152  1  0.05716923  0.81269020  0.06247829  1
  Zn  Zn153  1  0.05932413  0.80414302  0.55889107  1
  Zn  Zn154  1  0.56772747  0.30234960  0.05784947  1
  Zn  Zn155  1  0.56515543  0.31346268  0.56563106  1
  Zn  Zn156  1  0.55264611  0.80459193  0.07189019  1
  Zn  Zn157  1  0.56613479  0.81339455  0.56323067  1
  O  O158  1  0.11439639  0.11874481  0.11688519  1
  O  O159  1  0.11742221  0.13535781  0.63268101  1
  O  O160  1  0.12514347  0.61545067  0.12007288  1
  O  O161  1  0.12232931  0.62323511  0.62869643  1
  O  O162  1  0.60133117  0.15257976  0.12550416  1
  O  O163  1  0.63311588  0.11379401  0.61472537  1
  O  O164  1  0.61236696  0.62817578  0.11812111  1
  O  O165  1  0.62262121  0.61215326  0.62636545  1
  O  O166  1  0.38880369  0.36053897  0.38263956  1
  O  O167  1  0.37089308  0.38259031  0.86479933  1
  O  O168  1  0.38391960  0.87764592  0.39129980  1
  O  O169  1  0.39332321  0.87441632  0.87642235  1
  O  O170  1  0.87633417  0.38000198  0.38579998  1
  O  O171  1  0.87629872  0.38708509  0.88210768  1
  O  O172  1  0.87689839  0.88245785  0.38177632  1
  O  O173  1  0.88254837  0.88931891  0.86712771  1
  O  O174  1  0.25728148  0.02557021  0.36516630  1
  O  O175  1  0.24871123  0.01018778  0.85695931  1
  O  O176  1  0.26433027  0.48127368  0.35883545  1
  O  O177  1  0.27628394  0.50746669  0.88431644  1
  O  O178  1  0.75650766  0.01054205  0.36796178  1
  O  O179  1  0.75778557  0.00726641  0.86674684  1
  O  O180  1  0.75677319  0.49174168  0.36451299  1
  O  O181  1  0.75551927  0.49887396  0.86820472  1
  O  O182  1  0.24139656  0.49015927  0.12492634  1
  O  O183  1  0.23423988  0.48749067  0.59537504  1
  O  O184  1  0.22861762  1.00614644  0.14525401  1
  O  O185  1  0.25548909  0.98992062  0.63853860  1
  O  O186  1  0.75348266  0.48750656  0.13484767  1
  O  O187  1  0.73762569  0.49784500  0.63040071  1
  O  O188  1  0.76421133  1.00766594  0.14744711  1
  O  O189  1  0.74031300  0.99050330  0.62820536  1
  O  O190  1  0.00497900  0.37241969  0.25536201  1
  O  O191  1  -0.01905417  0.36241936  0.75892055  1
  O  O192  1  -0.00419753  0.86254542  0.26246309  1
  O  O193  1  0.00368665  0.87495062  0.75932897  1
  O  O194  1  0.50919708  0.38711291  0.25979256  1
  O  O195  1  0.47719017  0.35719667  0.76640983  1
  O  O196  1  0.51553046  0.89148287  0.26273668  1
  O  O197  1  0.50660711  0.86689633  0.75982220  1
  O  O198  1  0.49197243  0.12117030  0.25254171  1
  O  O199  1  0.48948128  0.11559406  0.75012107  1
  O  O200  1  0.48164577  0.60199030  0.23481223  1
  O  O201  1  0.49364007  0.64117389  0.75976342  1
  O  O202  1  0.99342337  0.13365248  0.24646297  1
  O  O203  1  0.99180061  0.13165630  0.74130647  1
  O  O204  1  0.99159582  0.63739544  0.25287866  1
  O  O205  1  0.98164572  0.63047008  0.75856045  1
  O  O206  1  0.38004692  0.24360457  0.00981417  1
  O  O207  1  0.37620255  0.25307630  0.50646863  1
  O  O208  1  0.38050020  0.75030847  0.02031621  1
  O  O209  1  0.38835105  0.75710148  0.51440632  1
  O  O210  1  0.86876546  0.26107745  0.00513517  1
  O  O211  1  0.87223901  0.25904490  0.49844528  1
  O  O212  1  0.86910216  0.74353780  0.01926951  1
  O  O213  1  0.85743690  0.76205671  0.49377029  1
  O  O214  1  0.14189924  0.25884299  0.50093768  1
  O  O215  1  0.12241263  0.23488083  0.99794845  1
  O  O216  1  0.14523401  0.74937693  0.50178080  1
  O  O217  1  0.11813556  0.74512311  0.99082075  1
  O  O218  1  0.62257431  0.23757518  0.49357085  1
  O  O219  1  0.64487408  0.25271702  0.98706476  1
  O  O220  1  0.63424535  0.75180892  0.49944120  1
  O  O221  1  0.63095990  0.74292153  0.99933031  1
  O  O222  1  0.53997734  0.20271677  0.11315960  1
  O  O223  1  0.49184008  0.24280925  0.61852205  1
  O  O224  1  0.49323738  0.73360541  0.14259141  1
  O  O225  1  0.49586071  0.76041283  0.63883929  1
  O  O226  1  0.99377252  0.24813904  0.12969588  1
  O  O227  1  0.99636807  0.24089417  0.63686660  1
  O  O228  1  0.98850041  0.75159684  0.13820445  1
  O  O229  1  1.00225314  0.73347021  0.62959096  1
  O  O230  1  0.00193818  0.26100218  0.36851545  1
  O  O231  1  -0.01188518  0.25956190  0.86891171  1
  O  O232  1  -0.00805333  0.75952028  0.36259967  1
  O  O233  1  0.00212295  0.76534090  0.87795190  1
  O  O234  1  0.51413906  0.25778219  0.37833425  1
  O  O235  1  0.52637596  0.23338994  0.88583549  1
  O  O236  1  0.48861097  0.77797614  0.36801156  1
  O  O237  1  0.51078115  0.76059304  0.87171345  1
  O  O238  1  0.26170509  0.14183892  0.47902137  1
  O  O239  1  0.24124445  0.11968522  0.98946808  1
  O  O240  1  0.26364333  0.63725534  0.50499003  1
  O  O241  1  0.23583535  0.62033067  0.99880440  1
  O  O242  1  0.73915795  0.11568146  0.49007871  1
  O  O243  1  0.77143162  0.14266643  0.98167515  1
  O  O244  1  0.75247361  0.64155620  0.50304536  1
  O  O245  1  0.73788392  0.63017510  1.00394161  1
  O  O246  1  0.24180313  0.37777618  0.00666198  1
  O  O247  1  0.27049041  0.36072010  0.49004899  1
  O  O248  1  0.28262394  0.94516193  0.00900493  1
  O  O249  1  0.26613538  0.85729191  0.50553023  1
  O  O250  1  0.75300315  0.37229497  0.00866683  1
  O  O251  1  0.76159262  0.37795528  0.51050293  1
  O  O252  1  0.74725119  0.86092072  -0.00199187  1
  O  O253  1  0.75251181  0.86778747  0.50597001  1
  O  O254  1  0.13674917  0.49101679  0.23979358  1
  O  O255  1  0.14362665  0.49402027  0.79465050  1
  O  O256  1  0.10251675  0.99525198  0.23381098  1
  O  O257  1  0.13583908  0.99849779  0.74966033  1
  O  O258  1  0.63493231  0.48571660  0.25767348  1
  O  O259  1  0.63331207  0.50502840  0.74120873  1
  O  O260  1  0.63393849  0.99758875  0.24181099  1
  O  O261  1  0.63124814  0.99687718  0.74196989  1
  O  O262  1  0.37458757  0.01541322  0.24828126  1
  O  O263  1  0.36584553  0.01323457  0.74293019  1
  O  O264  1  0.36056263  0.50467343  0.23680250  1
  O  O265  1  0.38670686  0.51548337  0.76118700  1
  O  O266  1  0.87109418  0.00656113  0.26385709  1
  O  O267  1  0.87057717  0.00740125  0.75426462  1
  O  O268  1  0.86525314  0.50503948  0.25764387  1
  O  O269  1  0.86454683  0.51613676  0.76148427  1
  O  O270  1  0.11365000  0.38126253  0.36673590  1
  O  O271  1  0.10244491  0.36730650  0.88685591  1
  O  O272  1  0.10364638  0.87741245  0.38827142  1
  O  O273  1  0.12000830  0.86920808  0.88231259  1
  O  O274  1  0.61989674  0.36740673  0.37350450  1
  O  O275  1  0.62708456  0.36331879  0.87153963  1
  O  O276  1  0.61724090  0.88029047  0.36865754  1
  O  O277  1  0.62420909  0.86462726  0.87035342  1
  O  O278  1  0.36277395  0.11870666  0.13811739  1
  O  O279  1  0.37779751  0.12813818  0.62984214  1
  O  O280  1  0.37773606  0.63004708  0.12680105  1
  O  O281  1  0.37758559  0.63452070  0.64313279  1
  O  O282  1  0.87989575  0.13446134  0.13323517  1
  O  O283  1  0.88256073  0.11725554  0.63139278  1
  O  O284  1  0.88025422  0.62822189  0.14076956  1
  O  O285  1  0.86255161  0.63287181  0.64282804  1
  O  O286  1  0.24505574  0.26596055  0.11622981  1
  O  O287  1  0.26460762  0.23763197  0.60232445  1
  O  O288  1  0.26235703  0.74852542  0.13076771  1
  O  O289  1  0.26352560  0.75535784  0.61890750  1
  O  O290  1  0.75499573  0.25826099  0.11714760  1
  O  O291  1  0.75089860  0.26568766  0.63135522  1
  O  O292  1  0.76205714  0.74804654  0.12229791  1
  O  O293  1  0.74366771  0.76349071  0.62366655  1
  O  O294  1  0.24449200  0.24773843  0.37983338  1
  O  O295  1  0.24916845  0.23553810  0.87534159  1
  O  O296  1  0.26137577  0.73985108  0.39364655  1
  O  O297  1  0.23975806  0.75954407  0.87704663  1
  O  O298  1  0.74194522  0.23960037  0.37463002  1
  O  O299  1  0.74730081  0.24801971  0.87529766  1
  O  O300  1  0.74479362  0.74806813  0.38126939  1
  O  O301  1  0.74004875  0.74763513  0.88691073  1
  O  O302  1  0.00284460  0.11799713  0.00195970  1
  O  O303  1  0.01212751  0.12819462  0.51344222  1
  O  O304  1  0.01133312  0.62048850  0.00377692  1
  O  O305  1  0.01152867  0.63841220  0.49922547  1
  O  O306  1  0.48468558  0.05867084  0.04963015  1
  O  O307  1  0.51033591  0.11460243  0.49117349  1
  O  O308  1  0.50739130  0.62546950  0.00663739  1
  O  O309  1  0.48375685  0.59928483  0.50817527  1
  O  O310  1  0.49279611  0.37517205  0.49510426  1
  O  O311  1  0.50793294  0.38480792  1.00683052  1
  O  O312  1  0.50069528  0.88329523  0.49237081  1
  O  O313  1  0.51070754  0.87068654  0.99003664  1
  O  O314  1  0.98655028  0.36894338  0.48850012  1
  O  O315  1  0.99031412  0.38198982  0.99564949  1
  O  O316  1  0.98651958  0.86162192  0.48781368  1
  O  O317  1  0.99957815  0.88960022  0.99015101  1
  O  O318  1  0.50617781  0.48379494  0.39533416  1
  O  O319  1  0.49082581  0.50107344  0.88644238  1
  O  O320  1  0.50254259  0.99114453  0.38911942  1
  O  O321  1  0.51631246  0.98363866  0.87768364  1
  O  O322  1  0.98342566  0.48654216  0.36540342  1
  O  O323  1  0.98800821  0.49235126  0.88024646  1
  O  O324  1  0.98984353  0.98646965  0.37065185  1
  O  O325  1  0.99424654  0.99601691  0.87904688  1
  O  O326  1  -0.00299776  0.00632808  0.11549416  1
  O  O327  1  0.01002177  0.01583063  0.63192821  1
  O  O328  1  0.01168695  0.49911268  0.12080519  1
  O  O329  1  -0.01785912  0.53975745  0.62422491  1
  O  O330  1  0.50656897  0.00481451  0.11243389  1
  O  O331  1  0.51354020  -0.01023580  0.61782293  1
  O  O332  1  0.49099004  0.50816027  0.10533880  1
  O  O333  1  0.51564423  0.48575130  0.62038240  1
  O  O334  1  0.24359618  0.38061092  0.24013674  1
  O  O335  1  0.22552370  0.32609180  0.73180229  1
  O  O336  1  0.23923132  0.88149579  0.30610856  1
  O  O337  1  0.25009482  0.88719603  0.74295207  1
  O  O338  1  0.74330548  0.38040315  0.24415222  1
  O  O339  1  0.76635023  0.38968205  0.73238623  1
  O  O340  1  0.73570941  0.88607637  0.26002128  1
  O  O341  1  0.74559571  0.88016260  0.74384564  1
  O  O342  1  0.24533862  0.13724372  0.25790713  1
  O  O343  1  0.24846074  0.11671253  0.75104666  1
  O  O344  1  0.25612050  0.60802752  0.25859959  1
  O  O345  1  0.26717753  0.63262706  0.75399966  1
  O  O346  1  0.75471416  0.12255799  0.26182653  1
  O  O347  1  0.75846726  0.11999979  0.75115814  1
  O  O348  1  0.75517107  0.61151824  0.24384290  1
  O  O349  1  0.75564753  0.61714007  0.75738615  1
  O  O350  1  0.36528203  0.13958566  0.35509821  1
  O  O351  1  0.36620849  0.13163226  0.85367587  1
  O  O352  1  0.38552533  0.62008621  0.35989583  1
  O  O353  1  0.37491609  0.63407551  0.86399551  1
  O  O354  1  0.87119994  0.11973090  0.37460732  1
  O  O355  1  0.87046748  0.11579333  0.86033699  1
  O  O356  1  0.87903459  0.61627429  0.36293178  1
  O  O357  1  0.87168779  0.61525583  0.87989019  1
  O  O358  1  0.13046721  0.38288502  0.12959012  1
  O  O359  1  0.07915720  0.39517989  0.63707741  1
  O  O360  1  0.11954970  0.89057788  0.11589214  1
  O  O361  1  0.14093543  0.86247939  0.62441455  1
  O  O362  1  0.63404821  0.36494411  0.13565854  1
  O  O363  1  0.64285004  0.38047999  0.61976829  1
  O  O364  1  0.61597887  0.87936466  0.13947421  1
  O  O365  1  0.63388322  0.88363317  0.63137764  1
  O  O366  1  0.11814576  0.26538022  0.24709174  1
  O  O367  1  0.09587678  0.24235390  0.76031136  1
  O  O368  1  0.11032703  0.74107630  0.24914832  1
  O  O369  1  0.12268210  0.75444160  0.76904860  1
  O  O370  1  0.63069685  0.26385348  0.26448521  1
  O  O371  1  0.62661170  0.24949746  0.75918488  1
  O  O372  1  0.63007293  0.76792686  0.24415253  1
  O  O373  1  0.62117859  0.75305882  0.76044276  1
  O  O374  1  0.38034252  0.23725821  0.23478274  1
  O  O375  1  0.37317565  0.23242738  0.73104120  1
  O  O376  1  0.37289324  0.72668193  0.24610482  1
  O  O377  1  0.38311739  0.74724119  0.74419991  1
  O  O378  1  0.87792563  0.24749302  0.24665196  1
  O  O379  1  0.88188916  0.23706435  0.75296674  1
  O  O380  1  0.87306934  0.74315917  0.24162022  1
  O  O381  1  0.87000951  0.73599073  0.76428002  1
  O  O382  1  0.38819018  0.47900205  0.51519082  1
  O  O383  1  0.38971791  0.49934547  0.98708926  1
  O  O384  1  0.38600778  0.98832903  0.51361381  1
  O  O385  1  0.42411054  1.03776905  1.00798002  1
  O  O386  1  0.86750663  0.49957410  0.48722390  1
  O  O387  1  0.87754133  0.49908369  0.99622861  1
  O  O388  1  0.86770733  0.98867953  0.48822706  1
  O  O389  1  0.88169611  1.00889330  0.98502248  1
  O  O390  1  0.11200764  0.01069540  0.00819360  1
  O  O391  1  0.18237193  -0.00468921  0.50009401  1
  O  O392  1  0.11927024  0.50910064  0.00267770  1
  O  O393  1  0.17291243  0.48755751  0.54941427  1
  O  O394  1  0.67183400  0.01796678  0.01599503  1
  O  O395  1  0.61750465  0.00653425  0.50629150  1
  O  O396  1  0.61116172  0.51065838  -0.00891490  1
  O  O397  1  0.61484875  0.49656061  0.51283307  1
  O  O398  1  0.35804932  0.37573316  0.12434239  1
  O  O399  1  0.37860659  0.35685744  0.61471147  1
  O  O400  1  0.38235727  0.85499937  0.14567927  1
  O  O401  1  0.36816147  0.86603619  0.62148911  1
  O  O402  1  0.86533723  0.37106659  0.12309770  1
  O  O403  1  0.87432562  0.38304148  0.60718041  1
  O  O404  1  0.87606778  0.86324737  0.13355327  1
  O  O405  1  0.86574122  0.88470066  0.61392788  1
  O  O406  1  0.13275376  0.12753871  0.37797479  1
  O  O407  1  0.13224300  0.12418061  0.88227633  1
  O  O408  1  0.13605409  0.56823130  0.39642554  1
  O  O409  1  0.12735050  0.64369440  0.88200893  1
  O  O410  1  0.63221943  0.13109966  0.38107807  1
  O  O411  1  0.64527111  0.13051414  0.86706749  1
  O  O412  1  0.57093513  0.65105291  0.35630600  1
  O  O413  1  0.62244681  0.63654374  0.88622311  1
