# generated using pymatgen
data_V79Zn79O256
_symmetry_space_group_name_H-M   'P 1'
_cell_length_a   16.86702310
_cell_length_b   16.86966252
_cell_length_c   16.87253446
_cell_angle_alpha   90.02132861
_cell_angle_beta   90.05005725
_cell_angle_gamma   90.04831901
_symmetry_Int_Tables_number   1
_chemical_formula_structural   V79Zn79O256
_chemical_formula_sum   'V79 Zn79 O256'
_cell_volume   4800.92374555
_cell_formula_units_Z   1
loop_
 _symmetry_equiv_pos_site_id
 _symmetry_equiv_pos_as_xyz
  1  'x, y, z'
loop_
 _atom_site_type_symbol
 _atom_site_label
 _atom_site_symmetry_multiplicity
 _atom_site_fract_x
 _atom_site_fract_y
 _atom_site_fract_z
 _atom_site_occupancy
  V  V0  1  0.65770489  0.51485028  0.63675342  1
  V  V1  1  0.86828166  0.00361338  0.87279218  1
  V  V2  1  0.37422462  0.75357090  0.62539833  1
  V  V3  1  0.37081319  0.36299998  0.50743251  1
  V  V4  1  0.00038818  0.75249478  0.75135472  1
  V  V5  1  0.62620076  0.62704133  0.49815989  1
  V  V6  1  0.50381518  0.00327930  0.50445452  1
  V  V7  1  0.24876898  0.74913571  0.00292351  1
  V  V8  1  0.49038483  0.36932416  0.87827781  1
  V  V9  1  0.49952461  0.49459136  0.49732676  1
  V  V10  1  0.24441995  0.62222313  0.87195941  1
  V  V11  1  0.74876903  0.35403605  0.12523352  1
  V  V12  1  0.22865047  -0.01483994  0.73963429  1
  V  V13  1  0.00320609  0.37239932  0.36898593  1
  V  V14  1  0.87731809  0.75072500  0.63170943  1
  V  V15  1  0.01368402  0.25155186  0.74859127  1
  V  V16  1  0.24262014  0.14198201  0.38090966  1
  V  V17  1  0.62835139  0.00539634  0.63954824  1
  V  V18  1  0.12492228  0.75229967  0.87632126  1
  V  V19  1  0.00571213  0.87864664  0.87382074  1
  V  V20  1  0.50002350  0.49810750  0.00034927  1
  V  V21  1  0.24786877  0.12539713  0.87808758  1
  V  V22  1  0.62842885  0.12292214  0.49366432  1
  V  V23  1  0.64239388  0.38855694  0.76287102  1
  V  V24  1  0.37635400  0.49680876  0.37582009  1
  V  V25  1  -0.02591603  0.50755252  -0.00046082  1
  V  V26  1  0.37138064  0.87656567  0.50322334  1
  V  V27  1  0.37658492  0.00203219  0.37729158  1
  V  V28  1  0.49783590  0.12411618  0.12382025  1
  V  V29  1  0.86792532  0.35955137  -0.00386083  1
  V  V30  1  -0.00883415  0.75367767  0.25273368  1
  V  V31  1  0.24284876  0.37685734  0.62648200  1
  V  V32  1  0.00789589  0.10706533  0.61991027  1
  V  V33  1  0.87160936  0.12229177  0.74888327  1
  V  V34  1  0.01013244  0.00165896  0.00367718  1
  V  V35  1  0.12459934  0.12332015  0.50166959  1
  V  V36  1  0.49780420  0.62100225  0.62484517  1
  V  V37  1  0.00435077  0.13473377  0.13013110  1
  V  V38  1  0.37005594  0.49731401  0.87474152  1
  V  V39  1  0.25109881  0.87435236  0.12583744  1
  V  V40  1  0.63825851  -0.00287484  0.12698916  1
  V  V41  1  0.86402979  0.13096986  0.24878071  1
  V  V42  1  0.12336914  0.61473871  0.00848911  1
  V  V43  1  0.38206137  0.74944631  0.13043747  1
  V  V44  1  0.37696544  0.62478457  0.25368373  1
  V  V45  1  0.12301992  0.87430228  0.25835780  1
  V  V46  1  0.87996416  0.24835899  0.62033530  1
  V  V47  1  0.87200423  0.50408548  0.37586486  1
  V  V48  1  0.50376406  0.86499089  0.86831505  1
  V  V49  1  0.37649926  0.11240806  0.73982533  1
  V  V50  1  0.00204333  0.49306753  0.50516682  1
  V  V51  1  0.00471690  0.63016514  0.62447415  1
  V  V52  1  0.87743811  0.00512469  0.36561108  1
  V  V53  1  0.75840940  0.24484980  0.48673160  1
  V  V54  1  0.24271430  0.49997475  0.25218160  1
  V  V55  1  0.61374946  0.25866708  0.37361896  1
  V  V56  1  0.51484690  0.74942190  0.75046191  1
  V  V57  1  0.74534236  0.87862957  0.64218074  1
  V  V58  1  0.50602758  0.62127671  0.12484751  1
  V  V59  1  -0.00417126  0.62107224  0.13627947  1
  V  V60  1  0.74993805  0.75603780  0.50194741  1
  V  V61  1  0.24846126  0.00130008  0.25366456  1
  V  V62  1  0.12426242  0.39646205  0.75034720  1
  V  V63  1  0.49373217  -0.00164261  -0.00760294  1
  V  V64  1  0.63098830  0.24640247  0.88028949  1
  V  V65  1  0.63137313  0.87752549  0.24578859  1
  V  V66  1  0.74856159  0.51043823  0.23890129  1
  V  V67  1  0.49420353  0.25134966  0.73538747  1
  V  V68  1  0.36839650  0.25496503  0.10478248  1
  V  V69  1  0.62581170  0.62886087  -0.02794417  1
  V  V70  1  0.88819389  0.88418478  0.49552992  1
  V  V71  1  0.12747263  0.74581935  0.37429382  1
  V  V72  1  0.36530912  0.62404152  0.75027799  1
  V  V73  1  0.61868954  0.75482883  0.37244871  1
  V  V74  1  0.75627710  0.36919362  0.61966298  1
  V  V75  1  0.25427877  0.74516948  0.49259103  1
  V  V76  1  0.12918746  0.62367631  0.50109153  1
  V  V77  1  0.37418252  0.13238141  0.25119558  1
  V  V78  1  0.24409509  0.37813983  0.10903081  1
  Zn  Zn79  1  0.49751062  0.87211512  0.36775284  1
  Zn  Zn80  1  0.79189265  0.52116144  0.78533855  1
  Zn  Zn81  1  0.76700993  0.14325226  0.88671140  1
  Zn  Zn82  1  0.86357824  0.75795998  0.12797635  1
  Zn  Zn83  1  0.00457717  0.24544347  0.25706404  1
  Zn  Zn84  1  0.13897258  0.25595103  0.89262147  1
  Zn  Zn85  1  0.63615263  0.12765433  0.00516893  1
  Zn  Zn86  1  0.86342438  0.87568445  0.00579064  1
  Zn  Zn87  1  0.76073071  0.63296054  0.37218888  1
  Zn  Zn88  1  0.49478650  0.26321813  0.25178854  1
  Zn  Zn89  1  0.13128851  0.36448266  0.25367807  1
  Zn  Zn90  1  0.61550011  0.38706945  0.24068496  1
  Zn  Zn91  1  0.37090693  0.87722995  -0.00644036  1
  Zn  Zn92  1  0.74299045  0.75285579  0.00385306  1
  Zn  Zn93  1  0.12949775  0.00369745  0.12139242  1
  Zn  Zn94  1  0.18244117  0.19478577  0.18376579  1
  Zn  Zn95  1  0.20042347  0.18591098  0.68274509  1
  Zn  Zn96  1  0.18806570  0.68466587  0.18881380  1
  Zn  Zn97  1  0.17149359  0.73458876  0.67065320  1
  Zn  Zn98  1  0.68305572  0.18519909  0.19192758  1
  Zn  Zn99  1  0.68603115  0.19219065  0.68935166  1
  Zn  Zn100  1  0.68409708  0.69034365  0.19196019  1
  Zn  Zn101  1  0.70317160  0.68545149  0.70150328  1
  Zn  Zn102  1  0.31615014  0.32098292  0.31333264  1
  Zn  Zn103  1  0.30689982  0.31107149  0.80379750  1
  Zn  Zn104  1  0.31374037  0.81250138  0.31350421  1
  Zn  Zn105  1  0.31923578  0.81595036  0.81414403  1
  Zn  Zn106  1  0.81889058  0.32018670  0.30927114  1
  Zn  Zn107  1  0.82344190  0.31613216  0.81183039  1
  Zn  Zn108  1  0.80824694  0.82221947  0.31636103  1
  Zn  Zn109  1  0.79789608  0.82097598  0.84113020  1
  Zn  Zn110  1  0.18977009  0.43705367  0.43836449  1
  Zn  Zn111  1  0.17490104  0.44175064  0.93050963  1
  Zn  Zn112  1  0.18483335  0.93763352  0.44407977  1
  Zn  Zn113  1  0.19409291  0.94371640  0.92824598  1
  Zn  Zn114  1  0.68855389  0.43660577  0.44453746  1
  Zn  Zn115  1  0.68742024  0.43739191  0.94337576  1
  Zn  Zn116  1  0.69450991  0.93974274  0.43486016  1
  Zn  Zn117  1  0.68289792  0.94032839  0.93687288  1
  Zn  Zn118  1  0.31180419  0.06379177  0.06187106  1
  Zn  Zn119  1  0.30777441  0.06437123  0.56762087  1
  Zn  Zn120  1  0.31446090  0.56077096  0.06324846  1
  Zn  Zn121  1  0.30958564  0.55834357  0.56606290  1
  Zn  Zn122  1  0.82240435  0.07106274  0.05839528  1
  Zn  Zn123  1  0.81077847  0.06160073  0.56209261  1
  Zn  Zn124  1  0.79783958  0.59709337  0.07311733  1
  Zn  Zn125  1  0.82232903  0.56711541  0.55996628  1
  Zn  Zn126  1  0.43173819  0.43694641  0.18387371  1
  Zn  Zn127  1  0.43749811  0.43459272  0.69014189  1
  Zn  Zn128  1  0.44335502  0.93716079  0.18889411  1
  Zn  Zn129  1  0.44282974  0.93606634  0.68636549  1
  Zn  Zn130  1  0.92750148  0.43711881  0.18651821  1
  Zn  Zn131  1  0.93749930  0.43123959  0.67882506  1
  Zn  Zn132  1  0.92964145  0.93724707  0.18392251  1
  Zn  Zn133  1  0.93694920  0.93168321  0.69087590  1
  Zn  Zn134  1  0.05648555  0.05762581  0.31939786  1
  Zn  Zn135  1  0.06719815  0.06556101  0.81116902  1
  Zn  Zn136  1  0.06231038  0.56310790  0.31774980  1
  Zn  Zn137  1  -0.00327272  0.54084582  0.79418279  1
  Zn  Zn138  1  0.56605729  0.06437929  0.31070021  1
  Zn  Zn139  1  0.55605955  0.06891209  0.81313928  1
  Zn  Zn140  1  0.56255515  0.56202145  0.31157130  1
  Zn  Zn141  1  0.55515372  0.55767140  0.80935020  1
  Zn  Zn142  1  0.43947583  0.18364894  0.44361284  1
  Zn  Zn143  1  0.43514022  0.18021205  0.92640986  1
  Zn  Zn144  1  0.43729873  0.68318311  0.43532912  1
  Zn  Zn145  1  0.43549979  0.68836562  0.93990719  1
  Zn  Zn146  1  0.94252948  0.18109271  0.43526122  1
  Zn  Zn147  1  0.97844985  0.20633472  0.95445765  1
  Zn  Zn148  1  0.94050103  0.69187936  0.43887193  1
  Zn  Zn149  1  0.93074993  0.68891546  0.93926007  1
  Zn  Zn150  1  0.05868513  0.32723493  0.06441499  1
  Zn  Zn151  1  0.07298275  0.30597990  0.56142704  1
  Zn  Zn152  1  0.05962840  0.81330504  0.06469770  1
  Zn  Zn153  1  0.06881737  0.82890286  0.56352946  1
  Zn  Zn154  1  0.56137168  0.31464555  0.06363834  1
  Zn  Zn155  1  0.57357857  0.32070614  0.56255954  1
  Zn  Zn156  1  0.56409164  0.81117907  0.05940679  1
  Zn  Zn157  1  0.56114344  0.81814815  0.56344885  1
  O  O158  1  0.11072408  0.11898424  0.13093829  1
  O  O159  1  0.11627856  0.12441660  0.61641445  1
  O  O160  1  0.11479888  0.63270431  0.11650849  1
  O  O161  1  0.11509651  0.64240912  0.61218325  1
  O  O162  1  0.61466589  0.11523199  0.12799249  1
  O  O163  1  0.63564732  0.11047528  0.61643160  1
  O  O164  1  0.60632860  0.62582053  0.13054136  1
  O  O165  1  0.61496211  0.62309920  0.61473408  1
  O  O166  1  0.37414960  0.38679748  0.39063227  1
  O  O167  1  0.37960023  0.38466079  0.86388401  1
  O  O168  1  0.37658033  0.88532587  0.38152657  1
  O  O169  1  0.39291059  0.87341804  0.88039754  1
  O  O170  1  0.88816694  0.39140268  0.37592758  1
  O  O171  1  0.86313603  0.38230070  0.89617746  1
  O  O172  1  0.87413463  0.88172119  0.38975365  1
  O  O173  1  0.89198324  0.89154719  0.86758350  1
  O  O174  1  0.26099113  0.00400366  0.36856631  1
  O  O175  1  0.24721021  0.01268057  0.85557039  1
  O  O176  1  0.25991603  0.49655756  0.36160245  1
  O  O177  1  0.25530407  0.51309004  0.87954870  1
  O  O178  1  0.77438463  0.00162678  0.38737977  1
  O  O179  1  0.76745946  0.00155328  0.87454663  1
  O  O180  1  0.76592033  0.50068883  0.38767506  1
  O  O181  1  0.70610702  0.46193083  0.83290822  1
  O  O182  1  0.26319899  0.48469441  0.13499922  1
  O  O183  1  0.25307922  0.48242109  0.62378382  1
  O  O184  1  0.25143635  0.99460819  0.13678089  1
  O  O185  1  0.25437291  0.99647106  0.64041100  1
  O  O186  1  0.75008226  0.51016990  0.13907806  1
  O  O187  1  0.75632276  0.47930882  0.59552398  1
  O  O188  1  0.73540830  1.00405442  0.11647689  1
  O  O189  1  0.74213777  0.98810487  0.62566356  1
  O  O190  1  -0.00143629  0.37786216  0.26050514  1
  O  O191  1  0.01586630  0.36086020  0.73280530  1
  O  O192  1  0.01339433  0.86389340  0.24420253  1
  O  O193  1  0.00306319  0.86423482  0.75965827  1
  O  O194  1  0.50298046  0.37536684  0.24332145  1
  O  O195  1  0.50896428  0.36891394  0.75914630  1
  O  O196  1  0.51622454  0.88081773  0.25415383  1
  O  O197  1  0.49592982  0.86375581  0.75921578  1
  O  O198  1  0.48909303  0.12513242  0.24120044  1
  O  O199  1  0.48964221  0.14157097  0.75250077  1
  O  O200  1  0.48701220  0.61470531  0.24053700  1
  O  O201  1  0.49004300  0.63211884  0.74152687  1
  O  O202  1  0.99597907  0.12150643  0.24108862  1
  O  O203  1  0.99675421  0.13224924  0.73395930  1
  O  O204  1  1.01051318  0.63809206  0.24377747  1
  O  O205  1  1.00377907  0.64110991  0.73668919  1
  O  O206  1  0.37627877  0.24350351  0.00697512  1
  O  O207  1  0.38201801  0.26464327  0.49813205  1
  O  O208  1  0.36604822  0.75080762  0.01210857  1
  O  O209  1  0.37394912  0.75545437  0.50246112  1
  O  O210  1  0.88193697  0.26079045  -0.00532253  1
  O  O211  1  0.86426911  0.23762865  0.50401801  1
  O  O212  1  0.86607151  0.75371750  0.00222513  1
  O  O213  1  0.86815126  0.75986727  0.50673390  1
  O  O214  1  0.12462102  0.22787567  0.49848595  1
  O  O215  1  0.07962339  0.25258400  0.98593201  1
  O  O216  1  0.13515519  0.74641124  0.48991317  1
  O  O217  1  0.12896759  0.74321843  0.99565911  1
  O  O218  1  0.63205218  0.24255216  0.49240365  1
  O  O219  1  0.61551511  0.24742142  0.98390091  1
  O  O220  1  0.63099456  0.74679540  0.49742253  1
  O  O221  1  0.62401338  0.73245337  1.00092959  1
  O  O222  1  0.48775463  0.23977660  0.12318701  1
  O  O223  1  0.51564657  0.25632354  0.63750418  1
  O  O224  1  0.48762525  0.74247428  0.11923257  1
  O  O225  1  0.49462588  0.74142838  0.62812577  1
  O  O226  1  0.99847102  0.23545362  0.12662858  1
  O  O227  1  0.99318025  0.24107934  0.62493823  1
  O  O228  1  1.00366951  0.74554469  0.14192724  1
  O  O229  1  0.99476504  0.74941157  0.63079045  1
  O  O230  1  -0.00755142  0.27036986  0.38183430  1
  O  O231  1  -0.00377958  0.24488787  0.84686682  1
  O  O232  1  0.01202809  0.74637454  0.36173387  1
  O  O233  1  0.00353417  0.75573012  0.87136026  1
  O  O234  1  0.51055081  0.24739756  0.37630889  1
  O  O235  1  0.50452387  0.25552129  0.86580486  1
  O  O236  1  0.51434067  0.75157674  0.38385047  1
  O  O237  1  0.49907369  0.75692750  0.86784514  1
  O  O238  1  0.24630953  0.12490498  0.48739433  1
  O  O239  1  0.25727991  0.11493800  0.97892576  1
  O  O240  1  0.24315580  0.63433471  0.50506808  1
  O  O241  1  0.24312290  0.62899407  0.99703368  1
  O  O242  1  0.74200773  0.13590493  0.50337940  1
  O  O243  1  0.74832001  0.12406004  0.99517548  1
  O  O244  1  0.74203419  0.63864900  0.50553617  1
  O  O245  1  0.72605251  0.61155987  0.98244681  1
  O  O246  1  0.24142324  0.38448574  0.00957171  1
  O  O247  1  0.26171134  0.37655266  0.50640115  1
  O  O248  1  0.24914059  0.87218775  0.01049208  1
  O  O249  1  0.26462601  0.86546571  0.49505428  1
  O  O250  1  0.75651287  0.37795260  0.01357270  1
  O  O251  1  0.74328464  0.35215320  0.50737685  1
  O  O252  1  0.75579210  0.85384582  -0.05170128  1
  O  O253  1  0.75505165  0.86537657  0.51007741  1
  O  O254  1  0.14106185  0.50358314  0.25400201  1
  O  O255  1  0.10321793  0.49309074  0.75615418  1
  O  O256  1  0.13500505  0.99126300  0.25608898  1
  O  O257  1  0.12786632  0.99465501  0.74434768  1
  O  O258  1  0.64629728  0.49547890  0.27037951  1
  O  O259  1  0.60096450  0.49052873  0.72778210  1
  O  O260  1  0.62486228  0.99439859  0.23808660  1
  O  O261  1  0.62016027  1.00740254  0.73818697  1
  O  O262  1  0.36855914  0.00977739  0.25691011  1
  O  O263  1  0.38821863  0.01193606  0.74893528  1
  O  O264  1  0.36971346  0.50472223  0.25881214  1
  O  O265  1  0.38272092  0.51396720  0.76107467  1
  O  O266  1  0.87638429  0.00528064  0.25998270  1
  O  O267  1  0.88611557  0.00930544  0.76100341  1
  O  O268  1  0.86037129  0.49979403  0.26453073  1
  O  O269  1  0.89646689  0.50312757  0.75305728  1
  O  O270  1  0.10855647  0.38623639  0.37291293  1
  O  O271  1  0.12932908  0.37057432  0.85384654  1
  O  O272  1  0.13377143  0.86396251  0.36706452  1
  O  O273  1  0.11698802  0.86365559  0.88557690  1
  O  O274  1  0.62727153  0.36018263  0.38106149  1
  O  O275  1  0.60968372  0.36255137  0.87327823  1
  O  O276  1  0.62541219  0.87194050  0.36729836  1
  O  O277  1  0.60258896  0.88396165  0.87499577  1
  O  O278  1  0.37639815  0.13486033  0.13183097  1
  O  O279  1  0.37175703  0.12893962  0.63886712  1
  O  O280  1  0.38140336  0.63233803  0.13101831  1
  O  O281  1  0.38102980  0.63212702  0.63001348  1
  O  O282  1  0.88957802  0.11257822  0.14142148  1
  O  O283  1  0.88597881  0.12754438  0.62757883  1
  O  O284  1  0.89552407  0.63666648  0.13141265  1
  O  O285  1  0.88968254  0.64101196  0.61508921  1
  O  O286  1  0.26056930  0.25846894  0.12314206  1
  O  O287  1  0.25267768  0.27240546  0.63011913  1
  O  O288  1  0.25663979  0.75707172  0.12238250  1
  O  O289  1  0.27046692  0.74520763  0.61188183  1
  O  O290  1  0.75047312  0.25472486  0.12851206  1
  O  O291  1  0.75970625  0.25050247  0.61536014  1
  O  O292  1  0.75833962  0.70933607  0.11180312  1
  O  O293  1  0.75635873  0.75957265  0.62377203  1
  O  O294  1  0.25389883  0.23966765  0.37033557  1
  O  O295  1  0.24936386  0.23642626  0.86523672  1
  O  O296  1  0.24637368  0.74862176  0.38383064  1
  O  O297  1  0.24517211  0.74425259  0.88343290  1
  O  O298  1  0.74801494  0.25320597  0.38479453  1
  O  O299  1  0.73478103  0.25788654  0.86879473  1
  O  O300  1  0.74096589  0.75110832  0.38613206  1
  O  O301  1  0.77864485  0.70088759  0.84162615  1
  O  O302  1  -0.00912302  0.10852459  0.01677501  1
  O  O303  1  0.00839095  0.12220534  0.51071650  1
  O  O304  1  0.00354978  0.62324302  0.01367578  1
  O  O305  1  0.01031054  0.62311386  0.50542298  1
  O  O306  1  0.50086682  0.11427132  0.00576929  1
  O  O307  1  0.50930884  0.11221236  0.50234626  1
  O  O308  1  0.50660616  0.62001126  0.00371685  1
  O  O309  1  0.50731544  0.62001002  0.50677779  1
  O  O310  1  0.49161772  0.38800413  0.51170488  1
  O  O311  1  0.50100029  0.38301253  0.98869387  1
  O  O312  1  0.49206614  0.88592314  0.49367991  1
  O  O313  1  0.49951447  0.88463712  0.99403729  1
  O  O314  1  1.01096230  0.38984086  0.49700990  1
  O  O315  1  0.97413388  0.39860942  1.01956820  1
  O  O316  1  0.98707556  0.86797954  0.50215185  1
  O  O317  1  0.99783425  0.88491992  0.99204654  1
  O  O318  1  0.49441279  0.50505295  0.38862875  1
  O  O319  1  0.49011930  0.49013113  0.87919451  1
  O  O320  1  0.48781941  1.00593137  0.38230980  1
  O  O321  1  0.50130419  0.99897386  0.88880659  1
  O  O322  1  0.99233850  0.49626858  0.38221646  1
  O  O323  1  0.99280417  0.51159344  0.90147863  1
  O  O324  1  0.98171836  0.99905160  0.38114296  1
  O  O325  1  1.00266315  0.99659087  0.88456820  1
  O  O326  1  0.00442821  -0.00448885  0.11261650  1
  O  O327  1  -0.00162081  0.00895910  0.62845723  1
  O  O328  1  -0.00498533  0.51589644  0.12612465  1
  O  O329  1  -0.00227822  0.51147077  0.61042264  1
  O  O330  1  0.50343428  0.01014235  0.11807122  1
  O  O331  1  0.51980004  -0.01067798  0.61539768  1
  O  O332  1  0.48555240  0.50865418  0.10951562  1
  O  O333  1  0.49056910  0.51409337  0.61586670  1
  O  O334  1  0.25201571  0.38720938  0.24389282  1
  O  O335  1  0.23524205  0.38140163  0.74103703  1
  O  O336  1  0.24572484  0.88270924  0.24585130  1
  O  O337  1  0.25184574  0.88676160  0.75960946  1
  O  O338  1  0.75097997  0.38370677  0.23659367  1
  O  O339  1  0.75085147  0.36401680  0.73130704  1
  O  O340  1  0.73300784  0.87668190  0.25113574  1
  O  O341  1  0.75442121  0.86864495  0.74074428  1
  O  O342  1  0.25544942  0.11879382  0.25904822  1
  O  O343  1  0.26010210  0.11113851  0.74920556  1
  O  O344  1  0.26228051  0.60891367  0.23765182  1
  O  O345  1  0.25965607  0.63673589  0.76014676  1
  O  O346  1  0.76478166  0.12577027  0.24475564  1
  O  O347  1  0.76867781  0.13498652  0.75290434  1
  O  O348  1  0.74550084  0.61424143  0.25854495  1
  O  O349  1  0.72992447  0.57720587  0.70081580  1
  O  O350  1  0.36557835  0.12068932  0.37118648  1
  O  O351  1  0.36243803  0.13278157  0.85340382  1
  O  O352  1  0.37817158  0.61522580  0.36501872  1
  O  O353  1  0.36588297  0.62207651  0.86887521  1
  O  O354  1  0.88107486  0.11686870  0.36221092  1
  O  O355  1  0.88411624  0.11411646  0.86602994  1
  O  O356  1  0.87780026  0.61246965  0.38116813  1
  O  O357  1  0.84015162  0.64956936  0.85424546  1
  O  O358  1  0.14099011  0.37200309  0.13077977  1
  O  O359  1  0.13290807  0.37762603  0.63101677  1
  O  O360  1  0.13834812  0.87499874  0.13615903  1
  O  O361  1  0.14428541  0.84025050  0.63772648  1
  O  O362  1  0.64118481  0.37200205  0.12319631  1
  O  O363  1  0.64160306  0.38840431  0.63549595  1
  O  O364  1  0.62188849  0.88473990  0.13294775  1
  O  O365  1  0.63845920  0.88334698  0.62436260  1
  O  O366  1  0.11866720  0.25157926  0.25498590  1
  O  O367  1  0.11571208  0.24511612  0.74205655  1
  O  O368  1  0.12691906  0.75630318  0.25856570  1
  O  O369  1  0.11652841  0.74295850  0.77079260  1
  O  O370  1  0.62285903  0.24883875  0.26687946  1
  O  O371  1  0.61954139  0.26351259  0.75831705  1
  O  O372  1  0.62751287  0.76246263  0.26032193  1
  O  O373  1  0.61447309  0.74310213  0.74279337  1
  O  O374  1  0.37458086  0.24069337  0.24709721  1
  O  O375  1  0.39194453  0.25860671  0.74268223  1
  O  O376  1  0.36705929  0.73892961  0.24213623  1
  O  O377  1  0.38363666  0.74298613  0.74163899  1
  O  O378  1  0.88199119  0.23533919  0.25770231  1
  O  O379  1  0.88642204  0.24414570  0.73771021  1
  O  O380  1  0.88957130  0.75914151  0.25787080  1
  O  O381  1  0.88555638  0.75989621  0.73682427  1
  O  O382  1  0.38219458  0.50048351  0.49183354  1
  O  O383  1  0.38412906  0.50950065  0.98332866  1
  O  O384  1  0.38082411  0.99608113  0.49718527  1
  O  O385  1  0.39032063  0.99632753  1.00958978  1
  O  O386  1  0.89430107  0.50349677  0.49182720  1
  O  O387  1  0.87532451  0.52401243  1.00762062  1
  O  O388  1  0.87697094  0.98660687  0.50517220  1
  O  O389  1  0.88583526  0.99753635  0.98534836  1
  O  O390  1  0.11395604  -0.00225764  -0.00108582  1
  O  O391  1  0.13125908  0.01814516  0.49727360  1
  O  O392  1  0.11388980  0.51097968  0.00114221  1
  O  O393  1  0.11507679  0.51367743  0.49130818  1
  O  O394  1  0.61341003  -0.00025782  0.01296769  1
  O  O395  1  0.62073226  0.00576179  0.49985417  1
  O  O396  1  0.60770924  0.51227935  -0.01037473  1
  O  O397  1  0.62078408  0.50861391  0.51306597  1
  O  O398  1  0.36648459  0.36004454  0.12055739  1
  O  O399  1  0.37002923  0.37976165  0.61312834  1
  O  O400  1  0.36506564  0.86796615  0.13076944  1
  O  O401  1  0.38706466  0.86486542  0.61374452  1
  O  O402  1  0.85719234  0.37845037  0.11664064  1
  O  O403  1  0.87130703  0.35800075  0.62080545  1
  O  O404  1  0.86555675  0.87191344  0.12125905  1
  O  O405  1  0.86452069  0.87137127  0.61739627  1
  O  O406  1  0.13696943  0.12255407  0.38009780  1
  O  O407  1  0.14009810  0.13251018  0.86713127  1
  O  O408  1  0.12430431  0.63606802  0.38529643  1
  O  O409  1  0.13431663  0.63439123  0.88949106  1
  O  O410  1  0.62326530  0.13443527  0.38570941  1
  O  O411  1  0.62670361  0.14044122  0.86995565  1
  O  O412  1  0.62621686  0.63292283  0.38781143  1
  O  O413  1  0.61449863  0.63085212  0.87247374  1
