# generated using pymatgen
data_V79Zn79O256
_symmetry_space_group_name_H-M   'P 1'
_cell_length_a   16.87249637
_cell_length_b   16.84807135
_cell_length_c   16.86286523
_cell_angle_alpha   89.99709218
_cell_angle_beta   89.93806393
_cell_angle_gamma   90.01497584
_symmetry_Int_Tables_number   1
_chemical_formula_structural   V79Zn79O256
_chemical_formula_sum   'V79 Zn79 O256'
_cell_volume   4793.58724749
_cell_formula_units_Z   1
loop_
 _symmetry_equiv_pos_site_id
 _symmetry_equiv_pos_as_xyz
  1  'x, y, z'
loop_
 _atom_site_type_symbol
 _atom_site_label
 _atom_site_symmetry_multiplicity
 _atom_site_fract_x
 _atom_site_fract_y
 _atom_site_fract_z
 _atom_site_occupancy
  V  V0  1  0.86871520  -0.00028841  0.37151241  1
  V  V1  1  0.62426731  0.50750110  0.62387546  1
  V  V2  1  0.74189409  0.12720812  0.38508093  1
  V  V3  1  0.24493888  0.61718229  0.87956556  1
  V  V4  1  0.62461426  0.74919509  0.87972206  1
  V  V5  1  0.84724383  0.78598559  0.11466868  1
  V  V6  1  0.75539926  0.26262749  0.00188736  1
  V  V7  1  -0.00081155  0.36734279  0.37949878  1
  V  V8  1  0.49397464  0.88875981  0.37846752  1
  V  V9  1  0.24181352  0.24636218  0.00261676  1
  V  V10  1  0.26628669  -0.00356777  0.75917901  1
  V  V11  1  0.62816899  0.24594537  0.87107231  1
  V  V12  1  0.61818561  0.00244212  0.61033376  1
  V  V13  1  0.25410916  0.00062661  0.25359882  1
  V  V14  1  0.50184457  0.50834546  0.49801173  1
  V  V15  1  0.38132066  0.63000867  0.75343958  1
  V  V16  1  0.24008673  0.48557228  0.74402419  1
  V  V17  1  0.59733681  0.61981291  0.00475610  1
  V  V18  1  0.37386316  0.87928425  -0.00409657  1
  V  V19  1  0.12996290  0.24948315  0.86014023  1
  V  V20  1  0.36943304  0.24988685  0.62695199  1
  V  V21  1  0.38906897  0.49299092  0.87779583  1
  V  V22  1  0.12304873  0.74583042  0.87712109  1
  V  V23  1  0.13074653  0.50817200  0.11972470  1
  V  V24  1  0.24721118  0.87616421  0.12423680  1
  V  V25  1  0.62228977  0.87040587  0.75143509  1
  V  V26  1  0.75411842  0.37430958  0.62560392  1
  V  V27  1  0.11872920  0.87747320  0.75079542  1
  V  V28  1  0.12605796  0.37181465  0.25609357  1
  V  V29  1  0.87221901  0.37449540  0.50186714  1
  V  V30  1  0.75118731  0.62613921  0.35307334  1
  V  V31  1  0.23917468  0.25088112  0.49936074  1
  V  V32  1  0.74895587  0.02016736  0.74886915  1
  V  V33  1  0.49947731  0.74685080  0.24925629  1
  V  V34  1  0.37400343  0.37693338  0.49906764  1
  V  V35  1  0.00291177  0.64507109  0.63313099  1
  V  V36  1  0.50829874  0.24688446  0.25535244  1
  V  V37  1  0.25071090  0.87071771  0.62649426  1
  V  V38  1  0.37110336  0.89695640  0.49830222  1
  V  V39  1  0.49718499  0.87157555  0.87159455  1
  V  V40  1  0.75380635  0.50016403  0.75236818  1
  V  V41  1  0.75066869  0.86822893  0.62636493  1
  V  V42  1  0.00681599  0.37501137  0.86344077  1
  V  V43  1  0.00541125  0.49728784  -0.00205845  1
  V  V44  1  0.87640905  0.49128305  0.87892888  1
  V  V45  1  0.63354724  0.12408529  -0.00479909  1
  V  V46  1  0.00237852  0.01749936  0.00074318  1
  V  V47  1  0.63211005  0.37839916  0.24807411  1
  V  V48  1  0.87182659  0.87082235  0.49926856  1
  V  V49  1  0.74587277  0.73901074  0.49928524  1
  V  V50  1  0.87338384  0.64893828  0.75237254  1
  V  V51  1  0.50830984  0.36828637  0.38007457  1
  V  V52  1  0.26146100  0.11748284  0.87972412  1
  V  V53  1  0.11956990  0.01481435  0.12143840  1
  V  V54  1  0.63724930  -0.00514252  0.12746214  1
  V  V55  1  0.63442953  0.87634524  0.24859331  1
  V  V56  1  0.37943257  0.74482734  0.12596984  1
  V  V57  1  0.61466253  0.37455972  0.75263372  1
  V  V58  1  0.87765298  0.51370547  0.37283490  1
  V  V59  1  0.00042965  0.24378545  0.24070596  1
  V  V60  1  0.49816563  0.00006830  -0.00333778  1
  V  V61  1  -0.00352193  0.87984378  0.37348249  1
  V  V62  1  0.86669398  0.12278102  0.23796722  1
  V  V63  1  0.24599757  0.74226439  0.00221886  1
  V  V64  1  0.39058686  0.37493875  0.00014730  1
  V  V65  1  -0.01659138  0.62372739  0.12741167  1
  V  V66  1  0.25136130  0.37530012  0.12513181  1
  V  V67  1  0.12847782  0.75072123  0.38271031  1
  V  V68  1  0.37941333  0.74378761  0.61347425  1
  V  V69  1  0.11768377  0.87416030  0.24552464  1
  V  V70  1  0.74947315  0.62421796  0.89188203  1
  V  V71  1  -0.00438259  0.86895652  0.88568806  1
  V  V72  1  0.37062069  0.61723579  0.25806636  1
  V  V73  1  0.48508552  0.11603273  0.60959354  1
  V  V74  1  0.49598954  0.23851151  0.75202247  1
  V  V75  1  0.37757523  0.12429651  0.25578134  1
  V  V76  1  0.23546606  0.13118449  0.37508961  1
  V  V77  1  0.62188750  0.74353122  0.37705735  1
  V  V78  1  0.87216802  0.01595702  0.87024007  1
  Zn  Zn79  1  0.72489336  0.25881709  0.48805274  1
  Zn  Zn80  1  0.25166926  0.62459925  0.39265919  1
  Zn  Zn81  1  0.06716654  0.06007212  0.58160620  1
  Zn  Zn82  1  0.50963971  0.63434317  0.62906173  1
  Zn  Zn83  1  -0.01163775  0.21684420  0.74413752  1
  Zn  Zn84  1  0.86890569  0.27710278  0.12358587  1
  Zn  Zn85  1  0.25490767  0.49489808  0.26161708  1
  Zn  Zn86  1  0.38001474  0.24912476  0.12473491  1
  Zn  Zn87  1  0.13053275  0.64996888  0.52373243  1
  Zn  Zn88  1  0.88370242  0.23969064  0.62908303  1
  Zn  Zn89  1  -0.01017569  0.73569548  0.24758305  1
  Zn  Zn90  1  0.61970322  0.50286281  0.12144609  1
  Zn  Zn91  1  0.78182936  0.46539032  0.21652907  1
  Zn  Zn92  1  0.49999377  0.12365775  0.12469307  1
  Zn  Zn93  1  0.00407683  0.50892016  0.50797859  1
  Zn  Zn94  1  0.18951853  0.19113860  0.18916146  1
  Zn  Zn95  1  0.15507880  0.16026606  0.69945729  1
  Zn  Zn96  1  0.18820616  0.69002957  0.19239261  1
  Zn  Zn97  1  0.19548192  0.68898950  0.69754135  1
  Zn  Zn98  1  0.68784124  0.18689189  0.18531753  1
  Zn  Zn99  1  0.67257230  0.19853520  0.65704435  1
  Zn  Zn100  1  0.75023961  0.63419643  0.12268117  1
  Zn  Zn101  1  0.69166751  0.68954234  0.69575554  1
  Zn  Zn102  1  0.31938014  0.31083629  0.31645109  1
  Zn  Zn103  1  0.31487670  0.30985712  0.81461622  1
  Zn  Zn104  1  0.31138575  0.81338719  0.31404433  1
  Zn  Zn105  1  0.31201082  0.80667887  0.81308521  1
  Zn  Zn106  1  0.81785470  0.30647265  0.31791030  1
  Zn  Zn107  1  0.81497193  0.30544173  0.80870794  1
  Zn  Zn108  1  0.81533203  0.80341814  0.30406131  1
  Zn  Zn109  1  0.80035644  0.82667111  0.84038686  1
  Zn  Zn110  1  0.18875383  0.43800507  0.43874726  1
  Zn  Zn111  1  0.19079867  0.43298436  0.93698489  1
  Zn  Zn112  1  0.19028766  0.93816760  0.43558391  1
  Zn  Zn113  1  0.18292978  0.93647454  0.94083438  1
  Zn  Zn114  1  0.68877804  0.44652664  0.43493655  1
  Zn  Zn115  1  0.67524166  0.43857031  0.93294154  1
  Zn  Zn116  1  0.68967976  0.93517028  0.43132886  1
  Zn  Zn117  1  0.69054757  0.93991197  0.93879258  1
  Zn  Zn118  1  0.31227278  0.06348784  0.06752694  1
  Zn  Zn119  1  0.27149524  0.07480437  0.57832159  1
  Zn  Zn120  1  0.32289965  0.55928083  0.06584807  1
  Zn  Zn121  1  0.30659585  0.56069409  0.56442978  1
  Zn  Zn122  1  0.81434558  0.06003255  0.05473819  1
  Zn  Zn123  1  0.81590368  0.05538912  0.55949795  1
  Zn  Zn124  1  0.80705095  0.45037515  0.05661421  1
  Zn  Zn125  1  0.82438888  0.56289940  0.56847476  1
  Zn  Zn126  1  0.44610424  0.43712749  0.18754534  1
  Zn  Zn127  1  0.43161859  0.43876349  0.68578866  1
  Zn  Zn128  1  0.44023665  0.93562626  0.18384761  1
  Zn  Zn129  1  0.43531229  0.93506977  0.68664616  1
  Zn  Zn130  1  0.94971663  0.44030672  0.19022019  1
  Zn  Zn131  1  0.94501166  0.44576575  0.68477080  1
  Zn  Zn132  1  0.93067818  0.93932073  0.18133789  1
  Zn  Zn133  1  0.93234907  0.93571368  0.69255891  1
  Zn  Zn134  1  0.05922084  0.06057413  0.31244709  1
  Zn  Zn135  1  0.06994841  0.05991585  0.81828370  1
  Zn  Zn136  1  0.06939430  0.55801214  0.31312323  1
  Zn  Zn137  1  0.05989789  0.56460505  0.80528819  1
  Zn  Zn138  1  0.56547850  0.06216817  0.31259177  1
  Zn  Zn139  1  0.56076994  0.06125187  0.81014980  1
  Zn  Zn140  1  0.55891057  0.56135571  0.31064939  1
  Zn  Zn141  1  0.56439161  0.56368711  0.81373827  1
  Zn  Zn142  1  0.43255364  0.18591793  0.43535939  1
  Zn  Zn143  1  0.44052117  0.18975926  0.93678544  1
  Zn  Zn144  1  0.43759788  0.68916449  0.43503767  1
  Zn  Zn145  1  0.43309048  0.69173388  0.93293385  1
  Zn  Zn146  1  0.92998871  0.18666395  0.44044811  1
  Zn  Zn147  1  0.93907631  0.19541207  0.93301913  1
  Zn  Zn148  1  0.94720027  0.69709147  0.44498591  1
  Zn  Zn149  1  0.93116735  0.68206516  0.94942964  1
  Zn  Zn150  1  0.06135323  0.31670817  0.05973341  1
  Zn  Zn151  1  0.06291704  0.32141133  0.57091826  1
  Zn  Zn152  1  0.05610185  0.81231560  0.06117922  1
  Zn  Zn153  1  0.06402885  0.89297149  0.55879619  1
  Zn  Zn154  1  0.56966447  0.30840977  0.06961544  1
  Zn  Zn155  1  0.55746927  0.31381527  0.56795588  1
  Zn  Zn156  1  0.56836373  0.80963230  0.06360193  1
  Zn  Zn157  1  0.56017265  0.81700514  0.55956783  1
  O  O158  1  0.12574569  0.11412070  0.13215353  1
  O  O159  1  0.16451368  0.11501301  0.60010581  1
  O  O160  1  0.13471758  0.60951453  0.12840917  1
  O  O161  1  0.10878125  0.64156314  0.64141838  1
  O  O162  1  0.62276162  0.11220697  0.11702864  1
  O  O163  1  0.60747645  0.10507920  0.62817986  1
  O  O164  1  0.62491403  0.63283149  0.10230430  1
  O  O165  1  0.62593233  0.61284404  0.63686708  1
  O  O166  1  0.38992641  0.37220847  0.38918857  1
  O  O167  1  0.37467889  0.38289681  0.88783787  1
  O  O168  1  0.38076754  0.87389647  0.38719568  1
  O  O169  1  0.38160225  0.86511650  0.88727169  1
  O  O170  1  0.88032009  0.38453286  0.38253024  1
  O  O171  1  0.88501323  0.38441997  0.86799014  1
  O  O172  1  0.87712016  0.87992112  0.37270296  1
  O  O173  1  0.89713370  0.89172722  0.86218048  1
  O  O174  1  0.24574742  0.01218452  0.36210747  1
  O  O175  1  0.24982809  0.00852849  0.87665607  1
  O  O176  1  0.22017669  0.51619409  0.36707774  1
  O  O177  1  0.25726661  0.50568964  0.87371137  1
  O  O178  1  0.75911363  0.00854906  0.37207012  1
  O  O179  1  0.76088937  0.01274899  0.86140084  1
  O  O180  1  0.76292564  0.51228238  0.37518099  1
  O  O181  1  0.75614998  0.50359444  0.87068783  1
  O  O182  1  0.24812524  0.48875981  0.12705270  1
  O  O183  1  0.26313161  0.49686027  0.64619231  1
  O  O184  1  0.23908037  0.99594720  0.13072807  1
  O  O185  1  0.26035385  0.98129704  0.64683478  1
  O  O186  1  0.73744275  0.51605840  0.12511468  1
  O  O187  1  0.74441486  0.49840246  0.63455691  1
  O  O188  1  0.73568625  1.00117221  0.11698575  1
  O  O189  1  0.73746288  0.99348377  0.63110724  1
  O  O190  1  0.00635017  0.36489021  0.25859894  1
  O  O191  1  0.00580607  0.38850987  0.76357831  1
  O  O192  1  0.00757820  0.88169061  0.25199980  1
  O  O193  1  0.01465582  0.87688053  0.76343224  1
  O  O194  1  0.50798302  0.36626971  0.26140672  1
  O  O195  1  0.50997619  0.36225293  0.73501953  1
  O  O196  1  0.49703205  0.86850376  0.26334083  1
  O  O197  1  0.50959313  0.88687614  0.76127821  1
  O  O198  1  0.49439111  0.12974854  0.25258001  1
  O  O199  1  0.50015479  0.13266488  0.74156701  1
  O  O200  1  0.48721506  0.63784400  0.25800219  1
  O  O201  1  0.48650588  0.61550571  0.74751203  1
  O  O202  1  0.99134806  0.13901220  0.25419079  1
  O  O203  1  1.04691086  0.12207383  0.72807139  1
  O  O204  1  1.00562850  0.61649754  0.23211039  1
  O  O205  1  0.98212549  0.63006420  0.74873423  1
  O  O206  1  0.36824169  0.26215160  -0.00070279  1
  O  O207  1  0.37337358  0.25905775  0.50616669  1
  O  O208  1  0.36682765  0.75729071  0.00752087  1
  O  O209  1  0.37097555  0.74520905  0.51237713  1
  O  O210  1  0.85924027  0.24786709  -0.00290515  1
  O  O211  1  0.86921343  0.26808458  0.50306781  1
  O  O212  1  0.88730920  0.75371654  0.02532310  1
  O  O213  1  0.85918907  0.76140058  0.48944405  1
  O  O214  1  0.14121568  0.26388649  0.50367169  1
  O  O215  1  0.13823905  0.25224383  0.99899697  1
  O  O216  1  0.11977526  0.76533749  0.48231754  1
  O  O217  1  0.13889656  0.75696081  0.99268169  1
  O  O218  1  0.63654611  0.23879040  0.55073343  1
  O  O219  1  0.63106587  0.24445037  0.99214262  1
  O  O220  1  0.62944299  0.75692865  0.48568452  1
  O  O221  1  0.61568589  0.73827536  0.98762440  1
  O  O222  1  0.50024748  0.24538770  0.13869262  1
  O  O223  1  0.48887352  0.23283467  0.62979066  1
  O  O224  1  0.48959063  0.76122828  0.13662972  1
  O  O225  1  0.48644789  0.75098240  0.62174568  1
  O  O226  1  0.99143310  0.26050452  0.13639468  1
  O  O227  1  0.99501100  0.27386402  0.64160164  1
  O  O228  1  1.01226759  0.72705553  0.12292893  1
  O  O229  1  0.98181452  0.74008878  0.62588575  1
  O  O230  1  -0.01083166  0.25995154  0.36488540  1
  O  O231  1  0.01535161  0.25476572  0.86750606  1
  O  O232  1  0.00388262  0.76251190  0.36244578  1
  O  O233  1  0.00684074  0.76017419  0.88983089  1
  O  O234  1  0.49950163  0.25483229  0.36846930  1
  O  O235  1  0.51098232  0.24647185  0.86322319  1
  O  O236  1  0.50497412  0.75719397  0.37020946  1
  O  O237  1  0.50620002  0.76190312  0.87454833  1
  O  O238  1  0.25892223  0.13765169  0.48047593  1
  O  O239  1  0.25695478  0.13181894  0.99102317  1
  O  O240  1  0.23699188  0.62348137  0.50566732  1
  O  O241  1  0.26015770  0.63245240  0.99362817  1
  O  O242  1  0.75449779  0.12350809  0.48835275  1
  O  O243  1  0.73839926  0.13368444  0.99966338  1
  O  O244  1  0.75548170  0.63681360  0.49994374  1
  O  O245  1  0.75198546  0.62401289  0.99074104  1
  O  O246  1  0.25752701  0.36629060  0.00981422  1
  O  O247  1  0.26596792  0.36343845  0.48802680  1
  O  O248  1  0.25649838  0.86747497  0.00303462  1
  O  O249  1  0.26402724  0.87656346  0.50932575  1
  O  O250  1  0.74414070  0.36779147  -0.00287402  1
  O  O251  1  0.75298583  0.37931294  0.50803319  1
  O  O252  1  0.76988344  0.86564511  -0.05478739  1
  O  O253  1  0.75110186  0.86548025  0.50529420  1
  O  O254  1  0.12249831  0.48331362  0.23676928  1
  O  O255  1  0.14058189  0.50416921  0.75461025  1
  O  O256  1  0.13035763  0.99362679  0.24217685  1
  O  O257  1  0.14066950  0.97931818  0.76227665  1
  O  O258  1  0.62274581  0.48276090  0.25618515  1
  O  O259  1  0.63252347  0.49379060  0.74854724  1
  O  O260  1  0.61836007  0.99318448  0.23388093  1
  O  O261  1  0.63674477  0.99205652  0.75002865  1
  O  O262  1  0.36169757  0.00569582  0.23986023  1
  O  O263  1  0.36596000  -0.01215537  0.76319012  1
  O  O264  1  0.37675063  0.51365549  0.24833030  1
  O  O265  1  0.36911438  0.50139614  0.76561967  1
  O  O266  1  0.88096714  0.01583533  0.25543363  1
  O  O267  1  0.85844906  -0.00055641  0.75394562  1
  O  O268  1  0.88044753  0.49742354  0.26991248  1
  O  O269  1  0.86403725  0.50528789  0.75997424  1
  O  O270  1  0.11307899  0.37838947  0.36579563  1
  O  O271  1  0.12054728  0.35931619  0.88246446  1
  O  O272  1  0.11670748  0.87162911  0.36367095  1
  O  O273  1  0.11713322  0.86736697  0.87219446  1
  O  O274  1  0.61549839  0.37508292  0.37359176  1
  O  O275  1  0.62376861  0.36501053  0.86068045  1
  O  O276  1  0.61054609  0.87141373  0.36961129  1
  O  O277  1  0.61670005  0.86840990  0.87047344  1
  O  O278  1  0.37664252  0.12790482  0.13884881  1
  O  O279  1  0.37903576  0.12828575  0.62140227  1
  O  O280  1  0.37255830  0.63809787  0.13584083  1
  O  O281  1  0.37465529  0.63505750  0.63307915  1
  O  O282  1  0.86833248  0.12292222  0.13690794  1
  O  O283  1  0.90540023  0.12395085  0.59304680  1
  O  O284  1  0.88489138  0.61970213  0.12644284  1
  O  O285  1  0.86415111  0.63709645  0.64880776  1
  O  O286  1  0.25420477  0.25812312  0.11998426  1
  O  O287  1  0.26260640  0.24448524  0.60647171  1
  O  O288  1  0.25634172  0.75536270  0.11896739  1
  O  O289  1  0.26738718  0.76141408  0.63681139  1
  O  O290  1  0.74832759  0.24978000  0.10674642  1
  O  O291  1  0.76474670  0.27106306  0.63631207  1
  O  O292  1  0.75200654  0.75131302  0.11909364  1
  O  O293  1  0.73403607  0.76113958  0.61526406  1
  O  O294  1  0.25056637  0.24138633  0.38138782  1
  O  O295  1  0.24572293  0.24342003  0.88296428  1
  O  O296  1  0.23291793  0.74987498  0.36797590  1
  O  O297  1  0.24609232  0.73872601  0.88465834  1
  O  O298  1  0.75479089  0.23455041  0.37995347  1
  O  O299  1  0.73747730  0.25415948  0.88460767  1
  O  O300  1  0.74227097  0.74273756  0.37843011  1
  O  O301  1  0.73204920  0.73415452  0.86764609  1
  O  O302  1  0.00090031  0.11705597  -0.00484920  1
  O  O303  1  -0.03161150  0.12346957  0.53324808  1
  O  O304  1  -0.00005273  0.60769001  0.01052738  1
  O  O305  1  0.01176301  0.63153547  0.51362758  1
  O  O306  1  0.50854479  0.11707823  -0.00036211  1
  O  O307  1  0.49334904  0.12191756  0.51072535  1
  O  O308  1  0.49708298  0.62561006  0.00038781  1
  O  O309  1  0.49332614  0.61094830  0.50258847  1
  O  O310  1  0.49442634  0.37866936  0.49718818  1
  O  O311  1  0.48905237  0.36679001  1.00596646  1
  O  O312  1  0.48606086  0.87480012  0.48857224  1
  O  O313  1  0.49320137  0.87913602  0.99325915  1
  O  O314  1  0.98988011  0.37833895  0.49154321  1
  O  O315  1  1.00103048  0.38667691  0.98866219  1
  O  O316  1  0.98298873  0.86123695  0.48225735  1
  O  O317  1  1.00261995  0.88664469  0.98857655  1
  O  O318  1  0.50459465  0.49192026  0.39275906  1
  O  O319  1  0.48767896  0.49818866  0.87344710  1
  O  O320  1  0.49964514  0.98760146  0.37239778  1
  O  O321  1  0.50696196  0.98944655  0.88810998  1
  O  O322  1  0.99173603  0.49545302  0.38153327  1
  O  O323  1  0.99655881  0.49686244  0.87955237  1
  O  O324  1  0.98792852  0.98941345  0.37038566  1
  O  O325  1  0.99946127  0.99479474  0.88404516  1
  O  O326  1  0.00319076  -0.00183395  0.10829533  1
  O  O327  1  0.00677195  -0.02835314  0.62126801  1
  O  O328  1  0.01084456  0.50537002  0.11740547  1
  O  O329  1  -0.02274219  0.53122636  0.61990060  1
  O  O330  1  0.50834148  -0.00158348  0.11070045  1
  O  O331  1  0.50455345  0.00539225  0.62658479  1
  O  O332  1  0.50771783  0.50545482  0.12819785  1
  O  O333  1  0.50759470  0.50020866  0.61695927  1
  O  O334  1  0.24550589  0.37080678  0.24448845  1
  O  O335  1  0.25189757  0.38642935  0.76080379  1
  O  O336  1  0.24220943  0.88345622  0.24553385  1
  O  O337  1  0.24684091  0.87944986  0.75214214  1
  O  O338  1  0.73534910  0.36979211  0.26576329  1
  O  O339  1  0.74375005  0.38581318  0.74648538  1
  O  O340  1  0.73233695  0.87373933  0.26184878  1
  O  O341  1  0.73909773  0.87954335  0.74271788  1
  O  O342  1  0.25471044  0.12279336  0.25811915  1
  O  O343  1  0.24763389  0.10399351  0.76286552  1
  O  O344  1  0.26473373  0.62515384  0.24976098  1
  O  O345  1  0.26169368  0.61608068  0.76321848  1
  O  O346  1  0.76335873  0.13317033  0.25879301  1
  O  O347  1  0.74044103  0.11649847  0.73005500  1
  O  O348  1  0.75552604  0.62921986  0.25519232  1
  O  O349  1  0.75597422  0.61706282  0.76230597  1
  O  O350  1  0.36588369  0.12608881  0.36063216  1
  O  O351  1  0.36046598  0.13265047  0.87305534  1
  O  O352  1  0.36931325  0.63223332  0.36257203  1
  O  O353  1  0.36874073  0.61349694  0.87250114  1
  O  O354  1  0.86894910  0.11596377  0.36867608  1
  O  O355  1  0.89081582  0.11344672  0.86249794  1
  O  O356  1  0.87256365  0.61855661  0.37999839  1
  O  O357  1  0.86891157  0.61783855  0.86968733  1
  O  O358  1  0.13571041  0.37881825  0.13177201  1
  O  O359  1  0.12469117  0.42043332  0.59360243  1
  O  O360  1  0.12726244  0.88269536  0.12943918  1
  O  O361  1  0.13747048  0.85855773  0.64535127  1
  O  O362  1  0.62683185  0.37633831  0.14335948  1
  O  O363  1  0.63486106  0.38863456  0.63512584  1
  O  O364  1  0.62190802  0.88552924  0.13123833  1
  O  O365  1  0.62491461  0.88507681  0.63222840  1
  O  O366  1  0.11081757  0.25809350  0.24374132  1
  O  O367  1  0.14405197  0.25749815  0.76164865  1
  O  O368  1  0.12136808  0.76480136  0.25087994  1
  O  O369  1  0.13576214  0.76199517  0.77049079  1
  O  O370  1  0.61661190  0.25743112  0.24835386  1
  O  O371  1  0.61782944  0.25432532  0.75147487  1
  O  O372  1  0.61062377  0.76193647  0.26120121  1
  O  O373  1  0.62285165  0.76230098  0.75767016  1
  O  O374  1  0.38712661  0.24340843  0.24922958  1
  O  O375  1  0.38390530  0.25734557  0.73970818  1
  O  O376  1  0.37981870  0.74716070  0.24396582  1
  O  O377  1  0.37494395  0.73681078  0.74707430  1
  O  O378  1  0.88307217  0.24162120  0.24487935  1
  O  O379  1  0.87669475  0.23602417  0.74813648  1
  O  O380  1  0.88094341  0.76557134  0.21886084  1
  O  O381  1  0.86232495  0.74603875  0.76992800  1
  O  O382  1  0.38712494  0.48543398  0.51079791  1
  O  O383  1  0.37314586  0.48722907  0.99029575  1
  O  O384  1  0.36762357  0.99364265  0.50619913  1
  O  O385  1  0.38233528  0.98835255  1.00798775  1
  O  O386  1  0.87421188  0.49383186  0.48772531  1
  O  O387  1  0.88438404  0.49946666  0.98565676  1
  O  O388  1  0.86627232  0.98063486  0.48528579  1
  O  O389  1  0.88582113  1.00781872  0.98110716  1
  O  O390  1  0.11304719  0.00088580  0.00630698  1
  O  O391  1  0.11871092  -0.01948474  0.50662680  1
  O  O392  1  0.12036364  0.49206386  0.00927827  1
  O  O393  1  0.12313221  0.47298711  0.53065562  1
  O  O394  1  0.62096749  0.00364357  0.00556465  1
  O  O395  1  0.62553246  -0.00760370  0.51200664  1
  O  O396  1  0.61971351  0.51616751  -0.00667069  1
  O  O397  1  0.61253069  0.49634703  0.51052640  1
  O  O398  1  0.36875874  0.37696532  0.11567870  1
  O  O399  1  0.38204707  0.36231672  0.61130950  1
  O  O400  1  0.36791842  0.86644260  0.11687299  1
  O  O401  1  0.37489983  0.86589470  0.61318082  1
  O  O402  1  0.85965322  0.39134287  0.14116644  1
  O  O403  1  0.86520179  0.39271703  0.61492156  1
  O  O404  1  0.85380647  0.88866589  0.11562300  1
  O  O405  1  0.85728274  0.87977034  0.61603279  1
  O  O406  1  0.13542005  0.12597699  0.37070841  1
  O  O407  1  0.14007939  0.14185875  0.87520075  1
  O  O408  1  0.11350196  0.64762722  0.37228260  1
  O  O409  1  0.13455724  0.63207904  0.87170411  1
  O  O410  1  0.64266205  0.11749219  0.37168327  1
  O  O411  1  0.62133783  0.13297625  0.88247545  1
  O  O412  1  0.63302108  0.63543845  0.36651173  1
  O  O413  1  0.62753964  0.62933601  0.88420971  1
