# generated using pymatgen
data_V79Zn79O256
_symmetry_space_group_name_H-M   'P 1'
_cell_length_a   16.90999098
_cell_length_b   16.88501734
_cell_length_c   16.92992554
_cell_angle_alpha   90.08361697
_cell_angle_beta   89.99995186
_cell_angle_gamma   89.99590993
_symmetry_Int_Tables_number   1
_chemical_formula_structural   V79Zn79O256
_chemical_formula_sum   'V79 Zn79 O256'
_cell_volume   4833.92014003
_cell_formula_units_Z   1
loop_
 _symmetry_equiv_pos_site_id
 _symmetry_equiv_pos_as_xyz
  1  'x, y, z'
loop_
 _atom_site_type_symbol
 _atom_site_label
 _atom_site_symmetry_multiplicity
 _atom_site_fract_x
 _atom_site_fract_y
 _atom_site_fract_z
 _atom_site_occupancy
  V  V0  1  0.74157704  0.87949401  0.62084510  1
  V  V1  1  0.13955601  0.13234095  0.49668224  1
  V  V2  1  0.62255600  0.87184420  0.24849621  1
  V  V3  1  0.62132623  0.74437341  0.37268507  1
  V  V4  1  0.36583747  0.37648298  0.50584864  1
  V  V5  1  0.37235579  0.75042368  0.10187559  1
  V  V6  1  0.24216170  0.75911215  0.49391586  1
  V  V7  1  0.48901739  0.88213423  0.37857042  1
  V  V8  1  0.24866733  0.12120900  0.88475921  1
  V  V9  1  0.74664800  0.49894153  0.74604567  1
  V  V10  1  0.12623849  0.63150735  0.01082475  1
  V  V11  1  0.37474895  0.74307524  0.63023495  1
  V  V12  1  0.00143366  0.50748414  0.01543788  1
  V  V13  1  0.74580227  0.25078708  0.00100904  1
  V  V14  1  0.25329557  0.87740817  0.63940149  1
  V  V15  1  0.49009168  0.00116312  -0.00660920  1
  V  V16  1  0.62561264  0.11823325  0.50727909  1
  V  V17  1  0.62173665  0.62200128  0.49755205  1
  V  V18  1  0.62494679  0.49314219  0.62772731  1
  V  V19  1  0.87944954  0.63382643  0.23901261  1
  V  V20  1  0.26361850  0.26497193  0.00126891  1
  V  V21  1  0.12881011  0.38054053  0.24303865  1
  V  V22  1  0.87467602  -0.00002030  0.37222441  1
  V  V23  1  0.25758383  0.88475288  0.10450044  1
  V  V24  1  0.86686667  0.37735123  0.01013178  1
  V  V25  1  0.62282124  0.49402650  0.12035938  1
  V  V26  1  0.01634503  0.01616310  0.00073847  1
  V  V27  1  0.23770010  0.62436340  0.36652001  1
  V  V28  1  0.00781949  0.86677278  0.36352759  1
  V  V29  1  0.87899686  0.49584517  0.38589096  1
  V  V30  1  0.14648385  0.25310721  0.38582187  1
  V  V31  1  0.88129002  0.74318828  0.62035302  1
  V  V32  1  0.87377636  0.50058521  0.87494945  1
  V  V33  1  0.36675087  0.51014817  0.36424731  1
  V  V34  1  0.49807755  0.86024219  0.87249758  1
  V  V35  1  0.48766156  -0.00357889  0.50913280  1
  V  V36  1  0.49293647  0.50076128  0.50247755  1
  V  V37  1  0.87799391  0.12236844  0.24400135  1
  V  V38  1  0.12244506  0.38416528  0.75090322  1
  V  V39  1  0.11675841  0.61431440  0.51361319  1
  V  V40  1  -0.00374975  0.12958769  0.62558997  1
  V  V41  1  0.00518666  0.00179288  0.49326181  1
  V  V42  1  0.37807916  0.50072851  0.89665615  1
  V  V43  1  0.12798449  -0.00571448  0.63527455  1
  V  V44  1  0.87443708  0.88871184  -0.01604301  1
  V  V45  1  0.49631656  0.62732969  0.63913246  1
  V  V46  1  -0.01230169  0.25004235  0.75094466  1
  V  V47  1  0.76550088  0.37412410  0.62346322  1
  V  V48  1  0.75267655  0.86841541  0.12185261  1
  V  V49  1  -0.00827927  0.36651858  0.38425834  1
  V  V50  1  0.74504015  -0.00082178  0.25059905  1
  V  V51  1  0.12497462  0.24969184  0.88226542  1
  V  V52  1  0.50382316  0.12792672  0.63615744  1
  V  V53  1  -0.00417175  0.37567902  0.88158036  1
  V  V54  1  0.61845869  0.63093984  0.00064113  1
  V  V55  1  0.74817459  0.74711069  0.49711308  1
  V  V56  1  0.74613231  0.63090921  0.87400504  1
  V  V57  1  0.75298426  0.48611923  0.23929077  1
  V  V58  1  0.74781386  -0.00264007  0.75195781  1
  V  V59  1  0.13443825  0.86959007  0.24355858  1
  V  V60  1  0.37636192  0.25390067  0.63710348  1
  V  V61  1  0.74750653  0.62080224  0.37272855  1
  V  V62  1  0.76391144  0.25279811  0.50631223  1
  V  V63  1  0.61837262  0.00467667  0.12184946  1
  V  V64  1  0.88444840  0.62628484  0.74402526  1
  V  V65  1  0.75849287  0.11575872  0.87775052  1
  V  V66  1  0.62097513  0.26075718  0.37904942  1
  V  V67  1  0.62078817  0.85910623  0.75088358  1
  V  V68  1  0.36649445  0.11932765  0.75137949  1
  V  V69  1  0.49834698  0.36606224  0.88249851  1
  V  V70  1  0.48698893  0.73939446  0.25034564  1
  V  V71  1  0.41638682  0.25387900  0.16381405  1
  V  V72  1  0.87193075  0.24958159  0.12931913  1
  V  V73  1  0.62360205  0.12588806  -0.00849561  1
  V  V74  1  0.24438608  0.37457622  0.62844531  1
  V  V75  1  0.26067339  0.50774983  0.75116514  1
  V  V76  1  0.75752250  0.74966836  0.00063247  1
  V  V77  1  0.87454163  0.87332942  0.49702609  1
  V  V78  1  0.12686621  0.75561840  0.86910302  1
  Zn  Zn79  1  0.22284166  0.01611896  0.24343536  1
  Zn  Zn80  1  0.36689741  -0.00960548  0.86970540  1
  Zn  Zn81  1  0.02694892  0.70457700  0.18272087  1
  Zn  Zn82  1  0.49043717  0.61872238  0.12253512  1
  Zn  Zn83  1  0.01603138  0.23677773  0.24962483  1
  Zn  Zn84  1  0.25052002  0.63011442  0.87934322  1
  Zn  Zn85  1  0.26201150  0.37940880  0.12568591  1
  Zn  Zn86  1  0.00469705  0.76051733  0.74476095  1
  Zn  Zn87  1  0.60578943  0.34482361  0.75553998  1
  Zn  Zn88  1  0.87951646  0.11124930  0.75547981  1
  Zn  Zn89  1  0.32722467  0.08859482  0.33543517  1
  Zn  Zn90  1  0.59014546  0.34044441  0.22135437  1
  Zn  Zn91  1  0.48836764  0.37281725  0.36938932  1
  Zn  Zn92  1  0.74257911  0.12507605  0.37671295  1
  Zn  Zn93  1  0.00139857  0.88700416  0.86216039  1
  Zn  Zn94  1  0.20367719  0.19290852  0.19949077  1
  Zn  Zn95  1  0.18380167  0.19165486  0.69161988  1
  Zn  Zn96  1  0.19730053  0.69539512  0.18109661  1
  Zn  Zn97  1  0.18499089  0.68843385  0.68551960  1
  Zn  Zn98  1  0.68554123  0.18577625  0.18622471  1
  Zn  Zn99  1  0.69087660  0.18314791  0.68721163  1
  Zn  Zn100  1  0.68771217  0.68351635  0.18675939  1
  Zn  Zn101  1  0.69023591  0.68361424  0.68208214  1
  Zn  Zn102  1  0.31479206  0.31869456  0.31254664  1
  Zn  Zn103  1  0.31568881  0.31670419  0.81616385  1
  Zn  Zn104  1  0.31005745  0.81038457  0.31599226  1
  Zn  Zn105  1  0.31171978  0.80801459  0.81463971  1
  Zn  Zn106  1  0.80595651  0.30867425  0.31777301  1
  Zn  Zn107  1  0.78175231  0.29417688  0.80052524  1
  Zn  Zn108  1  0.81294967  0.81169956  0.31160466  1
  Zn  Zn109  1  0.81056531  0.81023214  0.80598303  1
  Zn  Zn110  1  0.18316646  0.44055955  0.43775596  1
  Zn  Zn111  1  0.18467023  0.44405509  0.93893914  1
  Zn  Zn112  1  0.19383686  0.94779867  0.42632525  1
  Zn  Zn113  1  0.18216495  0.94174945  0.93716720  1
  Zn  Zn114  1  0.69469321  0.43973829  0.44348521  1
  Zn  Zn115  1  0.68229736  0.43816086  0.93686743  1
  Zn  Zn116  1  0.68040126  0.93573553  0.43608236  1
  Zn  Zn117  1  0.68124405  0.93493787  0.93329128  1
  Zn  Zn118  1  0.31861823  0.08237362  0.08642008  1
  Zn  Zn119  1  0.31454911  0.06197864  0.56754110  1
  Zn  Zn120  1  0.30691787  0.56086417  0.07411798  1
  Zn  Zn121  1  0.30161561  0.56506616  0.56323018  1
  Zn  Zn122  1  0.80907024  0.05869149  0.06564398  1
  Zn  Zn123  1  0.81284130  0.06121503  0.56311204  1
  Zn  Zn124  1  0.81108810  0.56494987  0.06248887  1
  Zn  Zn125  1  0.94908199  0.55799032  0.56480507  1
  Zn  Zn126  1  0.43762399  0.43676602  0.18589635  1
  Zn  Zn127  1  0.43757399  0.43919557  0.69496921  1
  Zn  Zn128  1  0.43959616  0.93047092  0.18121849  1
  Zn  Zn129  1  0.43553488  0.93409089  0.68865753  1
  Zn  Zn130  1  0.94341288  0.43138153  0.19695558  1
  Zn  Zn131  1  0.93800225  0.43794651  0.69203355  1
  Zn  Zn132  1  0.96122786  0.89049294  0.15387825  1
  Zn  Zn133  1  0.93372787  0.93463480  0.68321967  1
  Zn  Zn134  1  0.05727390  0.05896110  0.17164258  1
  Zn  Zn135  1  0.06341244  0.06392410  0.81593627  1
  Zn  Zn136  1  0.06063103  0.55994017  0.31410096  1
  Zn  Zn137  1  0.06459562  0.56821788  0.81850065  1
  Zn  Zn138  1  0.52340116  0.09472569  0.33908262  1
  Zn  Zn139  1  0.56776870  0.05408398  0.81093293  1
  Zn  Zn140  1  0.55350321  0.53703017  0.30083067  1
  Zn  Zn141  1  0.56075388  0.55394557  0.81865582  1
  Zn  Zn142  1  0.43744534  0.19764135  0.45554184  1
  Zn  Zn143  1  0.43801369  0.18719398  0.93496766  1
  Zn  Zn144  1  0.42835101  0.68952622  0.44495560  1
  Zn  Zn145  1  0.43444568  0.68205645  0.92859990  1
  Zn  Zn146  1  0.94093129  0.18120219  0.43438055  1
  Zn  Zn147  1  0.93438039  0.18789647  0.94120293  1
  Zn  Zn148  1  0.93777045  0.68559183  0.42850886  1
  Zn  Zn149  1  0.94179065  0.69336806  0.93727359  1
  Zn  Zn150  1  0.08484748  0.25077235  0.09074261  1
  Zn  Zn151  1  0.05664533  0.32001678  0.56773740  1
  Zn  Zn152  1  0.07112192  0.82111266  0.04880949  1
  Zn  Zn153  1  0.06560161  0.81278262  0.55565011  1
  Zn  Zn154  1  0.55820081  0.31349750  0.05111196  1
  Zn  Zn155  1  0.56198926  0.31063503  0.56021664  1
  Zn  Zn156  1  0.56083912  0.81252662  0.05843306  1
  Zn  Zn157  1  0.55942237  0.81037119  0.56211861  1
  O  O158  1  0.10732692  0.15648434  0.15109664  1
  O  O159  1  0.11927254  0.11718152  0.61749228  1
  O  O160  1  0.11453475  0.64434435  0.11424164  1
  O  O161  1  0.12164616  0.62716652  0.61341713  1
  O  O162  1  0.62765978  0.11085907  0.11594103  1
  O  O163  1  0.61564198  0.13155916  0.61923927  1
  O  O164  1  0.62470272  0.62015379  0.11269028  1
  O  O165  1  0.61795105  0.61696150  0.61689752  1
  O  O166  1  0.36930013  0.39226365  0.38835247  1
  O  O167  1  0.38438572  0.38990681  0.87083726  1
  O  O168  1  0.39053428  0.87336769  0.37136784  1
  O  O169  1  0.39173269  0.87687107  0.85930345  1
  O  O170  1  0.88084752  0.38290572  0.37040459  1
  O  O171  1  0.87882880  0.38593321  0.88294174  1
  O  O172  1  0.88071308  0.88220621  0.37708937  1
  O  O173  1  0.86659361  0.87348024  0.88331873  1
  O  O174  1  0.25817221  0.00117113  0.35400398  1
  O  O175  1  0.25072570  0.01664342  0.88233588  1
  O  O176  1  0.25757579  0.51124479  0.37839500  1
  O  O177  1  0.25854721  0.49682530  0.86543133  1
  O  O178  1  0.75645940  -0.00486505  0.36762533  1
  O  O179  1  0.74533168  0.00540676  0.86698942  1
  O  O180  1  0.75743763  0.50227378  0.36554593  1
  O  O181  1  0.75754620  0.50722069  0.86809498  1
  O  O182  1  0.25230366  0.48959879  0.13532296  1
  O  O183  1  0.25298273  0.48859789  0.64113970  1
  O  O184  1  0.26890872  0.98722410  0.13117404  1
  O  O185  1  0.23970863  0.98794147  0.61754052  1
  O  O186  1  0.74613351  0.49992013  0.13390549  1
  O  O187  1  0.73841509  0.49098596  0.63015058  1
  O  O188  1  0.73784960  0.99037462  0.13284142  1
  O  O189  1  0.75080911  0.98496735  0.62631155  1
  O  O190  1  0.00901856  0.36418147  0.26437566  1
  O  O191  1  0.00238317  0.36883870  0.76303529  1
  O  O192  1  -0.00088402  0.87848909  0.26216644  1
  O  O193  1  -0.00387139  0.87462104  0.75056315  1
  O  O194  1  0.51806339  0.41462260  0.26821252  1
  O  O195  1  0.50064965  0.38057773  0.76372574  1
  O  O196  1  0.50596125  0.86696457  0.26040504  1
  O  O197  1  0.51363832  0.87793331  0.75411681  1
  O  O198  1  0.48685516  0.07822559  0.22856667  1
  O  O199  1  0.49451724  0.11670851  0.74057541  1
  O  O200  1  0.50653248  0.63815020  0.24840686  1
  O  O201  1  0.50741532  0.62235009  0.73751441  1
  O  O202  1  0.97867315  0.12034069  0.25245806  1
  O  O203  1  0.99985387  0.13255845  0.74492504  1
  O  O204  1  0.98631263  0.62265689  0.25190809  1
  O  O205  1  0.98579229  0.62720507  0.75598811  1
  O  O206  1  0.36253137  0.25807887  -0.01072714  1
  O  O207  1  0.37553745  0.26853894  0.51626285  1
  O  O208  1  0.38515019  0.75778258  0.00414832  1
  O  O209  1  0.35348525  0.74601967  0.51377956  1
  O  O210  1  0.86858189  0.25833395  0.01019542  1
  O  O211  1  0.86186495  0.24061961  0.49584069  1
  O  O212  1  0.86214316  0.76068693  -0.00498699  1
  O  O213  1  0.86763681  0.75229417  0.50073587  1
  O  O214  1  0.12107146  0.24235548  0.49808058  1
  O  O215  1  0.12789177  0.25224049  0.98503876  1
  O  O216  1  0.13631512  0.73978265  0.50265769  1
  O  O217  1  0.11818729  0.73696665  0.98690458  1
  O  O218  1  0.63274449  0.24122875  0.49596982  1
  O  O219  1  0.63320178  0.23625372  1.00927872  1
  O  O220  1  0.62697077  0.74154601  0.49308674  1
  O  O221  1  0.63620462  0.73739196  1.00266625  1
  O  O222  1  0.52023096  0.26564460  0.15035964  1
  O  O223  1  0.49045218  0.23982183  0.62157190  1
  O  O224  1  0.48945706  0.75618511  0.13724895  1
  O  O225  1  0.48265640  0.74398193  0.61720115  1
  O  O226  1  0.97485840  0.25114034  0.13553511  1
  O  O227  1  1.00733133  0.24108091  0.63836144  1
  O  O228  1  0.99023348  0.78550134  0.11786738  1
  O  O229  1  0.98387178  0.75998373  0.62050546  1
  O  O230  1  -0.00320664  0.25796846  0.37109426  1
  O  O231  1  0.00342997  0.25717414  0.87297820  1
  O  O232  1  -0.00293697  0.76847628  0.37759121  1
  O  O233  1  0.00996087  0.75518437  0.87066010  1
  O  O234  1  0.51653649  0.25974993  0.38935946  1
  O  O235  1  0.49643794  0.26462384  0.87499752  1
  O  O236  1  0.50079703  0.75503694  0.36822481  1
  O  O237  1  0.49825398  0.76101070  0.87472209  1
  O  O238  1  0.23821615  0.12512836  0.50898749  1
  O  O239  1  0.25758039  0.13862411  0.98763220  1
  O  O240  1  0.23512101  0.63186914  0.49562560  1
  O  O241  1  0.22757875  0.61611756  1.00470511  1
  O  O242  1  0.74264138  0.13293887  0.50439899  1
  O  O243  1  0.74334274  0.12654126  0.99570719  1
  O  O244  1  0.74149666  0.62808453  0.48184384  1
  O  O245  1  0.74793956  0.63298662  0.99247369  1
  O  O246  1  0.24466824  0.36750982  -0.00184043  1
  O  O247  1  0.25648882  0.38745937  0.51496235  1
  O  O248  1  0.25885476  0.88668169  0.00575490  1
  O  O249  1  0.23845682  0.86221745  0.49524830  1
  O  O250  1  0.75839991  0.36710961  -0.00812598  1
  O  O251  1  0.75049201  0.36236608  0.50871964  1
  O  O252  1  0.74959816  0.86780688  0.00159909  1
  O  O253  1  0.75076326  0.86822414  0.50223913  1
  O  O254  1  0.11825372  0.48025879  0.25535705  1
  O  O255  1  0.12970914  0.48737405  0.76332897  1
  O  O256  1  0.11571709  0.97565356  0.22981801  1
  O  O257  1  0.12338055  1.00480225  0.73296512  1
  O  O258  1  0.64428944  0.51091299  0.23390227  1
  O  O259  1  0.63483330  0.50801113  0.73971256  1
  O  O260  1  0.63016881  0.98517465  0.24246503  1
  O  O261  1  0.63904125  0.98681769  0.74760493  1
  O  O262  1  0.42072162  0.03280680  0.23479782  1
  O  O263  1  0.37426921  0.01375908  0.74846179  1
  O  O264  1  0.37737678  0.50331439  0.26642888  1
  O  O265  1  0.36230670  0.50477844  0.75427911  1
  O  O266  1  0.86155297  0.00812603  0.25559467  1
  O  O267  1  0.85565385  -0.00544080  0.74299083  1
  O  O268  1  0.86358074  0.50576090  0.25256860  1
  O  O269  1  0.86736971  0.50859016  0.75688679  1
  O  O270  1  0.11514644  0.36567738  0.37865476  1
  O  O271  1  0.11249641  0.37093696  0.87197173  1
  O  O272  1  0.11504037  0.88031791  0.35998331  1
  O  O273  1  0.12369911  0.86005365  0.88446136  1
  O  O274  1  0.62987109  0.36331705  0.38551980  1
  O  O275  1  0.60611510  0.39133409  0.87031262  1
  O  O276  1  0.61812089  0.86527378  0.36530964  1
  O  O277  1  0.61603399  0.87301336  0.85941801  1
  O  O278  1  0.38813125  0.16785006  0.11713301  1
  O  O279  1  0.37959428  0.13346403  0.63321213  1
  O  O280  1  0.37699045  0.64368104  0.11515099  1
  O  O281  1  0.37956955  0.63406856  0.62202186  1
  O  O282  1  0.86527182  0.12793236  0.13882590  1
  O  O283  1  0.89319359  0.11521833  0.62742142  1
  O  O284  1  0.86917753  0.62498809  0.13970067  1
  O  O285  1  0.87699855  0.63177210  0.63009523  1
  O  O286  1  0.24440415  0.25664004  0.10485349  1
  O  O287  1  0.25967672  0.26378776  0.63428958  1
  O  O288  1  0.26705545  0.76091691  0.11821336  1
  O  O289  1  0.25082991  0.76250351  0.61780089  1
  O  O290  1  0.75758539  0.24388055  0.11367185  1
  O  O291  1  0.74956527  0.25750375  0.61245790  1
  O  O292  1  0.74387483  0.75854686  0.11589820  1
  O  O293  1  0.75756783  0.75484987  0.61482502  1
  O  O294  1  0.24497980  0.26031456  0.38835862  1
  O  O295  1  0.24354527  0.24856396  0.88231797  1
  O  O296  1  0.25509355  0.73770083  0.38760525  1
  O  O297  1  0.23531644  0.74752523  0.87126096  1
  O  O298  1  0.74160460  0.24701202  0.39218972  1
  O  O299  1  0.75770881  0.23490216  0.89627817  1
  O  O300  1  0.74206442  0.74156292  0.37636698  1
  O  O301  1  0.75190035  0.73697562  0.87980017  1
  O  O302  1  -0.00267655  0.11677909  0.00292267  1
  O  O303  1  0.00761898  0.11824700  0.50616867  1
  O  O304  1  -0.00082383  0.61312268  0.00012435  1
  O  O305  1  0.01016594  0.62776603  0.49401410  1
  O  O306  1  0.50989165  0.11122189  -0.01035669  1
  O  O307  1  0.50643292  0.11349617  0.51546805  1
  O  O308  1  0.51647250  0.63278574  -0.00084923  1
  O  O309  1  0.50233685  0.61822539  0.50895898  1
  O  O310  1  0.48859870  0.38803964  0.50172522  1
  O  O311  1  0.49826530  0.37892359  0.98469516  1
  O  O312  1  0.50580966  0.88499297  0.49119631  1
  O  O313  1  0.51033853  0.88416259  0.98021593  1
  O  O314  1  0.99791469  0.36874233  0.48408263  1
  O  O315  1  0.98715797  0.38935802  0.99037700  1
  O  O316  1  0.99806247  0.88500316  0.48943665  1
  O  O317  1  0.98215982  0.88799559  0.99024391  1
  O  O318  1  0.48238193  0.51015906  0.39112049  1
  O  O319  1  0.48155675  0.50360188  0.87989696  1
  O  O320  1  0.50567482  0.98497616  0.38648122  1
  O  O321  1  0.49612245  0.99309141  0.88289838  1
  O  O322  1  0.98473018  0.48675025  0.36964520  1
  O  O323  1  0.98780199  0.49451836  0.87744747  1
  O  O324  1  0.98791889  0.99216362  0.38309637  1
  O  O325  1  1.00780149  1.00147081  0.89116082  1
  O  O326  1  -0.00950068  -0.00769209  0.10600756  1
  O  O327  1  0.01257294  0.00358871  0.61295727  1
  O  O328  1  -0.00760518  0.49633678  0.11313559  1
  O  O329  1  0.00654152  0.48354963  0.62144495  1
  O  O330  1  0.51126452  -0.01880079  0.10256642  1
  O  O331  1  0.49733039  0.00318023  0.61454409  1
  O  O332  1  0.51752491  0.50594370  0.13127769  1
  O  O333  1  0.50463755  0.50742734  0.62028204  1
  O  O334  1  0.23455792  0.36648367  0.24805675  1
  O  O335  1  0.24160235  0.38331057  0.74800080  1
  O  O336  1  0.23769709  0.86985410  0.25078319  1
  O  O337  1  0.24759146  0.87551807  0.73726444  1
  O  O338  1  0.75030304  0.38658905  0.25136906  1
  O  O339  1  0.75741356  0.39352032  0.74361103  1
  O  O340  1  0.74298648  0.87761018  0.24286266  1
  O  O341  1  0.73933531  0.87555041  0.74106242  1
  O  O342  1  0.27541147  0.11756933  0.23616545  1
  O  O343  1  0.25895894  0.13325933  0.76130141  1
  O  O344  1  0.24203404  0.63553708  0.26745314  1
  O  O345  1  0.23937510  0.60815370  0.75029012  1
  O  O346  1  0.74811406  0.10968919  0.25382187  1
  O  O347  1  0.75357876  0.11373837  0.75840736  1
  O  O348  1  0.75770855  0.61960211  0.25925812  1
  O  O349  1  0.75690139  0.61765052  0.75493259  1
  O  O350  1  0.41960641  0.12314545  0.37842302  1
  O  O351  1  0.36414528  0.12522728  0.86666080  1
  O  O352  1  0.36049455  0.61534854  0.38403734  1
  O  O353  1  0.36433717  0.61008926  0.88171494  1
  O  O354  1  0.86834147  0.11390584  0.36685773  1
  O  O355  1  0.86343494  0.12267472  0.87569887  1
  O  O356  1  0.86829670  0.61170335  0.36548254  1
  O  O357  1  0.86669341  0.61779554  0.86889249  1
  O  O358  1  0.11410283  0.35550932  0.14515121  1
  O  O359  1  0.13346387  0.36634757  0.63966713  1
  O  O360  1  0.15116594  0.86884050  0.12431225  1
  O  O361  1  0.13300497  0.88776831  0.61906318  1
  O  O362  1  0.62536081  0.39043992  0.11883781  1
  O  O363  1  0.62531434  0.38521145  0.62724420  1
  O  O364  1  0.63086044  0.87890520  0.13059314  1
  O  O365  1  0.63269076  0.86580405  0.63291494  1
  O  O366  1  0.13012172  0.25581405  0.27741934  1
  O  O367  1  0.11483251  0.26051544  0.76325294  1
  O  O368  1  0.11641787  0.76549990  0.23672495  1
  O  O369  1  0.12036761  0.74134897  0.76340570  1
  O  O370  1  0.63729863  0.24833998  0.27202503  1
  O  O371  1  0.67601214  0.26199391  0.76270864  1
  O  O372  1  0.61693906  0.75709799  0.25122799  1
  O  O373  1  0.62981922  0.75908366  0.74719219  1
  O  O374  1  0.39399867  0.25215679  0.26297341  1
  O  O375  1  0.37532101  0.24230954  0.74273825  1
  O  O376  1  0.38663332  0.74765708  0.25285984  1
  O  O377  1  0.36286550  0.74733586  0.72958150  1
  O  O378  1  0.85876194  0.23168922  0.24788773  1
  O  O379  1  0.88606019  0.25022686  0.75953362  1
  O  O380  1  0.87117694  0.73394850  0.25465828  1
  O  O381  1  0.87095798  0.74026432  0.73660869  1
  O  O382  1  0.37888426  0.49493404  0.50513866  1
  O  O383  1  0.36772534  0.49797096  0.99534144  1
  O  O384  1  0.38869671  1.00218495  0.50145392  1
  O  O385  1  0.39033403  1.00980368  1.00307765  1
  O  O386  1  0.87292658  0.50583643  0.48328583  1
  O  O387  1  0.87842448  0.49726973  0.99370044  1
  O  O388  1  0.88178829  0.99547839  0.49191147  1
  O  O389  1  0.86505379  0.98988071  0.99355161  1
  O  O390  1  0.11618101  0.00486312  0.00769529  1
  O  O391  1  0.11977317  0.01339510  0.49838772  1
  O  O392  1  0.10700644  0.51094077  -0.00335850  1
  O  O393  1  0.12576616  0.51406121  0.50175164  1
  O  O394  1  0.62130743  0.00710805  0.00473117  1
  O  O395  1  0.61897032  0.01253719  0.49610789  1
  O  O396  1  0.63908186  0.51440677  0.01492478  1
  O  O397  1  0.61518503  0.50228924  0.50721893  1
  O  O398  1  0.38024672  0.35074928  0.13604222  1
  O  O399  1  0.36801661  0.37162386  0.62549842  1
  O  O400  1  0.36647098  0.86211062  0.13078040  1
  O  O401  1  0.36045240  0.86756802  0.62550936  1
  O  O402  1  0.87427480  0.37020368  0.11626330  1
  O  O403  1  0.86398093  0.37574227  0.62696349  1
  O  O404  1  0.85454153  0.88221309  0.10762052  1
  O  O405  1  0.86259469  0.86628473  0.61392523  1
  O  O406  1  0.13004500  0.14294876  0.39162598  1
  O  O407  1  0.14189185  0.13574094  0.86645375  1
  O  O408  1  0.13428951  0.61900278  0.38267404  1
  O  O409  1  0.12628897  0.63362504  0.88784833  1
  O  O410  1  0.62076768  0.13637890  0.38871892  1
  O  O411  1  0.63599135  0.11890271  0.88554213  1
  O  O412  1  0.62926631  0.62320376  0.37581205  1
  O  O413  1  0.63566466  0.61245743  0.88991948  1
