# generated using pymatgen
data_V79Zn79O256
_symmetry_space_group_name_H-M   'P 1'
_cell_length_a   16.91265511
_cell_length_b   16.95340075
_cell_length_c   16.92018915
_cell_angle_alpha   89.78997345
_cell_angle_beta   90.19341144
_cell_angle_gamma   90.13869644
_symmetry_Int_Tables_number   1
_chemical_formula_structural   V79Zn79O256
_chemical_formula_sum   'V79 Zn79 O256'
_cell_volume   4851.40110606
_cell_formula_units_Z   1
loop_
 _symmetry_equiv_pos_site_id
 _symmetry_equiv_pos_as_xyz
  1  'x, y, z'
loop_
 _atom_site_type_symbol
 _atom_site_label
 _atom_site_symmetry_multiplicity
 _atom_site_fract_x
 _atom_site_fract_y
 _atom_site_fract_z
 _atom_site_occupancy
  V  V0  1  0.74353156  0.00182707  0.74501451  1
  V  V1  1  0.13744935  0.63417951  -0.01017687  1
  V  V2  1  0.87651345  0.25588436  0.61549284  1
  V  V3  1  0.11717655  0.12631002  0.48351425  1
  V  V4  1  0.12383527  0.50264352  0.12431031  1
  V  V5  1  0.87765862  0.39096932  0.49420941  1
  V  V6  1  0.50015638  0.75360025  0.25100702  1
  V  V7  1  0.62391574  0.62231483  0.00813565  1
  V  V8  1  -0.00758733  0.63060968  0.12394779  1
  V  V9  1  0.62555702  0.87835502  0.74666083  1
  V  V10  1  0.37781997  0.37578472  0.49992717  1
  V  V11  1  0.87184114  0.12796447  0.24590482  1
  V  V12  1  0.00607194  0.25013357  0.75147313  1
  V  V13  1  0.00798268  0.50949334  0.48680757  1
  V  V14  1  0.24899741  0.50591452  0.25388987  1
  V  V15  1  0.25254139  0.00540145  0.25568011  1
  V  V16  1  0.50430834  0.62538546  0.62504224  1
  V  V17  1  0.01182436  0.13623445  0.12399945  1
  V  V18  1  0.63290821  0.62866882  0.49746682  1
  V  V19  1  0.24961350  0.50283504  0.75774316  1
  V  V20  1  0.49674163  0.87254840  0.87981705  1
  V  V21  1  0.88265778  0.63408127  0.75740044  1
  V  V22  1  0.38043130  0.49975345  0.37968121  1
  V  V23  1  0.37863491  0.74390125  0.11277295  1
  V  V24  1  0.87197863  0.37620431  0.00044559  1
  V  V25  1  0.01072634  0.86864125  0.86354330  1
  V  V26  1  0.00168163  0.35816792  0.37327169  1
  V  V27  1  0.87691689  0.00284452  0.87680233  1
  V  V28  1  0.63554271  0.75748613  0.37120248  1
  V  V29  1  -0.00511079  0.50083683  -0.00455330  1
  V  V30  1  0.24905657  0.37575345  0.62985594  1
  V  V31  1  -0.00112601  0.37430968  0.87691273  1
  V  V32  1  0.75300127  0.86966526  0.61509821  1
  V  V33  1  0.87084836  0.87498772  0.00491898  1
  V  V34  1  0.24185419  0.75602431  0.49995903  1
  V  V35  1  0.50006461  0.87858469  0.37317052  1
  V  V36  1  0.26076608  0.86531998  0.12152220  1
  V  V37  1  0.62848285  -0.01395774  0.12692537  1
  V  V38  1  0.73410683  0.37718605  0.13645578  1
  V  V39  1  0.01490365  0.86985715  0.37838705  1
  V  V40  1  0.50190569  0.49749983  0.50171204  1
  V  V41  1  0.37352341  0.23639765  0.62929038  1
  V  V42  1  0.23695169  0.25334583  0.48730824  1
  V  V43  1  0.12066883  0.36862032  0.25577715  1
  V  V44  1  0.36999318  0.00052721  0.85610831  1
  V  V45  1  0.12069360  -0.02274977  0.12777723  1
  V  V46  1  0.75505592  0.37925305  0.62216155  1
  V  V47  1  0.74783387  0.60192716  0.36288225  1
  V  V48  1  0.51576571  0.00972482  0.51631667  1
  V  V49  1  0.87171133  0.25159717  0.12907203  1
  V  V50  1  0.76102233  0.50031413  0.75910856  1
  V  V51  1  0.63022344  0.74674918  0.87409764  1
  V  V52  1  0.38026879  0.87643383  0.49760237  1
  V  V53  1  0.37814817  0.75405323  0.62255293  1
  V  V54  1  0.75102428  -0.01339093  0.24419139  1
  V  V55  1  -0.00027541  0.11763330  0.62177183  1
  V  V56  1  0.00510058  0.63927764  0.62666415  1
  V  V57  1  0.48490215  0.12568993  0.13393655  1
  V  V58  1  0.38023268  0.62948619  0.25220877  1
  V  V59  1  0.74880759  0.13160286  0.38456129  1
  V  V60  1  0.86815640  0.60662210  0.24928326  1
  V  V61  1  0.12354059  0.50333102  0.62382216  1
  V  V62  1  0.74097397  0.13259520  0.87665045  1
  V  V63  1  0.15148082  0.00093976  0.62620001  1
  V  V64  1  0.87929380  -0.00978382  0.38808168  1
  V  V65  1  0.87216015  0.12957940  0.74963922  1
  V  V66  1  0.50029306  0.49623416  0.00631138  1
  V  V67  1  0.37577300  0.49569382  0.87681248  1
  V  V68  1  0.49902714  0.23868963  0.74825377  1
  V  V69  1  0.49981316  0.36903439  0.87508736  1
  V  V70  1  0.24503300  0.63297094  0.38575641  1
  V  V71  1  0.62951272  0.50208210  0.62622294  1
  V  V72  1  0.61936428  0.13434975  0.00298385  1
  V  V73  1  0.37635478  0.62477673  0.75302312  1
  V  V74  1  0.49104047  -0.00654061  0.00298110  1
  V  V75  1  0.27252407  0.37698533  0.12460484  1
  V  V76  1  0.62554106  0.37390976  0.75472605  1
  V  V77  1  0.24243991  0.12463528  0.86583176  1
  V  V78  1  0.48448242  0.24533225  0.26230717  1
  Zn  Zn79  1  0.12814036  0.37228205  0.75777547  1
  Zn  Zn80  1  0.62937820  0.50781076  0.14501147  1
  Zn  Zn81  1  0.12066512  0.23844120  0.89909156  1
  Zn  Zn82  1  0.74891203  0.75478196  0.00590588  1
  Zn  Zn83  1  0.50267098  0.75044112  0.74887029  1
  Zn  Zn84  1  0.25857787  0.24451298  0.00816770  1
  Zn  Zn85  1  0.62081947  0.24121615  0.38050333  1
  Zn  Zn86  1  0.73923163  0.25596122  -0.00135998  1
  Zn  Zn87  1  0.38567841  0.02797165  0.35729453  1
  Zn  Zn88  1  0.61535701  0.37087502  0.27366920  1
  Zn  Zn89  1  0.75882465  0.62148254  0.87953333  1
  Zn  Zn90  1  0.01347178  0.00624978  -0.00597872  1
  Zn  Zn91  1  0.00640136  0.75767376  0.24916259  1
  Zn  Zn92  1  0.86274181  0.75976459  0.13719883  1
  Zn  Zn93  1  0.87739049  0.75929487  0.61537082  1
  Zn  Zn94  1  0.19885418  0.19249676  0.19387938  1
  Zn  Zn95  1  0.18917686  0.17870255  0.68533940  1
  Zn  Zn96  1  0.18521665  0.69306542  0.18242874  1
  Zn  Zn97  1  0.19756401  0.68452833  0.68064999  1
  Zn  Zn98  1  0.67957021  0.18966567  0.19060909  1
  Zn  Zn99  1  0.68769373  0.19393177  0.68262886  1
  Zn  Zn100  1  0.68918497  0.69630995  0.18679855  1
  Zn  Zn101  1  0.69401991  0.68859829  0.69024037  1
  Zn  Zn102  1  0.31493059  0.31419679  0.30942523  1
  Zn  Zn103  1  0.31582516  0.30588533  0.81769097  1
  Zn  Zn104  1  0.30820084  0.81996206  0.30930681  1
  Zn  Zn105  1  0.31858833  0.81735839  0.81065282  1
  Zn  Zn106  1  0.81265093  0.31678752  0.31453720  1
  Zn  Zn107  1  0.81548239  0.31219980  0.81162424  1
  Zn  Zn108  1  0.82514628  0.80553268  0.31142971  1
  Zn  Zn109  1  0.81582901  0.81438489  0.81317839  1
  Zn  Zn110  1  0.18743122  0.44081641  0.43810499  1
  Zn  Zn111  1  0.18448558  0.43375675  0.94207703  1
  Zn  Zn112  1  0.18770878  0.94159320  0.44448115  1
  Zn  Zn113  1  0.19082513  0.94038889  0.94310350  1
  Zn  Zn114  1  0.68386332  0.43048840  0.44008937  1
  Zn  Zn115  1  0.68549326  0.43645822  0.93991902  1
  Zn  Zn116  1  0.69096037  0.94324044  0.43199639  1
  Zn  Zn117  1  0.68508919  0.94268511  0.93692450  1
  Zn  Zn118  1  0.29927144  0.05333705  0.05873222  1
  Zn  Zn119  1  0.31687952  0.06933482  0.52988679  1
  Zn  Zn120  1  0.31583160  0.56242527  0.06235392  1
  Zn  Zn121  1  0.31340016  0.56452533  0.56684480  1
  Zn  Zn122  1  0.81040897  0.06286507  0.06053945  1
  Zn  Zn123  1  0.81320457  0.05974822  0.56570865  1
  Zn  Zn124  1  0.80716542  0.55868763  0.06480363  1
  Zn  Zn125  1  0.84100210  0.60052943  0.53624876  1
  Zn  Zn126  1  0.46033363  0.44745397  0.20708589  1
  Zn  Zn127  1  0.43790407  0.43687225  0.68759183  1
  Zn  Zn128  1  0.43547050  0.93525645  0.18727364  1
  Zn  Zn129  1  0.44215165  0.93968683  0.68343501  1
  Zn  Zn130  1  0.93760576  0.43694769  0.18680093  1
  Zn  Zn131  1  0.93939656  0.44349179  0.68929029  1
  Zn  Zn132  1  0.94162257  0.94016061  0.19291295  1
  Zn  Zn133  1  0.93303456  0.93808986  0.68904460  1
  Zn  Zn134  1  0.05840276  0.05568215  0.30320455  1
  Zn  Zn135  1  0.06771163  0.05431950  0.80393231  1
  Zn  Zn136  1  0.07273341  0.59683974  0.30302113  1
  Zn  Zn137  1  0.06273214  0.56194638  0.81260598  1
  Zn  Zn138  1  0.56931982  0.06183084  0.31329907  1
  Zn  Zn139  1  0.55934796  0.05997064  0.81707110  1
  Zn  Zn140  1  0.56360939  0.56397381  0.31403031  1
  Zn  Zn141  1  0.56432544  0.55974108  0.81441531  1
  Zn  Zn142  1  0.43101965  0.18160481  0.44259531  1
  Zn  Zn143  1  0.40690931  0.16627001  0.95494275  1
  Zn  Zn144  1  0.44121087  0.68839476  0.43711836  1
  Zn  Zn145  1  0.44414064  0.68103511  0.93358064  1
  Zn  Zn146  1  0.93068244  0.18407561  0.43634696  1
  Zn  Zn147  1  0.93461210  0.18786879  0.94248099  1
  Zn  Zn148  1  0.94745654  0.71314132  0.44791444  1
  Zn  Zn149  1  0.94593127  0.69458798  0.93622832  1
  Zn  Zn150  1  0.06756838  0.31273876  0.06634259  1
  Zn  Zn151  1  0.05939837  0.31815955  0.56312728  1
  Zn  Zn152  1  0.05482979  0.81250130  0.04599511  1
  Zn  Zn153  1  0.05991576  0.82701293  0.55932240  1
  Zn  Zn154  1  0.44255154  0.31272563  0.06470770  1
  Zn  Zn155  1  0.56054976  0.31368249  0.56967902  1
  Zn  Zn156  1  0.56202768  0.80723547  0.06319557  1
  Zn  Zn157  1  0.56769272  0.81322064  0.55964846  1
  O  O158  1  0.11123922  0.13788414  0.13401550  1
  O  O159  1  0.11575911  0.11908941  0.61680102  1
  O  O160  1  0.11602109  0.61379675  0.11372108  1
  O  O161  1  0.11380717  0.61871759  0.64165722  1
  O  O162  1  0.61702514  0.11551134  0.11456427  1
  O  O163  1  0.63407395  0.16553076  0.57923823  1
  O  O164  1  0.62658911  0.62304738  0.11196990  1
  O  O165  1  0.62670341  0.62294496  0.61669854  1
  O  O166  1  0.36488670  0.38794358  0.38914928  1
  O  O167  1  0.38546990  0.38714864  0.86589169  1
  O  O168  1  0.38720245  0.87013044  0.38372801  1
  O  O169  1  0.38622695  0.88199356  0.87336309  1
  O  O170  1  0.88516578  0.37527824  0.38528890  1
  O  O171  1  0.88621362  0.36506702  0.88830773  1
  O  O172  1  0.86472291  0.88962719  0.37754585  1
  O  O173  1  0.88296678  0.88688355  0.87819671  1
  O  O174  1  0.24546934  -0.00988949  0.35664497  1
  O  O175  1  0.26506726  0.00490605  0.87991298  1
  O  O176  1  0.26035960  0.51039255  0.37309815  1
  O  O177  1  0.25895667  0.48832930  0.86568635  1
  O  O178  1  0.75835266  0.00803785  0.36083679  1
  O  O179  1  0.75571328  0.01224468  0.86690567  1
  O  O180  1  0.73505056  0.50422774  0.36300604  1
  O  O181  1  0.74527363  0.50069031  0.86325566  1
  O  O182  1  0.24687546  0.49751347  0.13765133  1
  O  O183  1  0.24442768  0.49543049  0.63333434  1
  O  O184  1  0.24153934  0.98514523  0.13223139  1
  O  O185  1  0.25027700  1.01125937  0.60833561  1
  O  O186  1  0.74294154  0.48329195  0.12278592  1
  O  O187  1  0.74734923  0.48937266  0.63942757  1
  O  O188  1  0.73894128  1.00265167  0.13214938  1
  O  O189  1  0.75326951  0.99301041  0.63920661  1
  O  O190  1  0.01180581  0.38386712  0.25948309  1
  O  O191  1  -0.00241341  0.36811185  0.76056293  1
  O  O192  1  -0.01013081  0.87125965  0.26718116  1
  O  O193  1  -0.00360213  0.88402454  0.76364184  1
  O  O194  1  0.49076300  0.34789716  0.25420854  1
  O  O195  1  0.50943280  0.37494058  0.75435422  1
  O  O196  1  0.49425583  0.86410929  0.25996745  1
  O  O197  1  0.51012434  0.87450157  0.76056403  1
  O  O198  1  0.50062102  0.12182414  0.23885046  1
  O  O199  1  0.51116383  0.14057597  0.75101877  1
  O  O200  1  0.48791720  0.63680160  0.25871895  1
  O  O201  1  0.49383039  0.62405396  0.74337074  1
  O  O202  1  0.98350590  0.11696191  0.23323134  1
  O  O203  1  0.99349432  0.13356488  0.74190502  1
  O  O204  1  0.97822549  0.60999596  0.23674984  1
  O  O205  1  0.99138693  0.62156677  0.74458895  1
  O  O206  1  0.37237183  0.26308229  -0.00724726  1
  O  O207  1  0.36257544  0.25986747  0.51262624  1
  O  O208  1  0.38256771  0.73488807  0.01428885  1
  O  O209  1  0.37738483  0.75682386  0.50656863  1
  O  O210  1  0.87078764  0.25950584  0.01100999  1
  O  O211  1  0.88438129  0.26667336  0.51037197  1
  O  O212  1  0.87538593  0.76785555  -0.00422486  1
  O  O213  1  0.86192652  0.71207833  0.51295952  1
  O  O214  1  0.13140288  0.25407719  0.50004490  1
  O  O215  1  0.14395817  0.25930526  1.00725538  1
  O  O216  1  0.14422303  0.75655026  0.50853566  1
  O  O217  1  0.12397141  0.73264069  1.00624889  1
  O  O218  1  0.62862857  0.22758818  0.52930669  1
  O  O219  1  0.61818270  0.23259567  1.00239863  1
  O  O220  1  0.62118441  0.73811133  0.48396385  1
  O  O221  1  0.62111404  0.73547307  0.99387552  1
  O  O222  1  0.48988216  0.23122627  0.13574314  1
  O  O223  1  0.48248816  0.25525101  0.63426208  1
  O  O224  1  0.48666864  0.75591465  0.13540000  1
  O  O225  1  0.49618732  0.74270679  0.62528542  1
  O  O226  1  0.98942756  0.24211150  0.12280719  1
  O  O227  1  0.99276679  0.24910600  0.63272799  1
  O  O228  1  0.99264475  0.73624411  0.11946863  1
  O  O229  1  1.00704109  0.74166031  0.62372221  1
  O  O230  1  -0.00129211  0.25994165  0.37620169  1
  O  O231  1  0.00238359  0.25234537  0.86933982  1
  O  O232  1  0.00529561  0.76076621  0.37059473  1
  O  O233  1  0.00680044  0.76851261  0.87498805  1
  O  O234  1  0.50050658  0.22762877  0.36693666  1
  O  O235  1  0.49135041  0.26207928  0.85469303  1
  O  O236  1  0.50806262  0.75772906  0.36897924  1
  O  O237  1  0.50906440  0.75715367  0.87350007  1
  O  O238  1  0.22748114  0.14838970  0.50470926  1
  O  O239  1  0.27564051  0.12856446  0.97836037  1
  O  O240  1  0.26286528  0.63760005  0.49221882  1
  O  O241  1  0.23616178  0.61652479  1.00281286  1
  O  O242  1  0.76067550  0.11893464  0.48349402  1
  O  O243  1  0.73523417  0.12583406  0.99510777  1
  O  O244  1  0.73787500  0.61144137  0.47991435  1
  O  O245  1  0.73529808  0.61986866  0.99522694  1
  O  O246  1  0.25414760  0.39205468  0.02529355  1
  O  O247  1  0.25361309  0.36991441  0.51017059  1
  O  O248  1  0.24560491  0.87636758  0.02194674  1
  O  O249  1  0.26401878  0.86162067  0.48979720  1
  O  O250  1  0.75710165  0.37368915  0.00566757  1
  O  O251  1  0.76553685  0.39003984  0.51231703  1
  O  O252  1  0.76622563  0.87976188  -0.00943018  1
  O  O253  1  0.74130393  0.88390605  0.51746061  1
  O  O254  1  0.13654861  0.50619447  0.24366805  1
  O  O255  1  0.13490708  0.49694038  0.74489926  1
  O  O256  1  0.13421146  1.00216033  0.23366338  1
  O  O257  1  0.13426523  1.00948859  0.72619616  1
  O  O258  1  0.57915983  0.47981431  0.24232292  1
  O  O259  1  0.63303915  0.49229208  0.74496974  1
  O  O260  1  0.63799589  1.00191400  0.23754564  1
  O  O261  1  0.63310199  0.99071748  0.75996602  1
  O  O262  1  0.36161003  -0.00680863  0.25093383  1
  O  O263  1  0.37131005  -0.01214890  0.75721379  1
  O  O264  1  0.37101787  0.50832246  0.26009696  1
  O  O265  1  0.36952777  0.50598234  0.75489391  1
  O  O266  1  0.86144641  0.00852085  0.24613979  1
  O  O267  1  0.86332896  0.01071918  0.75838989  1
  O  O268  1  0.86521312  0.50687141  0.24258156  1
  O  O269  1  0.86859581  0.50975884  0.75008076  1
  O  O270  1  0.11834451  0.38560706  0.36297242  1
  O  O271  1  0.11140069  0.36964318  0.87658395  1
  O  O272  1  0.11378942  0.88351685  0.37917556  1
  O  O273  1  0.10693137  0.89775757  0.88101281  1
  O  O274  1  0.62548080  0.35358102  0.38844721  1
  O  O275  1  0.61683215  0.37694600  0.86354003  1
  O  O276  1  0.61997681  0.86169657  0.37743509  1
  O  O277  1  0.61952282  0.86743547  0.86935899  1
  O  O278  1  0.38822057  0.10764763  0.12032321  1
  O  O279  1  0.36697694  0.13987950  0.61819228  1
  O  O280  1  0.36768638  0.63590710  0.13889516  1
  O  O281  1  0.38394050  0.63102753  0.63241160  1
  O  O282  1  0.87244720  0.13501020  0.12875421  1
  O  O283  1  0.87831719  0.13800003  0.62764453  1
  O  O284  1  0.87603045  0.62345702  0.13166818  1
  O  O285  1  0.89484587  0.62210890  0.63986342  1
  O  O286  1  0.25556564  0.27520492  0.13481577  1
  O  O287  1  0.25796951  0.25982111  0.62652843  1
  O  O288  1  0.26383274  0.75548329  0.13036439  1
  O  O289  1  0.26489552  0.74188147  0.60878044  1
  O  O290  1  0.75477561  0.25964874  0.12172151  1
  O  O291  1  0.76555468  0.26915842  0.63474327  1
  O  O292  1  0.75091921  0.75590860  0.11827629  1
  O  O293  1  0.74925116  0.76613660  0.62715252  1
  O  O294  1  0.24842985  0.26192402  0.38954880  1
  O  O295  1  0.24519890  0.23642267  0.87328561  1
  O  O296  1  0.25701389  0.74072859  0.38463502  1
  O  O297  1  0.22067966  0.75429258  0.84149140  1
  O  O298  1  0.75920151  0.23319763  0.37342368  1
  O  O299  1  0.75079493  0.23682760  0.87504699  1
  O  O300  1  0.73574359  0.74778286  0.36552865  1
  O  O301  1  0.73988021  0.74972904  0.88099171  1
  O  O302  1  -0.00767311  0.12090986  0.01938972  1
  O  O303  1  0.01038351  0.14077538  0.50949299  1
  O  O304  1  -0.00111857  0.61560301  0.00652965  1
  O  O305  1  0.00214085  0.62023672  0.52159740  1
  O  O306  1  0.50561871  0.11415526  0.00910867  1
  O  O307  1  0.49924300  0.10752080  0.50169210  1
  O  O308  1  0.51466305  0.61082456  -0.00772850  1
  O  O309  1  0.51181182  0.61866083  0.50426830  1
  O  O310  1  0.48600639  0.38072867  0.51071729  1
  O  O311  1  0.50154357  0.38766818  0.98950787  1
  O  O312  1  0.49929642  0.87702082  0.48999639  1
  O  O313  1  0.50925423  0.88029121  0.98869236  1
  O  O314  1  0.99929263  0.38872805  0.48814425  1
  O  O315  1  0.99298169  0.38064257  0.99782927  1
  O  O316  1  0.98975211  0.86672360  0.47946940  1
  O  O317  1  0.98783070  0.88651685  0.98591571  1
  O  O318  1  0.48649470  0.50682918  0.38532294  1
  O  O319  1  0.49461123  0.48964745  0.87850429  1
  O  O320  1  0.49971752  0.98891195  0.37284396  1
  O  O321  1  0.49103429  0.99088055  0.88141292  1
  O  O322  1  1.01446468  0.52126807  0.38819338  1
  O  O323  1  1.00298958  0.48800713  0.88615412  1
  O  O324  1  0.98437553  0.98954871  0.36652675  1
  O  O325  1  0.98616239  1.00893526  0.87397040  1
  O  O326  1  0.01468638  0.00713774  0.12749926  1
  O  O327  1  -0.01154891  0.01800782  0.62570925  1
  O  O328  1  0.00557239  0.50610235  0.11637479  1
  O  O329  1  0.01299493  0.50335456  0.62176192  1
  O  O330  1  0.51012447  0.00193227  0.12314330  1
  O  O331  1  0.51204719  -0.00422677  0.61717408  1
  O  O332  1  0.49677055  0.49619152  0.10617751  1
  O  O333  1  0.50842031  0.50595268  0.62125585  1
  O  O334  1  0.24266978  0.38887682  0.24684676  1
  O  O335  1  0.25233109  0.38301811  0.74338180  1
  O  O336  1  0.24913551  0.88094602  0.23254739  1
  O  O337  1  0.22287742  0.84482717  0.74237684  1
  O  O338  1  0.74243052  0.36964543  0.24025779  1
  O  O339  1  0.74570695  0.38051733  0.74747561  1
  O  O340  1  0.75680498  0.88890438  0.25128583  1
  O  O341  1  0.74289640  0.88458321  0.74940035  1
  O  O342  1  0.25055097  0.10604236  0.24179902  1
  O  O343  1  0.25413883  0.12686407  0.76514180  1
  O  O344  1  0.26025605  0.62074535  0.26387532  1
  O  O345  1  0.26295943  0.61259903  0.74368376  1
  O  O346  1  0.75915421  0.11930861  0.25393751  1
  O  O347  1  0.74746584  0.12225369  0.75348441  1
  O  O348  1  0.75106379  0.62245414  0.25470217  1
  O  O349  1  0.76394066  0.61708325  0.75055253  1
  O  O350  1  0.34997720  0.10732628  0.42355049  1
  O  O351  1  0.38166295  0.10350373  0.86338945  1
  O  O352  1  0.36996055  0.61838980  0.37150037  1
  O  O353  1  0.38329373  0.61315495  0.86147666  1
  O  O354  1  0.87136334  0.11397223  0.36491304  1
  O  O355  1  0.86372183  0.12214953  0.87128968  1
  O  O356  1  0.85443597  0.61685431  0.36063625  1
  O  O357  1  0.87889868  0.63164625  0.86269818  1
  O  O358  1  0.12255195  0.39063817  0.14141676  1
  O  O359  1  0.13440413  0.38343009  0.62997826  1
  O  O360  1  0.12263119  0.87494747  0.12515621  1
  O  O361  1  0.12431754  0.90521754  0.60519433  1
  O  O362  1  0.63618419  0.37089800  0.12418043  1
  O  O363  1  0.63546811  0.38190506  0.63120541  1
  O  O364  1  0.62214035  0.88734092  0.12189190  1
  O  O365  1  0.63376586  0.86886279  0.63977992  1
  O  O366  1  0.13175387  0.27116666  0.25016379  1
  O  O367  1  0.11143608  0.24990974  0.74528613  1
  O  O368  1  0.10434653  0.70028235  0.25414523  1
  O  O369  1  0.18035227  0.78117061  0.77385034  1
  O  O370  1  0.60803064  0.24843968  0.25527847  1
  O  O371  1  0.61025827  0.26345630  0.73625782  1
  O  O372  1  0.61270593  0.74177027  0.26188199  1
  O  O373  1  0.62587764  0.75713683  0.75947546  1
  O  O374  1  0.38203049  0.23757559  0.26216516  1
  O  O375  1  0.38409385  0.25217001  0.73828735  1
  O  O376  1  0.38155280  0.74398056  0.24847480  1
  O  O377  1  0.37701703  0.74081746  0.74165530  1
  O  O378  1  0.87024274  0.24294525  0.23899449  1
  O  O379  1  0.88560648  0.24794714  0.74198947  1
  O  O380  1  0.88157515  0.73146134  0.24873716  1
  O  O381  1  0.86934791  0.73632446  0.74263096  1
  O  O382  1  0.37860484  0.49502709  0.49822696  1
  O  O383  1  0.38958565  0.51206357  0.98828377  1
  O  O384  1  0.39331632  0.97974577  0.50776101  1
  O  O385  1  0.38929809  0.99641736  0.99780639  1
  O  O386  1  0.89185523  0.49742358  0.50453501  1
  O  O387  1  0.88367545  0.48805010  1.00730078  1
  O  O388  1  0.87563186  1.00392294  0.48642344  1
  O  O389  1  0.87253366  0.99554260  0.98943128  1
  O  O390  1  0.12992512  0.00352711  0.02500176  1
  O  O391  1  0.13039976  0.02396961  0.50373699  1
  O  O392  1  0.11434164  0.50239337  0.00873129  1
  O  O393  1  0.12359576  0.49907207  0.51532708  1
  O  O394  1  0.61670517  0.00317574  0.01177172  1
  O  O395  1  0.61310633  -0.00385997  0.49287880  1
  O  O396  1  0.61489052  0.50829710  -0.00203862  1
  O  O397  1  0.62046035  0.50710635  0.50628416  1
  O  O398  1  0.37460630  0.38581873  0.13426305  1
  O  O399  1  0.36325865  0.37677082  0.61786958  1
  O  O400  1  0.36887224  0.85976377  0.12314989  1
  O  O401  1  0.38516849  0.85994242  0.61790556  1
  O  O402  1  0.87019152  0.36769066  0.11967934  1
  O  O403  1  0.87515381  0.37501664  0.61685971  1
  O  O404  1  0.88504649  0.88020171  0.10782406  1
  O  O405  1  0.85928467  0.87491018  0.62988745  1
  O  O406  1  0.10817279  0.12393135  0.38437832  1
  O  O407  1  0.13850361  0.11717450  0.87569716  1
  O  O408  1  0.14800107  0.61766695  0.38851398  1
  O  O409  1  0.11840944  0.61890192  0.89143938  1
  O  O410  1  0.64430319  0.12442810  0.37294697  1
  O  O411  1  0.62906821  0.11466160  0.89206708  1
  O  O412  1  0.63288068  0.63183342  0.37693247  1
  O  O413  1  0.62661343  0.63418533  0.87930746  1
