# generated using pymatgen
data_V79Zn79O256
_symmetry_space_group_name_H-M   'P 1'
_cell_length_a   16.93282912
_cell_length_b   16.91647991
_cell_length_c   16.92792937
_cell_angle_alpha   89.95182210
_cell_angle_beta   90.04637156
_cell_angle_gamma   90.07307337
_symmetry_Int_Tables_number   1
_chemical_formula_structural   V79Zn79O256
_chemical_formula_sum   'V79 Zn79 O256'
_cell_volume   4848.89425051
_cell_formula_units_Z   1
loop_
 _symmetry_equiv_pos_site_id
 _symmetry_equiv_pos_as_xyz
  1  'x, y, z'
loop_
 _atom_site_type_symbol
 _atom_site_label
 _atom_site_symmetry_multiplicity
 _atom_site_fract_x
 _atom_site_fract_y
 _atom_site_fract_z
 _atom_site_occupancy
  V  V0  1  0.87200334  0.01001285  0.87556320  1
  V  V1  1  0.12216347  0.86990412  0.24990406  1
  V  V2  1  -0.01213537  0.24392437  0.24724576  1
  V  V3  1  0.13271399  0.13179058  0.00008599  1
  V  V4  1  -0.00158943  0.62720157  0.63680222  1
  V  V5  1  0.75725604  0.50333381  0.24897425  1
  V  V6  1  0.14170454  0.25560455  0.87906455  1
  V  V7  1  0.87509161  0.37005708  0.00715366  1
  V  V8  1  0.74907840  0.36650603  0.12557702  1
  V  V9  1  0.73137751  0.38008087  0.62658450  1
  V  V10  1  0.75739123  0.62526636  0.37514846  1
  V  V11  1  0.24425663  0.87681187  0.60859679  1
  V  V12  1  0.24867321  0.86644461  0.12020313  1
  V  V13  1  0.51305667  0.87175960  0.86670011  1
  V  V14  1  -0.00783548  0.37503143  0.38138804  1
  V  V15  1  -0.01037874  0.12770904  0.13010174  1
  V  V16  1  0.00238136  0.00032903  0.50561536  1
  V  V17  1  0.75086158  0.24777733  -0.00747617  1
  V  V18  1  0.62192927  0.00065711  0.12956965  1
  V  V19  1  0.38345402  0.74527777  0.12277365  1
  V  V20  1  -0.00059999  0.50519766  0.00332871  1
  V  V21  1  0.74302093  0.63055107  0.87565661  1
  V  V22  1  0.25451556  0.00380940  0.25161535  1
  V  V23  1  0.63476206  -0.01277702  0.62649006  1
  V  V24  1  0.87709707  0.00980896  0.37088040  1
  V  V25  1  0.37568310  0.76036459  0.60991474  1
  V  V26  1  0.12547855  0.12125859  0.50768020  1
  V  V27  1  0.25747787  0.51159275  0.76494724  1
  V  V28  1  0.62733366  0.12653439  -0.01132769  1
  V  V29  1  0.87416904  0.50186754  0.87107805  1
  V  V30  1  0.00127703  0.37419627  0.87625902  1
  V  V31  1  0.26506077  0.12544410  0.37558854  1
  V  V32  1  0.50790528  0.75477201  0.74605932  1
  V  V33  1  -0.00184454  0.00058172  -0.00078654  1
  V  V34  1  0.12767167  0.75033183  0.37815692  1
  V  V35  1  0.50426806  0.49722599  0.50022953  1
  V  V36  1  0.75208706  0.00951314  0.24887710  1
  V  V37  1  0.12455966  0.37311373  0.24877071  1
  V  V38  1  0.87710930  0.26633461  0.62582911  1
  V  V39  1  0.87419563  0.74902786  0.14306776  1
  V  V40  1  0.62590157  0.12728085  0.50191861  1
  V  V41  1  -0.00361430  0.12648444  0.63061172  1
  V  V42  1  0.62716907  0.62291599  0.50319262  1
  V  V43  1  0.61942122  0.61859886  0.01055640  1
  V  V44  1  0.73312530  0.49841191  0.74836911  1
  V  V45  1  0.25227168  0.25185209  0.50915915  1
  V  V46  1  0.24974446  0.49740769  0.24994646  1
  V  V47  1  0.24349500  0.39178996  0.62189331  1
  V  V48  1  0.12679489  0.64246019  -0.00771248  1
  V  V49  1  0.25138048  0.62855360  0.37794214  1
  V  V50  1  0.12626161  0.38047586  0.74773315  1
  V  V51  1  0.61651343  0.27061555  0.86335475  1
  V  V52  1  0.36751123  -0.00296316  0.86585166  1
  V  V53  1  0.62308808  0.36821619  0.26568795  1
  V  V54  1  0.12486519  0.24566054  0.37415597  1
  V  V55  1  0.11973305  0.61520850  0.50125205  1
  V  V56  1  0.38907292  0.62096899  0.24404449  1
  V  V57  1  0.74834254  0.74989590  -0.00062976  1
  V  V58  1  0.48755610  0.14289293  0.12133690  1
  V  V59  1  0.49477697  0.24888653  0.27215519  1
  V  V60  1  0.87303804  0.87455171  0.50643474  1
  V  V61  1  0.74498274  0.87580663  0.13099349  1
  V  V62  1  0.36765230  0.86685256  -0.00686402  1
  V  V63  1  0.49868271  -0.00152349  -0.00197553  1
  V  V64  1  0.49842348  -0.01164589  0.49987475  1
  V  V65  1  0.74523990  0.13041645  0.37454741  1
  V  V66  1  0.75192983  0.25468113  0.49991659  1
  V  V67  1  0.74462704  -0.00315275  0.75701454  1
  V  V68  1  0.49416694  0.62038372  0.62873820  1
  V  V69  1  -0.00515549  0.62986264  0.14031208  1
  V  V70  1  0.00260522  0.86582406  0.86703129  1
  V  V71  1  0.38265692  -0.02090980  0.37450059  1
  V  V72  1  0.75356353  0.75077157  0.50686255  1
  V  V73  1  0.38151781  0.49640354  0.37536305  1
  V  V74  1  0.12500142  0.00078741  0.12519869  1
  V  V75  1  -0.00195151  0.87082282  0.37080167  1
  V  V76  1  0.37507728  0.37601014  0.50379459  1
  V  V77  1  0.25569656  0.36228603  0.11547172  1
  V  V78  1  0.37642296  0.13490966  0.73940919  1
  Zn  Zn79  1  0.87528296  0.50072895  0.38323776  1
  Zn  Zn80  1  0.87454943  0.87308639  -0.00085741  1
  Zn  Zn81  1  -0.00708208  0.48858902  0.51393256  1
  Zn  Zn82  1  0.23803324  0.00448033  0.73327038  1
  Zn  Zn83  1  0.86359898  0.13415288  0.75545317  1
  Zn  Zn84  1  0.88114769  0.75945109  0.63657090  1
  Zn  Zn85  1  0.12326877  -0.11703869  0.74409228  1
  Zn  Zn86  1  0.87615345  0.63631539  0.75606856  1
  Zn  Zn87  1  0.50420177  0.13556513  0.63272263  1
  Zn  Zn88  1  0.50837229  0.76708195  0.25169230  1
  Zn  Zn89  1  -0.00015027  0.25083073  0.75242477  1
  Zn  Zn90  1  0.12310162  0.50381439  0.12529236  1
  Zn  Zn91  1  0.62354623  0.76286694  0.36999309  1
  Zn  Zn92  1  0.61399040  0.49843708  0.12753199  1
  Zn  Zn93  1  0.25201892  0.12847170  0.87198860  1
  Zn  Zn94  1  0.18464685  0.18469217  0.18861642  1
  Zn  Zn95  1  0.18902116  0.19038126  0.69386726  1
  Zn  Zn96  1  0.18535781  0.68582432  0.18772289  1
  Zn  Zn97  1  0.19541587  0.68730540  0.67836153  1
  Zn  Zn98  1  0.67884158  0.18591893  0.18421879  1
  Zn  Zn99  1  0.68812467  0.18409027  0.68964726  1
  Zn  Zn100  1  0.68288436  0.68666787  0.18844253  1
  Zn  Zn101  1  0.68787310  0.68745846  0.68703716  1
  Zn  Zn102  1  0.31238518  0.31118373  0.31508400  1
  Zn  Zn103  1  0.33646897  0.33380332  0.79890309  1
  Zn  Zn104  1  0.31522512  0.80690827  0.30473841  1
  Zn  Zn105  1  0.32118896  0.81960236  0.78739026  1
  Zn  Zn106  1  0.81054667  0.31149604  0.31132684  1
  Zn  Zn107  1  0.80950988  0.31439747  0.81117210  1
  Zn  Zn108  1  0.79992713  0.81958880  0.31941533  1
  Zn  Zn109  1  0.81244977  0.81905505  0.81302268  1
  Zn  Zn110  1  0.18624081  0.43806454  0.43369286  1
  Zn  Zn111  1  0.18933071  0.44672111  0.93821651  1
  Zn  Zn112  1  0.18920761  0.93860018  0.43706157  1
  Zn  Zn113  1  0.18287531  0.93725926  0.93492272  1
  Zn  Zn114  1  0.69073082  0.43974440  0.44021132  1
  Zn  Zn115  1  0.68613696  0.43968329  0.93779305  1
  Zn  Zn116  1  0.69330922  0.94076487  0.44270442  1
  Zn  Zn117  1  0.69076350  0.93853053  0.94132959  1
  Zn  Zn118  1  0.31191114  0.05786675  0.05961618  1
  Zn  Zn119  1  0.31497308  0.05885426  0.55797153  1
  Zn  Zn120  1  0.29441452  0.57316717  0.07360672  1
  Zn  Zn121  1  0.31428244  0.56696644  0.56244277  1
  Zn  Zn122  1  0.81069741  0.06594070  0.06118293  1
  Zn  Zn123  1  0.81445533  0.06492699  0.56573325  1
  Zn  Zn124  1  0.81153551  0.56321398  0.06552891  1
  Zn  Zn125  1  0.81905995  0.56013574  0.56286006  1
  Zn  Zn126  1  0.43317812  0.42090980  0.19082229  1
  Zn  Zn127  1  0.43321290  0.44181256  0.69105087  1
  Zn  Zn128  1  0.43033868  0.94279109  0.17987670  1
  Zn  Zn129  1  0.43760648  0.93995674  0.68172779  1
  Zn  Zn130  1  0.93784097  0.43530252  0.19106155  1
  Zn  Zn131  1  0.94252377  0.44682812  0.68924134  1
  Zn  Zn132  1  0.93430221  0.93878255  0.18667484  1
  Zn  Zn133  1  0.93574123  0.94116000  0.69415825  1
  Zn  Zn134  1  0.06511939  0.06104838  0.31359555  1
  Zn  Zn135  1  0.06543311  0.06238582  0.81462231  1
  Zn  Zn136  1  0.06306862  0.55985660  0.31644574  1
  Zn  Zn137  1  0.07282991  0.56684643  0.81139697  1
  Zn  Zn138  1  0.56706179  -0.06878643  0.30884250  1
  Zn  Zn139  1  0.55924029  0.06222032  0.80762106  1
  Zn  Zn140  1  0.57105458  0.56197567  0.31609597  1
  Zn  Zn141  1  0.55783859  0.56797058  0.81601988  1
  Zn  Zn142  1  0.45184200  0.19677590  0.46583886  1
  Zn  Zn143  1  0.44580461  0.18109200  0.92079684  1
  Zn  Zn144  1  0.44178801  0.68851554  0.43314277  1
  Zn  Zn145  1  0.44359005  0.69199310  0.93820630  1
  Zn  Zn146  1  0.93490497  0.19177962  0.44225301  1
  Zn  Zn147  1  0.94225201  0.18863692  0.94266014  1
  Zn  Zn148  1  0.93780546  0.68881664  0.43660799  1
  Zn  Zn149  1  0.93218445  0.68736681  0.94610018  1
  Zn  Zn150  1  0.06476424  0.31102051  0.06485566  1
  Zn  Zn151  1  0.06608754  0.30853976  0.56465896  1
  Zn  Zn152  1  0.05713003  0.81274532  0.06259611  1
  Zn  Zn153  1  0.06324791  0.80738331  0.55834385  1
  Zn  Zn154  1  0.56804114  0.31941108  0.05633150  1
  Zn  Zn155  1  0.56079341  0.31037612  0.56451441  1
  Zn  Zn156  1  0.56415053  0.81243838  0.06009396  1
  Zn  Zn157  1  0.56750233  0.80675477  0.55909622  1
  O  O158  1  0.11972953  0.11816941  0.11777617  1
  O  O159  1  0.11586276  0.13620275  0.61310526  1
  O  O160  1  0.10938973  0.62608065  0.12041179  1
  O  O161  1  0.11950148  0.63367695  0.60552149  1
  O  O162  1  0.61256111  0.11864939  0.11126642  1
  O  O163  1  0.62443563  0.11720176  0.61528728  1
  O  O164  1  0.63005810  0.61612672  0.11585272  1
  O  O165  1  0.61335387  0.62910361  0.61093983  1
  O  O166  1  0.36477106  0.39002130  0.38673333  1
  O  O167  1  0.37459069  0.34090516  0.93631887  1
  O  O168  1  0.36676933  0.88161423  0.37688509  1
  O  O169  1  0.37719799  0.87861309  0.87876146  1
  O  O170  1  0.89107540  0.36783671  0.37539563  1
  O  O171  1  0.88133257  0.38380770  0.88340060  1
  O  O172  1  0.88247732  0.88531431  0.38086460  1
  O  O173  1  0.88430510  0.89187045  0.87889487  1
  O  O174  1  0.26071033  0.00531599  0.37224569  1
  O  O175  1  0.26195042  -0.00033573  0.87745181  1
  O  O176  1  0.25713223  0.50689409  0.36631743  1
  O  O177  1  0.26016266  0.49290331  0.86523879  1
  O  O178  1  0.75937830  0.00991440  0.36768761  1
  O  O179  1  0.75577164  0.00041982  0.86799589  1
  O  O180  1  0.75122913  0.50364553  0.36497742  1
  O  O181  1  0.75600420  0.50474041  0.86473226  1
  O  O182  1  0.24471341  0.49106740  0.13810170  1
  O  O183  1  0.24274282  0.49382884  0.62012290  1
  O  O184  1  0.24691978  0.99096158  0.13309306  1
  O  O185  1  0.25187800  0.98272135  0.61377842  1
  O  O186  1  0.75352648  0.49132749  0.13944469  1
  O  O187  1  0.75081225  0.49153423  0.63685913  1
  O  O188  1  0.74365757  0.99757935  0.12913025  1
  O  O189  1  0.74041602  0.99933332  0.63019214  1
  O  O190  1  0.00720898  0.36523709  0.25791355  1
  O  O191  1  0.00784910  0.37874416  0.76147965  1
  O  O192  1  0.01089363  0.88665939  0.25951606  1
  O  O193  1  0.00088587  0.87512419  0.76194422  1
  O  O194  1  0.51430635  0.36457217  0.25067643  1
  O  O195  1  0.43758415  0.37950694  0.78098405  1
  O  O196  1  0.49256944  0.87989233  0.24464220  1
  O  O197  1  0.49974657  0.87597781  0.76143315  1
  O  O198  1  0.50445077  0.14974604  0.22641122  1
  O  O199  1  0.48397922  0.12214040  0.74815898  1
  O  O200  1  0.48775432  0.60475845  0.24435904  1
  O  O201  1  0.50743637  0.63087293  0.73263070  1
  O  O202  1  1.00947704  0.13135112  0.24249822  1
  O  O203  1  1.00073043  0.12790718  0.73809059  1
  O  O204  1  1.00262143  0.62077074  0.23911423  1
  O  O205  1  1.00690845  0.62726939  0.73926666  1
  O  O206  1  0.37566975  0.27707740  -0.02501884  1
  O  O207  1  0.35788410  0.26528960  0.48409653  1
  O  O208  1  0.37557202  0.75917562  0.00347743  1
  O  O209  1  0.38429388  0.74984805  0.51012667  1
  O  O210  1  0.86764463  0.26202018  -0.00664682  1
  O  O211  1  0.86285264  0.24779692  0.51352379  1
  O  O212  1  0.86151995  0.75145577  0.01435703  1
  O  O213  1  0.87056179  0.75969663  0.49897986  1
  O  O214  1  0.13270759  0.24226165  0.49098657  1
  O  O215  1  0.11925153  0.24194196  0.99161007  1
  O  O216  1  0.12439752  0.73869336  0.48220764  1
  O  O217  1  0.12529556  0.74224521  1.00783023  1
  O  O218  1  0.64341811  0.24115240  0.50700442  1
  O  O219  1  0.63217417  0.24613959  0.98873797  1
  O  O220  1  0.63664676  0.74047834  0.49584559  1
  O  O221  1  0.64112198  0.73884563  1.01214120  1
  O  O222  1  0.49540285  0.24149134  0.10041070  1
  O  O223  1  0.48670708  0.22996512  0.57372689  1
  O  O224  1  0.48565204  0.75585046  0.12377791  1
  O  O225  1  0.49503389  0.74329143  0.62425301  1
  O  O226  1  1.00774369  0.24024620  0.13571054  1
  O  O227  1  0.99234680  0.24418334  0.62505304  1
  O  O228  1  0.98527320  0.74274589  0.12649981  1
  O  O229  1  0.99836316  0.73258870  0.61491814  1
  O  O230  1  0.00748812  0.25419511  0.37066124  1
  O  O231  1  0.00390149  0.26522467  0.87679330  1
  O  O232  1  0.00737799  0.76420264  0.37556630  1
  O  O233  1  -0.01429756  0.76903837  0.88623197  1
  O  O234  1  0.50340010  0.23826282  0.36980331  1
  O  O235  1  0.51761435  0.25418525  0.87915828  1
  O  O236  1  0.51078502  0.73535135  0.36336875  1
  O  O237  1  0.49626871  0.76550166  0.86497621  1
  O  O238  1  0.24408766  0.13168852  0.49527098  1
  O  O239  1  0.23618268  0.11837850  0.99740722  1
  O  O240  1  0.23892456  0.61724039  0.48568555  1
  O  O241  1  0.22553022  0.61401912  0.99946913  1
  O  O242  1  0.74660524  0.13184663  0.49650053  1
  O  O243  1  0.73992962  0.13670907  1.00640725  1
  O  O244  1  0.74588994  0.62766162  0.49570943  1
  O  O245  1  0.74596889  0.63048473  0.99467371  1
  O  O246  1  0.23423427  0.38086376  0.01837272  1
  O  O247  1  0.24951503  0.37114319  0.50431427  1
  O  O248  1  0.25644726  0.88182661  0.00902898  1
  O  O249  1  0.24404542  0.86930506  0.50732341  1
  O  O250  1  0.75724223  0.37047880  0.00687330  1
  O  O251  1  0.74439452  0.37118072  0.51732233  1
  O  O252  1  0.75186179  0.86907007  0.01150504  1
  O  O253  1  0.76380859  0.86547569  0.49546016  1
  O  O254  1  0.13349692  0.49010897  0.25385200  1
  O  O255  1  0.13239957  0.48395204  0.76069960  1
  O  O256  1  0.13508846  0.98997348  0.24817540  1
  O  O257  1  0.12529079  0.99827034  0.74855547  1
  O  O258  1  0.63272669  0.48528649  0.24859050  1
  O  O259  1  0.63481707  0.50163544  0.75585177  1
  O  O260  1  0.63374200  1.00333286  0.23484600  1
  O  O261  1  0.63262190  1.00508712  0.73791247  1
  O  O262  1  0.36394422  -0.00307664  0.26268716  1
  O  O263  1  0.37377618  0.00241924  0.75802155  1
  O  O264  1  0.36803576  0.49956777  0.25587603  1
  O  O265  1  0.35284610  0.51550168  0.73491269  1
  O  O266  1  0.86656976  -0.00082484  0.25990877  1
  O  O267  1  0.86443353  0.00535002  0.75836674  1
  O  O268  1  0.85993595  0.48916406  0.25823136  1
  O  O269  1  0.87242064  0.50605778  0.76322711  1
  O  O270  1  0.12076292  0.36424549  0.36622182  1
  O  O271  1  0.11757462  0.37167667  0.87327658  1
  O  O272  1  0.11992182  0.87017085  0.36895749  1
  O  O273  1  0.10542200  0.87803685  0.87812277  1
  O  O274  1  0.63227806  0.37270480  0.36443130  1
  O  O275  1  0.62435904  0.37106209  0.87413854  1
  O  O276  1  0.64266503  0.87731362  0.36875345  1
  O  O277  1  0.61075765  0.88040930  0.88100886  1
  O  O278  1  0.38928021  0.12011020  0.11431385  1
  O  O279  1  0.37441296  0.11574528  0.63689149  1
  O  O280  1  0.36883207  0.63295944  0.13008718  1
  O  O281  1  0.38927844  0.63668966  0.61702712  1
  O  O282  1  0.89029996  0.12174654  0.12179009  1
  O  O283  1  0.88480333  0.13577151  0.62641036  1
  O  O284  1  0.88192385  0.63684259  0.12686406  1
  O  O285  1  0.89013151  0.62549882  0.62999383  1
  O  O286  1  0.24017258  0.26302479  0.13101445  1
  O  O287  1  0.24441664  0.25899102  0.61227888  1
  O  O288  1  0.25877682  0.76147161  0.13280850  1
  O  O289  1  0.26927367  0.75560071  0.62557959  1
  O  O290  1  0.74379325  0.25893557  0.11359185  1
  O  O291  1  0.75644476  0.26598327  0.62492870  1
  O  O292  1  0.75873471  0.75666365  0.12401581  1
  O  O293  1  0.75598849  0.74010210  0.60964025  1
  O  O294  1  0.24035600  0.24303681  0.37892846  1
  O  O295  1  0.24189566  0.25884442  0.86918192  1
  O  O296  1  0.24254997  0.73719514  0.36428981  1
  O  O297  1  0.21692356  0.75538667  0.83097868  1
  O  O298  1  0.76138953  0.24202212  0.38729914  1
  O  O299  1  0.74108289  0.25847423  0.88689802  1
  O  O300  1  0.74998154  0.73990491  0.38564666  1
  O  O301  1  0.75713761  0.74184207  0.88697478  1
  O  O302  1  0.00923346  0.11871159  0.00887625  1
  O  O303  1  0.00643942  0.12032656  0.50646887  1
  O  O304  1  0.00234670  0.62021158  0.01286232  1
  O  O305  1  0.01304845  0.62163552  0.49495314  1
  O  O306  1  0.50460852  0.11392052  0.00070041  1
  O  O307  1  0.51951462  0.10290823  0.48595617  1
  O  O308  1  0.52165544  0.63357047  -0.00228742  1
  O  O309  1  0.50708705  0.61636261  0.50718136  1
  O  O310  1  0.48963004  0.38851950  0.50812709  1
  O  O311  1  0.49795581  0.41362214  1.03750333  1
  O  O312  1  0.51185529  0.88975728  0.49901529  1
  O  O313  1  0.49157220  0.87982971  0.98885497  1
  O  O314  1  1.01310997  0.37224476  0.48399249  1
  O  O315  1  0.99342034  0.38269043  0.99755936  1
  O  O316  1  0.99701729  0.88299108  0.49022904  1
  O  O317  1  0.99754729  0.88954846  0.99843920  1
  O  O318  1  0.48975856  0.50691286  0.38531980  1
  O  O319  1  0.49083540  0.49597160  0.88135903  1
  O  O320  1  0.48729249  0.99159994  0.37949316  1
  O  O321  1  0.49148430  0.98970418  0.88018846  1
  O  O322  1  0.99864525  0.48077888  0.36860357  1
  O  O323  1  0.99272582  0.49348458  0.88382876  1
  O  O324  1  0.99452262  0.99542126  0.38311658  1
  O  O325  1  0.99284933  0.99699263  0.88483783  1
  O  O326  1  0.00495741  0.00575408  0.11939193  1
  O  O327  1  -0.00823245  0.01004344  0.61203560  1
  O  O328  1  -0.00662405  0.51238357  0.12104107  1
  O  O329  1  0.00568384  0.51786681  0.62529703  1
  O  O330  1  0.50436053  0.00507278  0.11237020  1
  O  O331  1  0.50857188  0.00388390  0.61147587  1
  O  O332  1  0.49776822  0.46659357  0.09905196  1
  O  O333  1  0.49177503  0.51303207  0.61855276  1
  O  O334  1  0.24172679  0.38028887  0.24861841  1
  O  O335  1  0.24612067  0.38688660  0.73934272  1
  O  O336  1  0.24292828  0.88266090  0.24220400  1
  O  O337  1  0.24786152  0.88423351  0.73105300  1
  O  O338  1  0.74150640  0.37740291  0.24541128  1
  O  O339  1  0.75254588  0.38923464  0.74073276  1
  O  O340  1  0.75349346  0.89098624  0.23796074  1
  O  O341  1  0.75105946  0.89589045  0.75204359  1
  O  O342  1  0.24112732  0.11243626  0.26135487  1
  O  O343  1  0.25899864  0.11899064  0.75125862  1
  O  O344  1  0.25446493  0.61321907  0.25463751  1
  O  O345  1  0.22297494  0.60622273  0.75060815  1
  O  O346  1  0.74492178  0.11774473  0.25522899  1
  O  O347  1  0.75192835  0.10776963  0.74442421  1
  O  O348  1  0.74483064  0.60798028  0.25616418  1
  O  O349  1  0.74821736  0.61302332  0.75667107  1
  O  O350  1  0.36428723  0.12273446  0.38461886  1
  O  O351  1  0.37247969  0.11445548  0.86542762  1
  O  O352  1  0.36772681  0.61627792  0.36514416  1
  O  O353  1  0.40596515  0.60055304  0.87493278  1
  O  O354  1  0.86893138  0.11504630  0.38348144  1
  O  O355  1  0.88416324  0.11542070  0.87486436  1
  O  O356  1  0.86233320  0.62422784  0.37691524  1
  O  O357  1  0.86485353  0.61558670  0.87967681  1
  O  O358  1  0.12490250  0.37922869  0.13952754  1
  O  O359  1  0.13089937  0.36966759  0.63653900  1
  O  O360  1  0.12961135  0.87905887  0.13107086  1
  O  O361  1  0.13973968  0.85577264  0.62675132  1
  O  O362  1  0.63878798  0.37956731  0.12957124  1
  O  O363  1  0.63272767  0.37315969  0.62950938  1
  O  O364  1  0.63412331  0.88809930  0.11581016  1
  O  O365  1  0.62289821  0.88901754  0.62213164  1
  O  O366  1  0.11876488  0.25475358  0.26064126  1
  O  O367  1  0.12252744  0.26214924  0.76132867  1
  O  O368  1  0.12799827  0.76272433  0.25750650  1
  O  O369  1  0.15942643  0.75552257  0.77951899  1
  O  O370  1  0.61788566  0.26234406  0.24655032  1
  O  O371  1  0.63315957  0.24783521  0.76557317  1
  O  O372  1  0.62352550  0.75212074  0.25125807  1
  O  O373  1  0.60976685  0.75134118  0.73910372  1
  O  O374  1  0.39570441  0.26420277  0.25606106  1
  O  O375  1  0.36521411  0.23249898  0.75000010  1
  O  O376  1  0.37963223  0.73622519  0.24039906  1
  O  O377  1  0.39528991  0.75365941  0.73110648  1
  O  O378  1  0.88869727  0.25103837  0.25242008  1
  O  O379  1  0.87796304  0.25076816  0.74283172  1
  O  O380  1  0.86636351  0.75611208  0.24157312  1
  O  O381  1  0.86518379  0.74774567  0.74714686  1
  O  O382  1  0.38136777  0.49764247  0.49257873  1
  O  O383  1  0.42530642  0.52909717  0.90990447  1
  O  O384  1  0.38982246  1.00112447  0.48775630  1
  O  O385  1  0.38259508  0.98886342  0.99116880  1
  O  O386  1  0.88099798  0.49674945  0.49600249  1
  O  O387  1  0.88008102  0.49339602  0.99332718  1
  O  O388  1  0.88204434  0.99448568  0.49180573  1
  O  O389  1  0.88248726  1.00236034  0.99484404  1
  O  O390  1  0.11542289  0.00870272  0.00410518  1
  O  O391  1  0.11404932  0.01045555  0.49214030  1
  O  O392  1  0.10714278  0.50440066  0.00334575  1
  O  O393  1  0.11862597  0.51187758  0.48990442  1
  O  O394  1  0.61768335  0.00644453  0.00583331  1
  O  O395  1  0.62547205  0.00562084  0.51144560  1
  O  O396  1  0.63338521  0.51402482  0.00408783  1
  O  O397  1  0.61375317  0.50592175  0.49627202  1
  O  O398  1  0.35485238  0.37534949  0.12440561  1
  O  O399  1  0.36023470  0.38343169  0.60890639  1
  O  O400  1  0.36604019  0.86827815  0.11299861  1
  O  O401  1  0.36931300  0.86717892  0.61995764  1
  O  O402  1  0.86714215  0.37959740  0.11482582  1
  O  O403  1  0.87800510  0.36896101  0.63035019  1
  O  O404  1  0.86779252  0.86509915  0.12419380  1
  O  O405  1  0.88648674  0.87755070  0.60970201  1
  O  O406  1  0.13040716  0.13148622  0.38565572  1
  O  O407  1  0.12599196  0.13853981  0.88268298  1
  O  O408  1  0.13101875  0.63120273  0.37741451  1
  O  O409  1  0.10642212  0.63193631  0.89440519  1
  O  O410  1  0.64430339  0.12048068  0.38780742  1
  O  O411  1  0.61938929  0.12289291  0.88705850  1
  O  O412  1  0.64011701  0.62033471  0.38805312  1
  O  O413  1  0.63789038  0.62128556  0.88576267  1
