# generated using pymatgen
data_V79Zn79O256
_symmetry_space_group_name_H-M   'P 1'
_cell_length_a   16.88284988
_cell_length_b   16.92238597
_cell_length_c   16.92519615
_cell_angle_alpha   90.16957168
_cell_angle_beta   89.81154954
_cell_angle_gamma   90.07681812
_symmetry_Int_Tables_number   1
_chemical_formula_structural   V79Zn79O256
_chemical_formula_sum   'V79 Zn79 O256'
_cell_volume   4835.44480009
_cell_formula_units_Z   1
loop_
 _symmetry_equiv_pos_site_id
 _symmetry_equiv_pos_as_xyz
  1  'x, y, z'
loop_
 _atom_site_type_symbol
 _atom_site_label
 _atom_site_symmetry_multiplicity
 _atom_site_fract_x
 _atom_site_fract_y
 _atom_site_fract_z
 _atom_site_occupancy
  V  V0  1  0.62013240  0.62648867  0.50545821  1
  V  V1  1  0.87117785  0.24090974  0.12488134  1
  V  V2  1  0.62485643  -0.02741073  0.11882450  1
  V  V3  1  0.25938960  0.87050176  0.61849320  1
  V  V4  1  0.12217046  0.75416933  0.87266096  1
  V  V5  1  0.74960344  0.75083714  0.50020960  1
  V  V6  1  0.26140588  0.74986906  0.50273106  1
  V  V7  1  0.63251485  0.37670984  0.74384765  1
  V  V8  1  0.87983949  0.13419673  0.75036070  1
  V  V9  1  0.12238426  0.87348263  0.74960666  1
  V  V10  1  0.24934640  0.24842132  0.49520520  1
  V  V11  1  0.74785305  0.37181134  0.12148918  1
  V  V12  1  0.50138818  0.23894388  0.25239559  1
  V  V13  1  0.23100340  0.50040118  0.74933377  1
  V  V14  1  0.37347325  0.12391268  0.75889395  1
  V  V15  1  0.87686679  0.37512442  -0.00309027  1
  V  V16  1  0.25708881  0.50158039  0.25003205  1
  V  V17  1  0.24937467  0.36081919  0.11812440  1
  V  V18  1  0.48917332  0.62622699  0.13909902  1
  V  V19  1  0.13791953  0.24122984  0.86828553  1
  V  V20  1  -0.00564576  0.24496592  0.25286036  1
  V  V21  1  0.50752886  0.12985358  0.61472624  1
  V  V22  1  0.62147411  0.13427492  0.01298527  1
  V  V23  1  0.12823717  0.61204032  0.50232809  1
  V  V24  1  0.61908121  0.50182057  0.12440133  1
  V  V25  1  0.00397738  0.00670574  0.00323766  1
  V  V26  1  0.86839322  0.00742203  0.35976562  1
  V  V27  1  0.50196920  -0.00410264  0.49452027  1
  V  V28  1  0.87945122  0.74932560  0.63394012  1
  V  V29  1  0.24891102  0.62386704  0.87647241  1
  V  V30  1  0.74951335  0.88011612  0.63001561  1
  V  V31  1  0.62807628  0.50116336  0.62465815  1
  V  V32  1  0.74969834  0.13261339  0.87759280  1
  V  V33  1  -0.01519040  0.37951363  0.37765183  1
  V  V34  1  0.00647960  0.74325239  0.23701044  1
  V  V35  1  0.75696742  0.49966837  0.25651303  1
  V  V36  1  0.75704544  0.50723467  0.75904008  1
  V  V37  1  0.50202914  0.49327134  0.50133479  1
  V  V38  1  -0.00215133  -0.00251934  0.49863661  1
  V  V39  1  0.87530656  0.00220532  0.87266241  1
  V  V40  1  0.23243773  0.38012462  0.62991344  1
  V  V41  1  0.61578020  0.37621100  0.26777645  1
  V  V42  1  0.25502368  0.00337987  0.75354867  1
  V  V43  1  0.36591024  0.00435580  0.38073931  1
  V  V44  1  0.38288918  0.49342159  0.37383967  1
  V  V45  1  0.37685342  0.25765940  0.62236383  1
  V  V46  1  0.37708148  0.36781231  0.00277298  1
  V  V47  1  0.76602248  0.72248703  -0.00021702  1
  V  V48  1  0.36517991  0.12896092  0.24166459  1
  V  V49  1  0.00355301  0.87082508  0.36889295  1
  V  V50  1  0.49989637  0.00537981  -0.01396955  1
  V  V51  1  0.60336669  0.61561060  -0.01277769  1
  V  V52  1  0.86853789  0.87381665  0.01347587  1
  V  V53  1  0.12346603  0.62820586  0.00867465  1
  V  V54  1  0.00115025  0.49796279  0.00313616  1
  V  V55  1  0.62814841  0.25258957  0.87805104  1
  V  V56  1  -0.01955410  0.49814305  0.49782193  1
  V  V57  1  0.49571658  0.87034631  0.35842821  1
  V  V58  1  0.25777025  0.62278400  0.37452110  1
  V  V59  1  0.12504113  0.37360400  0.25399383  1
  V  V60  1  0.24645226  -0.01093287  0.24344620  1
  V  V61  1  0.00973926  0.36744589  0.86610714  1
  V  V62  1  0.86775671  0.26166065  0.61934571  1
  V  V63  1  0.24999821  0.77200554  0.00628222  1
  V  V64  1  0.12915553  0.12665586  0.49403904  1
  V  V65  1  0.74585457  0.25520775  0.48458856  1
  V  V66  1  0.12509142  0.00074426  0.62447885  1
  V  V67  1  0.38849164  0.88185748  -0.00826190  1
  V  V68  1  0.12464764  0.50853826  0.12838126  1
  V  V69  1  0.88308129  0.62336957  0.23703194  1
  V  V70  1  0.11748315  -0.01168396  0.13199823  1
  V  V71  1  0.37923899  0.63576700  0.73492566  1
  V  V72  1  0.00406619  0.62608318  0.62917669  1
  V  V73  1  0.50085316  0.25420216  0.74902394  1
  V  V74  1  0.76038385  0.62410079  0.37774354  1
  V  V75  1  0.00030634  0.13264993  0.62880494  1
  V  V76  1  0.12473465  0.75065564  0.37731883  1
  V  V77  1  0.49827909  0.38307182  0.87913031  1
  V  V78  1  -0.00033978  0.87572550  0.87064799  1
  Zn  Zn79  1  0.15688117  0.14314111  0.00679935  1
  Zn  Zn80  1  0.12388595  0.24751399  0.37480371  1
  Zn  Zn81  1  0.64547402  0.86339302  0.24975009  1
  Zn  Zn82  1  0.38070872  0.37143769  0.49562029  1
  Zn  Zn83  1  0.63671001  0.12612141  0.46864623  1
  Zn  Zn84  1  0.61618188  0.74265809  0.36080391  1
  Zn  Zn85  1  0.74144029  0.00225739  0.75215799  1
  Zn  Zn86  1  -0.13294457  0.63147441  0.77133615  1
  Zn  Zn87  1  0.87509993  0.87411993  0.49830828  1
  Zn  Zn88  1  0.62806551  0.00435383  0.61926052  1
  Zn  Zn89  1  0.61198272  0.87440845  0.75920416  1
  Zn  Zn90  1  0.62396498  0.75502857  0.87165769  1
  Zn  Zn91  1  0.37395978  0.50211441  0.87459539  1
  Zn  Zn92  1  0.00598053  0.12722572  0.12725726  1
  Zn  Zn93  1  0.38807010  0.77013420  0.14842108  1
  Zn  Zn94  1  0.18277361  0.17974264  0.19069489  1
  Zn  Zn95  1  0.18774220  0.19230754  0.68897874  1
  Zn  Zn96  1  0.21835871  0.71002528  0.20620691  1
  Zn  Zn97  1  0.18946335  0.68649322  0.68782879  1
  Zn  Zn98  1  0.68709716  0.19063864  0.20229597  1
  Zn  Zn99  1  0.69323447  0.19014360  0.68737461  1
  Zn  Zn100  1  0.68901014  0.69475639  0.17802363  1
  Zn  Zn101  1  0.68418448  0.69007615  0.69130429  1
  Zn  Zn102  1  0.31538471  0.31244500  0.31041928  1
  Zn  Zn103  1  0.30996639  0.31455728  0.81148750  1
  Zn  Zn104  1  0.31804322  0.81588405  0.31776312  1
  Zn  Zn105  1  0.31134317  0.81624680  0.81356346  1
  Zn  Zn106  1  0.80935884  0.31218930  0.30752959  1
  Zn  Zn107  1  0.81677389  0.31785722  0.81077783  1
  Zn  Zn108  1  0.82267826  0.80776007  0.31378978  1
  Zn  Zn109  1  0.80379622  0.80991446  0.81832312  1
  Zn  Zn110  1  0.19164456  0.43232858  0.43825171  1
  Zn  Zn111  1  0.18452003  0.43482608  0.93682646  1
  Zn  Zn112  1  0.18747512  0.93555743  0.43641684  1
  Zn  Zn113  1  0.21474816  0.97963089  0.95907534  1
  Zn  Zn114  1  0.69828219  0.43775977  0.44449037  1
  Zn  Zn115  1  0.69051119  0.43990704  0.93701729  1
  Zn  Zn116  1  0.68393526  0.93571950  0.43385509  1
  Zn  Zn117  1  0.68788374  0.93910446  0.93724722  1
  Zn  Zn118  1  0.31674938  0.06527304  0.06851241  1
  Zn  Zn119  1  0.31549959  0.06714036  0.56685232  1
  Zn  Zn120  1  0.31279609  0.55393572  0.05785270  1
  Zn  Zn121  1  0.31382545  0.55885279  0.56223281  1
  Zn  Zn122  1  0.80594205  0.06352741  0.05530559  1
  Zn  Zn123  1  0.81316457  0.07034841  0.55511278  1
  Zn  Zn124  1  0.81482768  0.55348866  0.06842487  1
  Zn  Zn125  1  0.81035158  0.56485303  0.57306154  1
  Zn  Zn126  1  0.43699654  0.43270081  0.18428957  1
  Zn  Zn127  1  0.43368486  0.45093818  0.68927561  1
  Zn  Zn128  1  0.43752452  0.94783044  0.17485023  1
  Zn  Zn129  1  0.43762736  0.94459197  0.67897909  1
  Zn  Zn130  1  0.93804638  0.43359992  0.18639040  1
  Zn  Zn131  1  0.94395434  0.44350996  0.68534163  1
  Zn  Zn132  1  0.80636414  0.94334337  0.18628702  1
  Zn  Zn133  1  0.93406626  0.93997487  0.68679970  1
  Zn  Zn134  1  0.05837392  0.06006487  0.31284236  1
  Zn  Zn135  1  0.06691933  0.06676145  0.81387208  1
  Zn  Zn136  1  0.06542333  0.56147043  0.31767309  1
  Zn  Zn137  1  0.03979385  0.57129889  0.82849757  1
  Zn  Zn138  1  0.55631008  0.04684940  0.29405923  1
  Zn  Zn139  1  0.56591404  0.06463452  0.80507541  1
  Zn  Zn140  1  0.56695213  0.56395586  0.31390549  1
  Zn  Zn141  1  0.55881676  0.56500716  0.80193095  1
  Zn  Zn142  1  0.43994387  0.18813293  0.42917400  1
  Zn  Zn143  1  0.43586561  0.19083717  0.94285371  1
  Zn  Zn144  1  0.43975616  0.68390283  0.43633076  1
  Zn  Zn145  1  0.43264096  0.68963982  0.93840310  1
  Zn  Zn146  1  0.93455532  0.18878686  0.43845600  1
  Zn  Zn147  1  0.94376388  0.19356739  0.93972973  1
  Zn  Zn148  1  0.93745108  0.68576517  0.44306888  1
  Zn  Zn149  1  0.93795208  0.68568539  0.93972572  1
  Zn  Zn150  1  0.06363523  0.30917448  0.06068933  1
  Zn  Zn151  1  0.05716005  0.31450004  0.56062114  1
  Zn  Zn152  1  0.05920011  0.81903477  0.05876994  1
  Zn  Zn153  1  0.06752573  0.80905693  0.55929338  1
  Zn  Zn154  1  0.55517256  0.31201667  0.07112731  1
  Zn  Zn155  1  0.57290858  0.31293147  0.55450673  1
  Zn  Zn156  1  0.55778301  0.79310534  0.03673328  1
  Zn  Zn157  1  0.56325370  0.81529117  0.56201418  1
  O  O158  1  0.12513745  0.11404266  0.11839619  1
  O  O159  1  0.11963335  0.11735504  0.62089318  1
  O  O160  1  0.13645776  0.61443653  0.12056388  1
  O  O161  1  0.11492074  0.63612843  0.61212644  1
  O  O162  1  0.63165022  0.13741260  0.11190154  1
  O  O163  1  0.61141130  0.12901097  0.63164291  1
  O  O164  1  0.61446894  0.61366508  0.12368451  1
  O  O165  1  0.63039737  0.61799868  0.61398874  1
  O  O166  1  0.36924458  0.38867120  0.37826550  1
  O  O167  1  0.38326792  0.37142488  0.88132151  1
  O  O168  1  0.38395591  0.89093013  0.37553241  1
  O  O169  1  0.37122464  0.87347854  0.89154713  1
  O  O170  1  0.88603747  0.37760468  0.36774916  1
  O  O171  1  0.88488036  0.36694677  0.89010445  1
  O  O172  1  0.88968956  0.88139566  0.38032413  1
  O  O173  1  0.88363721  0.88695731  0.87115372  1
  O  O174  1  0.26050918  -0.00130766  0.37129678  1
  O  O175  1  0.24771314  -0.00922891  0.85046480  1
  O  O176  1  0.25810258  0.50444861  0.37084426  1
  O  O177  1  0.24362074  0.50970976  0.86853648  1
  O  O178  1  0.77211530  -0.00870217  0.38806033  1
  O  O179  1  0.76114552  0.01337370  0.87553120  1
  O  O180  1  0.74676808  0.50874617  0.36466387  1
  O  O181  1  0.74909230  0.49774529  0.85883513  1
  O  O182  1  0.24250183  0.49163972  0.13470805  1
  O  O183  1  0.24951744  0.48583988  0.62945630  1
  O  O184  1  0.23963939  0.99678130  0.13854507  1
  O  O185  1  0.24185593  0.99162073  0.62607797  1
  O  O186  1  0.74353641  0.49234325  0.13730967  1
  O  O187  1  0.73510601  0.49926567  0.63171126  1
  O  O188  1  0.73167169  1.00279636  0.11797067  1
  O  O189  1  0.75665575  0.98747698  0.61983298  1
  O  O190  1  0.00736500  0.36984526  0.25731878  1
  O  O191  1  -0.00294665  0.38936761  0.76991457  1
  O  O192  1  0.00037890  0.84854653  0.26430903  1
  O  O193  1  0.01106905  0.88559261  0.75735221  1
  O  O194  1  0.51475769  0.38602342  0.25583851  1
  O  O195  1  0.50576430  0.36777657  0.75681758  1
  O  O196  1  0.48819256  0.87638081  0.25827995  1
  O  O197  1  0.49938763  0.85190987  0.71042110  1
  O  O198  1  0.49475500  0.13410082  0.24841462  1
  O  O199  1  0.49183133  0.13631168  0.74085151  1
  O  O200  1  0.49990063  0.61996376  0.23933497  1
  O  O201  1  0.47858199  0.62511072  0.75444328  1
  O  O202  1  1.00692402  0.14175043  0.25087300  1
  O  O203  1  0.99201288  0.11713898  0.73927053  1
  O  O204  1  0.99236923  0.62769756  0.25659396  1
  O  O205  1  1.01407368  0.62233951  0.72677752  1
  O  O206  1  0.37023472  0.26590478  -0.00369681  1
  O  O207  1  0.36907437  0.24944751  0.50625047  1
  O  O208  1  0.35826539  0.76198522  0.00247785  1
  O  O209  1  0.36075605  0.74443256  0.49680568  1
  O  O210  1  0.88077758  0.25974783  0.01720690  1
  O  O211  1  0.86693579  0.24584297  0.51318127  1
  O  O212  1  0.87508449  0.76477563  -0.00617547  1
  O  O213  1  0.86476556  0.74857386  0.51098775  1
  O  O214  1  0.13115577  0.24279321  0.50177675  1
  O  O215  1  0.11827888  0.24679476  0.98590889  1
  O  O216  1  0.13417672  0.73858901  0.49173065  1
  O  O217  1  0.12915405  0.74946056  0.99163626  1
  O  O218  1  0.63667315  0.24430847  0.49274686  1
  O  O219  1  0.61368035  0.24256095  0.99119220  1
  O  O220  1  0.63228242  0.74200791  0.50268071  1
  O  O221  1  0.64929465  0.71033326  1.00878681  1
  O  O222  1  0.49078671  0.26950330  0.15313856  1
  O  O223  1  0.49698951  0.24937549  0.62976242  1
  O  O224  1  0.49518395  0.73072633  0.11811428  1
  O  O225  1  0.49501271  0.79189348  0.65548671  1
  O  O226  1  0.98901300  0.25046513  0.13417914  1
  O  O227  1  0.99090003  0.23714575  0.61670122  1
  O  O228  1  1.01353477  0.74806370  0.13884861  1
  O  O229  1  0.99185139  0.73801017  0.61245893  1
  O  O230  1  0.00021217  0.26079144  0.37085922  1
  O  O231  1  0.00211054  0.26282495  0.87182920  1
  O  O232  1  0.00979526  0.75327589  0.38250086  1
  O  O233  1  0.01148610  0.76626871  0.88249055  1
  O  O234  1  0.48821100  0.25840985  0.35414279  1
  O  O235  1  0.50881389  0.25673073  0.86556858  1
  O  O236  1  0.49472851  0.76727928  0.38073259  1
  O  O237  1  0.52480590  0.74961989  0.93214864  1
  O  O238  1  0.24040154  0.13677609  0.51237418  1
  O  O239  1  0.24998076  0.08511176  0.98598803  1
  O  O240  1  0.24551727  0.62913868  0.49489408  1
  O  O241  1  0.23921034  0.62886416  0.99309161  1
  O  O242  1  0.74597033  0.14284301  0.50693931  1
  O  O243  1  0.73461450  0.12742736  0.98671403  1
  O  O244  1  0.74441458  0.63060310  0.49659969  1
  O  O245  1  0.78443207  0.62419053  0.98622727  1
  O  O246  1  0.24991875  0.37269642  0.01398652  1
  O  O247  1  0.25239394  0.36813095  0.51548366  1
  O  O248  1  0.25302715  0.87438416  -0.00389954  1
  O  O249  1  0.24173535  0.86680151  0.51167234  1
  O  O250  1  0.75930126  0.38198722  0.01241912  1
  O  O251  1  0.74784025  0.35714183  0.50309025  1
  O  O252  1  0.76898662  0.88222872  -0.00246878  1
  O  O253  1  0.75109114  0.86462656  0.50777126  1
  O  O254  1  0.13115364  0.49117440  0.24682556  1
  O  O255  1  0.13254428  0.50989706  0.75644745  1
  O  O256  1  0.13411643  1.00737080  0.24306370  1
  O  O257  1  0.13267029  0.99653483  0.73989890  1
  O  O258  1  0.63539741  0.49269108  0.24405543  1
  O  O259  1  0.63115953  0.49520307  0.74298335  1
  O  O260  1  0.61525376  0.97575344  0.22394025  1
  O  O261  1  0.62417651  0.99288850  0.73847244  1
  O  O262  1  0.36323060  0.00511104  0.25452173  1
  O  O263  1  0.37338613  0.01641246  0.74149929  1
  O  O264  1  0.36439200  0.49121161  0.25712599  1
  O  O265  1  0.36128892  0.51359892  0.75526884  1
  O  O266  1  0.87392648  0.00079681  0.25965279  1
  O  O267  1  0.87436494  0.01190578  0.76038918  1
  O  O268  1  0.86885036  0.50864495  0.24595942  1
  O  O269  1  0.85782164  0.49884308  0.73918037  1
  O  O270  1  0.12009246  0.37532595  0.36436209  1
  O  O271  1  0.11639149  0.36163574  0.87869306  1
  O  O272  1  0.11924081  0.86144198  0.37984868  1
  O  O273  1  0.11810701  0.87286717  0.86483674  1
  O  O274  1  0.63014229  0.38400326  0.36482041  1
  O  O275  1  0.61883468  0.36901782  0.87135338  1
  O  O276  1  0.60693450  0.87580713  0.36927633  1
  O  O277  1  0.62522558  0.87575517  0.87313695  1
  O  O278  1  0.38111606  0.11555063  0.14284634  1
  O  O279  1  0.38781003  0.13959037  0.62760331  1
  O  O280  1  0.38904471  0.61099270  0.12140209  1
  O  O281  1  0.36831894  0.62623730  0.63475269  1
  O  O282  1  0.87022297  0.13887450  0.11954914  1
  O  O283  1  0.88261462  0.13026863  0.63355820  1
  O  O284  1  0.88034776  0.62207972  0.13874585  1
  O  O285  1  0.88829460  0.63238472  0.62832894  1
  O  O286  1  0.24426190  0.26307557  0.13282261  1
  O  O287  1  0.25730248  0.26186216  0.62082506  1
  O  O288  1  0.23238584  0.75541105  0.10287426  1
  O  O289  1  0.24240241  0.76388236  0.61822761  1
  O  O290  1  0.76128025  0.25787826  0.13847700  1
  O  O291  1  0.76412993  0.25445811  0.62657768  1
  O  O292  1  0.76096451  0.73819868  0.10129592  1
  O  O293  1  0.75851439  0.75889881  0.61882371  1
  O  O294  1  0.24780798  0.25946919  0.39173851  1
  O  O295  1  0.23875047  0.25288469  0.87330973  1
  O  O296  1  0.24388267  0.74227472  0.38339101  1
  O  O297  1  0.23843658  0.74646949  0.88617579  1
  O  O298  1  0.76101823  0.24817307  0.38497656  1
  O  O299  1  0.73894281  0.24638408  0.86900664  1
  O  O300  1  0.75146270  0.74277006  0.38814808  1
  O  O301  1  0.74588345  0.75373402  0.89669949  1
  O  O302  1  -0.00761716  0.11090349  0.00273958  1
  O  O303  1  0.00974377  0.11652655  0.50967471  1
  O  O304  1  0.01665071  0.61691957  0.00152501  1
  O  O305  1  0.00752331  0.61172797  0.50079719  1
  O  O306  1  0.51136401  0.12024484  -0.00252310  1
  O  O307  1  0.50650711  0.12261721  0.50069550  1
  O  O308  1  0.50362480  0.61108650  0.00923040  1
  O  O309  1  0.51344358  0.61722070  0.49492517  1
  O  O310  1  0.50352556  0.38872958  0.49985526  1
  O  O311  1  0.48753411  0.37049635  0.99435168  1
  O  O312  1  0.50416050  0.89196243  0.49567010  1
  O  O313  1  0.49472513  0.89119460  0.99264246  1
  O  O314  1  1.00304244  0.39083821  0.49396783  1
  O  O315  1  0.99386669  0.37915194  0.99853830  1
  O  O316  1  1.00515349  0.88409845  0.49330167  1
  O  O317  1  0.98990431  0.88509327  0.98969065  1
  O  O318  1  0.49045905  0.50872702  0.38377998  1
  O  O319  1  0.49932903  0.48444094  0.86747918  1
  O  O320  1  0.49146197  0.99158772  0.37587948  1
  O  O321  1  0.50574313  1.00924600  0.88631491  1
  O  O322  1  1.00249130  0.49505073  0.38921557  1
  O  O323  1  1.01759962  0.48056690  0.89784235  1
  O  O324  1  0.99849356  0.98840834  0.38019581  1
  O  O325  1  0.99492134  0.99572284  0.88127577  1
  O  O326  1  0.01095388  0.00529840  0.12116565  1
  O  O327  1  0.00907377  0.00570304  0.61850455  1
  O  O328  1  0.01561067  0.49017414  0.11879401  1
  O  O329  1  -0.00236586  0.51334405  0.60896668  1
  O  O330  1  0.51870698  0.00021074  0.10744860  1
  O  O331  1  0.49885469  0.01383820  0.60996342  1
  O  O332  1  0.51296999  0.50233372  0.12881655  1
  O  O333  1  0.51269206  0.49954224  0.61631058  1
  O  O334  1  0.24352061  0.38087778  0.24341598  1
  O  O335  1  0.25298084  0.38326021  0.73670074  1
  O  O336  1  0.24624589  0.89173726  0.25906632  1
  O  O337  1  0.24277354  0.88166558  0.73581918  1
  O  O338  1  0.74129476  0.38193485  0.24278056  1
  O  O339  1  0.73817935  0.38324312  0.75471141  1
  O  O340  1  0.75765495  0.86416725  0.24597345  1
  O  O341  1  0.75841009  0.88010629  0.73495070  1
  O  O342  1  0.25988307  0.11685652  0.25156109  1
  O  O343  1  0.26672922  0.11932258  0.73687347  1
  O  O344  1  0.23915245  0.60818086  0.26375953  1
  O  O345  1  0.25120154  0.61921321  0.75849198  1
  O  O346  1  0.70616158  0.11926356  0.29266002  1
  O  O347  1  0.75880099  0.12357326  0.76012415  1
  O  O348  1  0.76449010  0.61950768  0.25571518  1
  O  O349  1  0.75202268  0.61252652  0.74692990  1
  O  O350  1  0.38215207  0.10838567  0.36066828  1
  O  O351  1  0.38093708  0.13337304  0.85677290  1
  O  O352  1  0.36336623  0.61451475  0.37959613  1
  O  O353  1  0.35785808  0.62604893  0.87895203  1
  O  O354  1  0.88813966  0.10558191  0.37853200  1
  O  O355  1  0.87062392  0.12445828  0.87131785  1
  O  O356  1  0.86429953  0.62643336  0.37342043  1
  O  O357  1  0.93154399  0.61185710  0.85811749  1
  O  O358  1  0.13444415  0.38106314  0.13395235  1
  O  O359  1  0.13371032  0.37038328  0.62732035  1
  O  O360  1  0.11794791  0.88866878  0.13027889  1
  O  O361  1  0.12651199  0.88396753  0.63163684  1
  O  O362  1  0.63346056  0.38217163  0.12654182  1
  O  O363  1  0.61923506  0.38218081  0.63761326  1
  O  O364  1  0.62386514  0.87459375  0.09675408  1
  O  O365  1  0.64438454  0.87686338  0.62287400  1
  O  O366  1  0.11723413  0.25929842  0.25195148  1
  O  O367  1  0.12272251  0.24245819  0.76549816  1
  O  O368  1  0.11542923  0.73391797  0.26565771  1
  O  O369  1  0.13245785  0.76245568  0.75971346  1
  O  O370  1  0.61369205  0.26655897  0.25133399  1
  O  O371  1  0.61891562  0.25785896  0.75590680  1
  O  O372  1  0.62476466  0.75196478  0.24811626  1
  O  O373  1  0.62962214  0.75853616  0.75757356  1
  O  O374  1  0.37583157  0.23399626  0.25336208  1
  O  O375  1  0.38213988  0.24412998  0.74190261  1
  O  O376  1  0.32731911  0.74145704  0.23610640  1
  O  O377  1  0.36013400  0.73409453  0.75463353  1
  O  O378  1  0.88386404  0.25653540  0.23724720  1
  O  O379  1  0.87211931  0.23997182  0.74144644  1
  O  O380  1  0.89333881  0.73284072  0.25447144  1
  O  O381  1  0.86834042  0.74842689  0.73887837  1
  O  O382  1  0.38524841  0.49762177  0.49415658  1
  O  O383  1  0.36275729  0.47749501  0.98867783  1
  O  O384  1  0.38180006  1.01216979  0.48614796  1
  O  O385  1  0.39142941  0.99470110  1.00305231  1
  O  O386  1  0.88149874  0.50394434  0.50056329  1
  O  O387  1  0.89050071  0.48690911  1.01291006  1
  O  O388  1  0.89232248  0.99947095  0.50275937  1
  O  O389  1  0.88108379  0.99436585  0.99017915  1
  O  O390  1  0.11293065  -0.00831309  0.01385626  1
  O  O391  1  0.12110198  0.00603908  0.50690520  1
  O  O392  1  0.12409519  0.50757095  0.01120485  1
  O  O393  1  0.12827781  0.50997278  0.49785646  1
  O  O394  1  0.61924757  0.01565563  0.00349927  1
  O  O395  1  0.61709099  0.01031914  0.49692522  1
  O  O396  1  0.63998658  0.51436125  0.01114482  1
  O  O397  1  0.62225248  0.50599725  0.50575967  1
  O  O398  1  0.36109950  0.37922460  0.11448085  1
  O  O399  1  0.37679479  0.36456471  0.62535594  1
  O  O400  1  0.38211958  0.87571694  0.10420024  1
  O  O401  1  0.35697065  0.88257343  0.62183525  1
  O  O402  1  0.86593400  0.36811627  0.12042261  1
  O  O403  1  0.88911953  0.35812305  0.63058029  1
  O  O404  1  0.87965586  0.88542837  0.11071829  1
  O  O405  1  0.87073937  0.86765551  0.62074739  1
  O  O406  1  0.12009643  0.12479121  0.39071995  1
  O  O407  1  0.12214844  0.13536653  0.88242999  1
  O  O408  1  0.13621072  0.62892419  0.38501923  1
  O  O409  1  0.12916169  0.63652305  0.88353434  1
  O  O410  1  0.64080803  0.11404310  0.34207310  1
  O  O411  1  0.63151988  0.13653964  0.87533519  1
  O  O412  1  0.63762140  0.62655610  0.38535662  1
  O  O413  1  0.61675731  0.61427257  0.88677248  1
