# generated using pymatgen
data_V79Zn79O256
_symmetry_space_group_name_H-M   'P 1'
_cell_length_a   16.88149771
_cell_length_b   16.88741350
_cell_length_c   16.88530349
_cell_angle_alpha   90.07494545
_cell_angle_beta   89.92177821
_cell_angle_gamma   89.93049154
_symmetry_Int_Tables_number   1
_chemical_formula_structural   V79Zn79O256
_chemical_formula_sum   'V79 Zn79 O256'
_cell_volume   4813.73175409
_cell_formula_units_Z   1
loop_
 _symmetry_equiv_pos_site_id
 _symmetry_equiv_pos_as_xyz
  1  'x, y, z'
loop_
 _atom_site_type_symbol
 _atom_site_label
 _atom_site_symmetry_multiplicity
 _atom_site_fract_x
 _atom_site_fract_y
 _atom_site_fract_z
 _atom_site_occupancy
  V  V0  1  -0.00037357  0.36777992  0.87020315  1
  V  V1  1  0.74927116  0.11996554  0.37634734  1
  V  V2  1  0.37767676  0.01793086  0.86620296  1
  V  V3  1  0.39147321  0.25253880  0.12003540  1
  V  V4  1  0.62634055  0.38159275  0.74873533  1
  V  V5  1  0.13011629  0.50160090  0.62866507  1
  V  V6  1  0.37687325  0.74737465  0.62016125  1
  V  V7  1  0.38274663  0.12596879  0.25791787  1
  V  V8  1  0.87746026  0.12237644  0.25442911  1
  V  V9  1  0.00120630  0.50481636  0.49729079  1
  V  V10  1  0.24940171  0.51731636  0.25631263  1
  V  V11  1  0.24785278  0.86458033  0.62293142  1
  V  V12  1  0.12791408  0.37094081  0.74920433  1
  V  V13  1  0.87954935  0.25275390  0.62927843  1
  V  V14  1  0.75514012  0.26161729  0.00247682  1
  V  V15  1  -0.00728849  0.62731009  0.12197228  1
  V  V16  1  0.37984335  0.61028382  0.74237155  1
  V  V17  1  0.87684524  0.12761804  0.74938189  1
  V  V18  1  0.62454583  0.10808066  0.50340547  1
  V  V19  1  0.12403353  0.24965618  0.38157559  1
  V  V20  1  0.87763686  0.49783523  0.37496803  1
  V  V21  1  0.00288194  0.00448108  0.49641516  1
  V  V22  1  -0.00028851  0.25542449  0.25303695  1
  V  V23  1  0.39916316  0.87119753  -0.01734648  1
  V  V24  1  0.74279903  0.25268255  0.49447070  1
  V  V25  1  0.62217071  0.88012412  0.24876257  1
  V  V26  1  0.11888505  0.74372126  0.86858225  1
  V  V27  1  0.87338311  0.26108433  0.11993677  1
  V  V28  1  0.73925377  0.62537767  0.37973867  1
  V  V29  1  0.24690818  0.11986230  0.38767180  1
  V  V30  1  0.25524704  0.37788782  0.62070863  1
  V  V31  1  0.12454363  0.37567162  0.25821188  1
  V  V32  1  0.87381441  0.87861182  0.49943685  1
  V  V33  1  0.86880963  0.62768322  0.24775023  1
  V  V34  1  0.88026344  0.37604231  0.49631082  1
  V  V35  1  0.38823319  0.74139874  0.12922260  1
  V  V36  1  0.74366254  0.75410979  0.50368204  1
  V  V37  1  0.62388415  0.60287780  0.52014617  1
  V  V38  1  0.74419633  0.00636832  0.22443800  1
  V  V39  1  -0.00620818  0.48963745  0.00145984  1
  V  V40  1  0.62613938  0.25126327  0.87610804  1
  V  V41  1  0.62374747  0.36527800  0.25107285  1
  V  V42  1  -0.00597679  0.86781150  0.87085906  1
  V  V43  1  0.00308837  0.12615054  0.62133903  1
  V  V44  1  0.73788260  0.49422074  0.24039286  1
  V  V45  1  0.74467272  -0.00469118  0.73444956  1
  V  V46  1  0.88401486  0.75228275  0.62888677  1
  V  V47  1  0.75439097  0.75777404  0.02684042  1
  V  V48  1  0.00818351  0.12429910  0.11972298  1
  V  V49  1  0.12513361  0.88371514  0.24243734  1
  V  V50  1  0.61479867  0.88141922  0.74040846  1
  V  V51  1  0.37927462  0.25355085  0.60638590  1
  V  V52  1  0.25299367  0.87648949  0.11530048  1
  V  V53  1  0.11803437  0.74620584  0.36605395  1
  V  V54  1  0.75079353  0.50525702  0.74954595  1
  V  V55  1  0.49985707  0.74910051  0.75777536  1
  V  V56  1  -0.00920496  0.88418450  0.37182072  1
  V  V57  1  0.12932429  0.62994954  0.49175695  1
  V  V58  1  0.13337449  0.23823203  0.87960688  1
  V  V59  1  0.61276886  0.11370563  0.01062537  1
  V  V60  1  0.25601057  0.00165547  0.24931160  1
  V  V61  1  0.12397366  0.49939828  0.12397226  1
  V  V62  1  0.74899460  0.38169790  0.62460923  1
  V  V63  1  0.25141147  0.36659680  0.12003748  1
  V  V64  1  0.37720164  0.49624554  0.89684379  1
  V  V65  1  0.37872812  0.52111205  0.37618721  1
  V  V66  1  0.74733168  0.12321076  0.87641889  1
  V  V67  1  0.12510508  -0.00178229  0.62481555  1
  V  V68  1  0.87093439  -0.00481829  0.88287681  1
  V  V69  1  0.48982181  0.25243031  0.75161528  1
  V  V70  1  0.61696812  0.62091656  0.01550762  1
  V  V71  1  -0.02264932  0.76801803  0.23076382  1
  V  V72  1  0.00790607  -0.00211710  0.00139361  1
  V  V73  1  0.50565233  0.11412407  0.63110870  1
  V  V74  1  0.49978347  0.38135386  0.88677065  1
  V  V75  1  0.50361281  0.24526414  0.28676133  1
  V  V76  1  0.74554591  0.63240524  0.87724996  1
  V  V77  1  0.87292246  0.49488985  0.87988815  1
  V  V78  1  0.25062373  0.61940230  0.87443487  1
  Zn  Zn79  1  0.49568498  0.75655255  0.27974202  1
  Zn  Zn80  1  0.25091998  0.74595584  -0.00056967  1
  Zn  Zn81  1  0.50786387  0.50009289  0.04360623  1
  Zn  Zn82  1  0.00745777  0.63344961  0.63490771  1
  Zn  Zn83  1  0.49778051  0.40091377  0.38848283  1
  Zn  Zn84  1  0.12302890  0.62335440  -0.00211660  1
  Zn  Zn85  1  0.41131213  -0.07671361  0.43376142  1
  Zn  Zn86  1  0.62080110  0.75914288  0.88532869  1
  Zn  Zn87  1  0.18424185  0.06027988  0.06157077  1
  Zn  Zn88  1  0.25648629  0.21892851  -0.00622358  1
  Zn  Zn89  1  0.27907581  0.75637856  0.46151918  1
  Zn  Zn90  1  0.24765738  0.01389168  0.75751531  1
  Zn  Zn91  1  0.11900504  0.86877279  0.74978206  1
  Zn  Zn92  1  0.24917945  0.25317968  0.49664153  1
  Zn  Zn93  1  0.88248130  0.63781252  0.75787876  1
  Zn  Zn94  1  0.18992583  0.18768300  0.19550732  1
  Zn  Zn95  1  0.19271532  0.19003485  0.69162335  1
  Zn  Zn96  1  0.17848659  0.69674719  0.18324093  1
  Zn  Zn97  1  0.19168768  0.67879216  0.69118687  1
  Zn  Zn98  1  0.68486560  0.18923410  0.18720392  1
  Zn  Zn99  1  0.68844921  0.19112433  0.68679280  1
  Zn  Zn100  1  0.66039139  0.69046784  0.20495703  1
  Zn  Zn101  1  0.69184090  0.69464235  0.68597487  1
  Zn  Zn102  1  0.31636230  0.31948512  0.32165711  1
  Zn  Zn103  1  0.30826955  0.32022126  0.81338520  1
  Zn  Zn104  1  0.31065271  0.80795897  0.30228244  1
  Zn  Zn105  1  0.30558054  0.80772761  0.80615585  1
  Zn  Zn106  1  0.81187530  0.30965952  0.31198938  1
  Zn  Zn107  1  0.81274220  0.31405701  0.81406573  1
  Zn  Zn108  1  0.79017397  0.81279903  0.30798923  1
  Zn  Zn109  1  0.80560963  0.81930012  0.81121582  1
  Zn  Zn110  1  0.19312557  0.44029040  0.43751459  1
  Zn  Zn111  1  0.18720035  0.43424891  0.93738876  1
  Zn  Zn112  1  0.21618274  0.91712290  0.42989927  1
  Zn  Zn113  1  0.18814198  0.93579930  0.92517991  1
  Zn  Zn114  1  0.68549298  0.43622001  0.42984991  1
  Zn  Zn115  1  0.68437019  0.44297659  0.94069471  1
  Zn  Zn116  1  0.69040907  0.93716604  0.43418517  1
  Zn  Zn117  1  0.68024613  0.93106558  0.93543283  1
  Zn  Zn118  1  0.36651706  0.05796987  0.06384586  1
  Zn  Zn119  1  0.31019217  0.06492410  0.58736281  1
  Zn  Zn120  1  0.31089873  0.56149996  0.06951352  1
  Zn  Zn121  1  0.30886751  0.56851514  0.55434213  1
  Zn  Zn122  1  0.81853217  0.07835503  0.05910591  1
  Zn  Zn123  1  0.81698036  0.06488646  0.55707522  1
  Zn  Zn124  1  0.80658124  0.56395678  0.06067042  1
  Zn  Zn125  1  0.81544062  0.56785070  0.56524616  1
  Zn  Zn126  1  0.42740806  0.42582289  0.21104049  1
  Zn  Zn127  1  0.44742919  0.43188322  0.67556372  1
  Zn  Zn128  1  0.44838740  0.93452833  0.18527640  1
  Zn  Zn129  1  0.42920260  0.93260697  0.68907570  1
  Zn  Zn130  1  0.93460654  0.43887988  0.19022684  1
  Zn  Zn131  1  0.94167999  0.44444769  0.68986130  1
  Zn  Zn132  1  0.93139835  0.94062566  0.18256825  1
  Zn  Zn133  1  0.93359101  0.93818923  0.68663743  1
  Zn  Zn134  1  0.06627576  0.06503698  0.31065233  1
  Zn  Zn135  1  0.05950582  0.05901274  0.81045579  1
  Zn  Zn136  1  0.05397790  0.56464380  0.30556195  1
  Zn  Zn137  1  0.06086310  0.55861491  0.81149038  1
  Zn  Zn138  1  0.56868060  0.03269474  0.33033406  1
  Zn  Zn139  1  0.55895245  0.06154294  0.81507623  1
  Zn  Zn140  1  0.52758435  0.56213864  0.23960418  1
  Zn  Zn141  1  0.56105662  0.56670583  0.81613192  1
  Zn  Zn142  1  0.42975344  0.08412423  0.44797396  1
  Zn  Zn143  1  0.43650380  0.18966500  0.93589013  1
  Zn  Zn144  1  0.44974576  0.66771207  0.44075772  1
  Zn  Zn145  1  0.43551641  0.68619245  0.94263013  1
  Zn  Zn146  1  0.93576162  0.19030643  0.43719113  1
  Zn  Zn147  1  0.94061298  0.18652847  0.93719413  1
  Zn  Zn148  1  0.93569914  0.69213146  0.43146207  1
  Zn  Zn149  1  0.93015287  0.68674808  0.94424695  1
  Zn  Zn150  1  0.06716770  0.30740175  0.06037098  1
  Zn  Zn151  1  0.06131190  0.31663186  0.56363167  1
  Zn  Zn152  1  0.06461395  0.81411634  0.05195704  1
  Zn  Zn153  1  0.06378297  0.81679274  0.55616769  1
  Zn  Zn154  1  0.57323676  0.31276579  0.06413750  1
  Zn  Zn155  1  0.56503472  0.31125360  0.56230258  1
  Zn  Zn156  1  0.57498649  0.81645144  0.06777717  1
  Zn  Zn157  1  0.55699512  0.80820643  0.55913236  1
  O  O158  1  0.11368554  0.12509259  0.13097846  1
  O  O159  1  0.10612386  0.12269790  0.62850935  1
  O  O160  1  0.11503316  0.61122698  0.12449602  1
  O  O161  1  0.12571885  0.61875504  0.61471654  1
  O  O162  1  0.62586314  0.13189024  0.10886923  1
  O  O163  1  0.61755507  0.13431393  0.61632658  1
  O  O164  1  0.62687049  0.62297611  0.11436561  1
  O  O165  1  0.63953286  0.62052382  0.61889208  1
  O  O166  1  0.38194492  0.40065886  0.36314590  1
  O  O167  1  0.38354949  0.38927955  0.87414328  1
  O  O168  1  0.32127822  0.85915745  0.40238431  1
  O  O169  1  0.37606461  0.85414375  0.88503344  1
  O  O170  1  0.86748281  0.38397400  0.38601563  1
  O  O171  1  0.88532833  0.38295157  0.86965178  1
  O  O172  1  0.88467620  0.87208257  0.38036277  1
  O  O173  1  0.87765638  0.88643874  0.87160760  1
  O  O174  1  0.24079880  0.01414636  0.36960371  1
  O  O175  1  0.26244961  -0.00429044  0.86950290  1
  O  O176  1  0.25107124  0.50461560  0.36206453  1
  O  O177  1  0.26882010  0.50081809  0.88331444  1
  O  O178  1  0.75797101  0.01913609  0.37754108  1
  O  O179  1  0.75468351  0.00862895  0.86898385  1
  O  O180  1  0.76014787  0.50921038  0.37090039  1
  O  O181  1  0.75564210  0.50596912  0.87007136  1
  O  O182  1  0.24075862  0.49167263  0.13387903  1
  O  O183  1  0.23809969  0.49485459  0.61408470  1
  O  O184  1  0.24967113  0.98512208  0.13241902  1
  O  O185  1  0.23667548  0.97136105  0.60942763  1
  O  O186  1  0.75635489  0.49885481  0.14240318  1
  O  O187  1  0.76269101  0.49038912  0.63621071  1
  O  O188  1  0.75693460  1.00813737  0.12534559  1
  O  O189  1  0.75222091  1.01044067  0.63696117  1
  O  O190  1  0.00990035  0.36524201  0.24420904  1
  O  O191  1  0.01093803  0.37958022  0.75933612  1
  O  O192  1  0.01090688  0.88817363  0.25888152  1
  O  O193  1  -0.00265787  0.88237975  0.76635573  1
  O  O194  1  0.50899670  0.35597443  0.25835539  1
  O  O195  1  0.51036312  0.37189879  0.75752948  1
  O  O196  1  0.51266681  0.86944395  0.25208603  1
  O  O197  1  0.50543245  0.86396000  0.74892973  1
  O  O198  1  0.49357563  0.13699802  0.27016574  1
  O  O199  1  0.51583243  0.14214866  0.73805467  1
  O  O200  1  0.55851239  0.66658749  0.25925581  1
  O  O201  1  0.48957533  0.63369281  0.74919270  1
  O  O202  1  0.99560005  0.13209169  0.24253684  1
  O  O203  1  0.98245198  0.11690390  0.74064338  1
  O  O204  1  0.98637518  0.63709469  0.24016504  1
  O  O205  1  0.99147472  0.61289967  0.74530784  1
  O  O206  1  0.37412402  0.24813463  0.01700154  1
  O  O207  1  0.37939630  0.25640652  0.50879921  1
  O  O208  1  0.37098298  0.75886418  0.00832745  1
  O  O209  1  0.37528679  0.72760198  0.51875723  1
  O  O210  1  0.86700006  0.24175291  0.00674150  1
  O  O211  1  0.86849433  0.25916912  0.50720540  1
  O  O212  1  0.85413950  0.74137529  0.00816156  1
  O  O213  1  0.87236780  0.75930995  0.50580581  1
  O  O214  1  0.12040936  0.25643842  0.48537572  1
  O  O215  1  0.13248133  0.24740489  0.98617525  1
  O  O216  1  0.10391016  0.74320949  0.47569821  1
  O  O217  1  0.12827456  0.74222564  0.98585408  1
  O  O218  1  0.63995049  0.24915782  0.50448128  1
  O  O219  1  0.63318712  0.24457081  0.98896607  1
  O  O220  1  0.64254187  0.74584291  0.50764144  1
  O  O221  1  0.63393051  0.73723962  1.00041742  1
  O  O222  1  0.49089757  0.25765829  0.12482510  1
  O  O223  1  0.49075051  0.25913424  0.63393860  1
  O  O224  1  0.48756574  0.75419369  0.11879471  1
  O  O225  1  0.48271681  0.75455118  0.63407222  1
  O  O226  1  0.99763166  0.24336653  0.13115700  1
  O  O227  1  0.98687805  0.24449696  0.61839200  1
  O  O228  1  1.01395738  0.73067850  0.12031792  1
  O  O229  1  0.98882332  0.75244348  0.61943140  1
  O  O230  1  0.00710457  0.24329618  0.36139890  1
  O  O231  1  0.01223487  0.26057004  0.88198084  1
  O  O232  1  -0.00357866  0.76404242  0.35429344  1
  O  O233  1  0.00190221  0.75767899  0.88545587  1
  O  O234  1  0.49928703  0.25448945  0.38276362  1
  O  O235  1  0.50743978  0.26124877  0.87074746  1
  O  O236  1  0.49820581  0.76922492  0.40512180  1
  O  O237  1  0.50070318  0.74292388  0.86054392  1
  O  O238  1  0.25009902  0.12818106  0.48876057  1
  O  O239  1  0.27422464  0.11145288  1.02276846  1
  O  O240  1  0.23166898  0.64010155  0.49652476  1
  O  O241  1  0.24991566  0.62182026  0.98744313  1
  O  O242  1  0.74426549  0.13319380  0.49784175  1
  O  O243  1  0.74238892  0.13438691  0.98684641  1
  O  O244  1  0.74942564  0.63178521  0.49481189  1
  O  O245  1  0.73909595  0.63083820  0.99443758  1
  O  O246  1  0.24784670  0.37926356  0.01978592  1
  O  O247  1  0.24396259  0.37198662  0.51441059  1
  O  O248  1  0.23963531  0.87451407  0.01267786  1
  O  O249  1  0.22242606  0.84363915  0.52109892  1
  O  O250  1  0.74530881  0.36115503  -0.00728452  1
  O  O251  1  0.75915871  0.37180526  0.50692709  1
  O  O252  1  0.73705047  0.85555863  0.00113660  1
  O  O253  1  0.75856746  0.86216162  0.48713514  1
  O  O254  1  0.12460370  0.49384569  0.24341030  1
  O  O255  1  0.12372211  0.49096350  0.73615743  1
  O  O256  1  0.13705913  0.99225180  0.25193728  1
  O  O257  1  0.12477374  0.99846028  0.73592732  1
  O  O258  1  0.63571530  0.49232097  0.24898521  1
  O  O259  1  0.63532376  0.49077222  0.75868982  1
  O  O260  1  0.64099216  1.01374395  0.23698319  1
  O  O261  1  0.63327188  0.99300760  0.75148370  1
  O  O262  1  0.36180762  0.00737038  0.24995847  1
  O  O263  1  0.36736014  -0.00656540  0.76087765  1
  O  O264  1  0.35139289  0.50907317  0.24943848  1
  O  O265  1  0.38847039  0.50939775  0.74062866  1
  O  O266  1  0.86753558  0.01699231  0.24033825  1
  O  O267  1  0.86083474  0.00722153  0.75593982  1
  O  O268  1  0.86792676  0.50529607  0.25838934  1
  O  O269  1  0.86363925  0.49814575  0.76133088  1
  O  O270  1  0.13087376  0.36824449  0.36518430  1
  O  O271  1  0.12003311  0.37156044  0.86675417  1
  O  O272  1  0.11694548  0.86449304  0.36535128  1
  O  O273  1  0.11404405  0.86234625  0.87202812  1
  O  O274  1  0.61161788  0.38435878  0.36386971  1
  O  O275  1  0.62029653  0.36988536  0.86821337  1
  O  O276  1  0.61865240  0.92068075  0.35174773  1
  O  O277  1  0.63340154  0.86797092  0.85047723  1
  O  O278  1  0.37163943  0.15045166  0.14850180  1
  O  O279  1  0.39913587  0.14462813  0.62057786  1
  O  O280  1  0.37147867  0.64251168  0.11980577  1
  O  O281  1  0.36513585  0.63097376  0.63837399  1
  O  O282  1  0.88853003  0.13732421  0.13338167  1
  O  O283  1  0.87829706  0.13413380  0.63080807  1
  O  O284  1  0.88231841  0.61506164  0.13498717  1
  O  O285  1  0.87953366  0.64159152  0.62496663  1
  O  O286  1  0.24582746  0.26135581  0.12477795  1
  O  O287  1  0.26562644  0.25600321  0.62047247  1
  O  O288  1  0.25542008  0.76239044  0.12609115  1
  O  O289  1  0.26281181  0.75163371  0.63622535  1
  O  O290  1  0.76112903  0.24249187  0.11480635  1
  O  O291  1  0.76078854  0.26028092  0.61847325  1
  O  O292  1  0.73996735  0.74290823  0.12525480  1
  O  O293  1  0.76438298  0.74903718  0.60908624  1
  O  O294  1  0.24174284  0.24397547  0.37459315  1
  O  O295  1  0.23993836  0.25508153  0.87915616  1
  O  O296  1  0.22016536  0.74450435  0.35638875  1
  O  O297  1  0.24060440  0.73666207  0.87553918  1
  O  O298  1  0.75608020  0.23974746  0.38581327  1
  O  O299  1  0.74474504  0.24359324  0.87830490  1
  O  O300  1  0.75980796  0.73265953  0.39020693  1
  O  O301  1  0.75090951  0.73771071  0.87168687  1
  O  O302  1  -0.00173089  0.11352590  0.00710103  1
  O  O303  1  -0.01295233  0.11585383  0.50911688  1
  O  O304  1  -0.00199163  0.60890099  0.00647445  1
  O  O305  1  0.00413936  0.61603203  0.50086334  1
  O  O306  1  0.51431277  0.13076127  -0.00649975  1
  O  O307  1  0.51712946  0.12471196  0.51517300  1
  O  O308  1  0.51352040  0.62343713  -0.00191292  1
  O  O309  1  0.52495664  0.61903412  0.50723786  1
  O  O310  1  0.49921243  0.39668267  0.51859278  1
  O  O311  1  0.51371798  0.38289320  0.98941672  1
  O  O312  1  0.49594401  0.83476268  0.45928609  1
  O  O313  1  0.49834735  0.86574498  0.99226970  1
  O  O314  1  0.98770851  0.38592786  0.50338289  1
  O  O315  1  1.00608609  0.38381351  0.99237834  1
  O  O316  1  0.99283695  0.88371512  0.48912178  1
  O  O317  1  0.99882746  0.88996151  0.99147670  1
  O  O318  1  0.48132301  0.51582214  0.34746121  1
  O  O319  1  0.48792291  0.49450920  0.87220278  1
  O  O320  1  0.47164567  1.00441810  0.37735581  1
  O  O321  1  0.48022652  1.00089367  0.86530509  1
  O  O322  1  0.98844983  0.50291198  0.38171006  1
  O  O323  1  0.99287914  0.49034807  0.88357329  1
  O  O324  1  1.00775732  0.99560830  0.38336766  1
  O  O325  1  0.99189739  0.99529437  0.88357141  1
  O  O326  1  -0.00743370  0.00592445  0.10888800  1
  O  O327  1  0.00315271  0.00672081  0.61903233  1
  O  O328  1  0.00434455  0.50360680  0.12089248  1
  O  O329  1  0.01174689  0.49869864  0.61202032  1
  O  O330  1  0.45711472  0.01700711  0.11416975  1
  O  O331  1  0.49733023  0.01617945  0.64082231  1
  O  O332  1  0.48852955  0.50109029  0.15317178  1
  O  O333  1  0.49838868  0.45893222  0.57171530  1
  O  O334  1  0.23784578  0.38263745  0.24164529  1
  O  O335  1  0.23993240  0.37549599  0.73635130  1
  O  O336  1  0.24382999  0.88227811  0.23956246  1
  O  O337  1  0.24114899  0.87226140  0.73436260  1
  O  O338  1  0.73783545  0.38383377  0.26219276  1
  O  O339  1  0.74518314  0.38292697  0.74552111  1
  O  O340  1  0.75456842  0.90680459  0.25359943  1
  O  O341  1  0.74247195  0.89030346  0.74203411  1
  O  O342  1  0.25782821  0.11836433  0.25643909  1
  O  O343  1  0.25635078  0.10041191  0.68494774  1
  O  O344  1  0.23235323  0.61486735  0.24374763  1
  O  O345  1  0.26773814  0.62191414  0.76358341  1
  O  O346  1  0.75623709  0.12226717  0.25510988  1
  O  O347  1  0.75329822  0.11880677  0.75767012  1
  O  O348  1  0.74889789  0.61328885  0.26301762  1
  O  O349  1  0.75189677  0.61774136  0.75745759  1
  O  O350  1  0.35521467  0.13335453  0.36815742  1
  O  O351  1  0.37228495  0.11906074  0.87423928  1
  O  O352  1  0.37192707  0.62563097  0.36838809  1
  O  O353  1  0.37389594  0.60941334  0.86839110  1
  O  O354  1  0.86922382  0.13361730  0.36143184  1
  O  O355  1  0.86738668  0.12038111  0.86699986  1
  O  O356  1  0.86930302  0.61373558  0.36952428  1
  O  O357  1  0.86448182  0.61355895  0.87606184  1
  O  O358  1  0.13145017  0.38139153  0.13291976  1
  O  O359  1  0.13088817  0.37995029  0.63070896  1
  O  O360  1  0.13324249  0.86777184  0.13416641  1
  O  O361  1  0.12260520  0.87894211  0.63185256  1
  O  O362  1  0.62348475  0.36892690  0.14925680  1
  O  O363  1  0.63942752  0.36821784  0.63730488  1
  O  O364  1  0.62326759  0.88388211  0.14498101  1
  O  O365  1  0.61610684  0.87182697  0.63856277  1
  O  O366  1  0.11803904  0.25791800  0.25709393  1
  O  O367  1  0.13096961  0.26050449  0.75980925  1
  O  O368  1  0.10284672  0.76093175  0.25028868  1
  O  O369  1  0.12405337  0.74160923  0.76409262  1
  O  O370  1  0.61646779  0.25384634  0.25895526  1
  O  O371  1  0.62351501  0.26156046  0.76053239  1
  O  O372  1  0.66273953  0.78793519  0.27060027  1
  O  O373  1  0.61041562  0.75559956  0.74410148  1
  O  O374  1  0.39231779  0.24842831  0.25592372  1
  O  O375  1  0.38825761  0.25611670  0.75546537  1
  O  O376  1  0.38419379  0.75781123  0.23593098  1
  O  O377  1  0.38556261  0.74085400  0.74448089  1
  O  O378  1  0.88249069  0.24596253  0.24258108  1
  O  O379  1  0.86592682  0.24066609  0.74070535  1
  O  O380  1  0.86598799  0.73088449  0.26449706  1
  O  O381  1  0.86588411  0.75696744  0.73233211  1
  O  O382  1  0.37092429  0.51343732  0.47842183  1
  O  O383  1  0.38724121  0.50311909  0.99761366  1
  O  O384  1  0.37375785  1.00647796  0.51259394  1
  O  O385  1  0.37339974  0.97542093  0.97670259  1
  O  O386  1  0.88067760  0.49591482  0.49528236  1
  O  O387  1  0.87976629  0.50020173  0.99085764  1
  O  O388  1  0.88553353  0.98900224  0.50580177  1
  O  O389  1  0.88172771  1.00901405  0.98716474  1
  O  O390  1  0.11210017  0.00036816  -0.00649743  1
  O  O391  1  0.11006340  -0.00519575  0.51326811  1
  O  O392  1  0.11575003  0.49825847  0.00992775  1
  O  O393  1  0.11828110  0.50920171  0.50015869  1
  O  O394  1  0.62931282  0.01582889  -0.00870675  1
  O  O395  1  0.63623024  0.00995869  0.51116103  1
  O  O396  1  0.62134213  0.51373381  0.00019738  1
  O  O397  1  0.64244554  0.50403429  0.50994705  1
  O  O398  1  0.35994905  0.36023539  0.13912841  1
  O  O399  1  0.36600951  0.36323383  0.63270818  1
  O  O400  1  0.36351716  0.86817846  0.11091194  1
  O  O401  1  0.36069354  0.86050060  0.62269196  1
  O  O402  1  0.88125327  0.36098430  0.12699590  1
  O  O403  1  0.86996557  0.37104737  0.62006336  1
  O  O404  1  0.91728455  0.82760472  0.17154680  1
  O  O405  1  0.87975077  0.86639177  0.61164422  1
  O  O406  1  0.13781177  0.13743568  0.36664797  1
  O  O407  1  0.12188847  0.13967244  0.86396422  1
  O  O408  1  0.10713514  0.63765176  0.37565537  1
  O  O409  1  0.13410093  0.62213633  0.87465274  1
  O  O410  1  0.63226867  0.11863370  0.39527627  1
  O  O411  1  0.63153649  0.13562610  0.87428972  1
  O  O412  1  0.64213431  0.61898159  0.39394709  1
  O  O413  1  0.63458848  0.62876840  0.87989933  1
