# generated using pymatgen
data_V79Zn79O256
_symmetry_space_group_name_H-M   'P 1'
_cell_length_a   16.87571540
_cell_length_b   16.88410311
_cell_length_c   16.86878619
_cell_angle_alpha   89.91424374
_cell_angle_beta   90.05115034
_cell_angle_gamma   89.96424607
_symmetry_Int_Tables_number   1
_chemical_formula_structural   V79Zn79O256
_chemical_formula_sum   'V79 Zn79 O256'
_cell_volume   4806.43725645
_cell_formula_units_Z   1
loop_
 _symmetry_equiv_pos_site_id
 _symmetry_equiv_pos_as_xyz
  1  'x, y, z'
loop_
 _atom_site_type_symbol
 _atom_site_label
 _atom_site_symmetry_multiplicity
 _atom_site_fract_x
 _atom_site_fract_y
 _atom_site_fract_z
 _atom_site_occupancy
  V  V0  1  -0.00093106  0.25232011  0.25440801  1
  V  V1  1  0.62398662  0.87494250  0.75558386  1
  V  V2  1  0.49692768  0.74935131  0.74938512  1
  V  V3  1  0.87576479  0.86996339  0.00248048  1
  V  V4  1  0.63344122  0.74852035  0.87497525  1
  V  V5  1  -0.00912867  0.73651289  0.74924508  1
  V  V6  1  0.36761927  0.75227252  0.11565896  1
  V  V7  1  -0.00632044  0.11856675  0.62780352  1
  V  V8  1  0.25050432  0.24666796  0.50051439  1
  V  V9  1  0.60724517  0.13905744  0.00188716  1
  V  V10  1  0.37747476  0.87450891  0.49371907  1
  V  V11  1  0.25726916  0.49888063  0.25852758  1
  V  V12  1  0.87513773  0.12576234  0.25252318  1
  V  V13  1  0.62072523  0.00285001  0.62201044  1
  V  V14  1  0.50172506  0.24375567  0.76060001  1
  V  V15  1  0.25751067  0.38613278  0.61767943  1
  V  V16  1  0.49677847  0.74274723  0.24303454  1
  V  V17  1  0.37593343  0.24689131  0.62253680  1
  V  V18  1  0.87778879  0.74003571  0.61873341  1
  V  V19  1  0.12512684  0.37471407  0.25231172  1
  V  V20  1  0.48823088  0.51268302  -0.00166523  1
  V  V21  1  0.37510503  0.36882946  -0.00223628  1
  V  V22  1  0.75156240  0.37384860  0.62744724  1
  V  V23  1  0.00312538  0.00466755  -0.00208839  1
  V  V24  1  0.13297714  0.87163643  0.24524661  1
  V  V25  1  0.25427692  0.37660251  0.12603112  1
  V  V26  1  0.74972308  -0.00099645  0.25019352  1
  V  V27  1  0.50271844  0.37781452  0.87606810  1
  V  V28  1  0.26480214  0.12551384  0.84719884  1
  V  V29  1  0.88696903  0.88440607  0.50306340  1
  V  V30  1  0.12880481  0.37432224  0.74592220  1
  V  V31  1  0.75309066  0.87292555  0.61827214  1
  V  V32  1  0.00335621  0.88001877  0.86477656  1
  V  V33  1  0.49684626  -0.00078795  0.48449026  1
  V  V34  1  0.74250669  0.13586473  0.88532073  1
  V  V35  1  0.75777283  0.86831957  0.12534356  1
  V  V36  1  0.24218518  0.76917337  0.00554548  1
  V  V37  1  0.00559732  0.88856849  0.37716731  1
  V  V38  1  0.25085230  0.87832669  0.64048363  1
  V  V39  1  0.89018515  0.51224446  0.87441432  1
  V  V40  1  0.10512113  0.62219471  0.49749110  1
  V  V41  1  0.62141131  0.37706146  0.25523215  1
  V  V42  1  -0.00478143  0.24866681  0.75533012  1
  V  V43  1  0.13139653  0.61150386  0.00053290  1
  V  V44  1  0.49526066  0.12009620  0.62580628  1
  V  V45  1  0.62114630  0.75522839  0.37798739  1
  V  V46  1  0.49762224  0.23676291  0.24892204  1
  V  V47  1  0.75171690  0.62919137  0.37601782  1
  V  V48  1  0.61806583  0.00353572  0.11678838  1
  V  V49  1  0.49116168  0.62902630  0.62974942  1
  V  V50  1  0.63171411  0.63151457  0.50301899  1
  V  V51  1  0.49165139  0.49687100  0.49718768  1
  V  V52  1  0.25969694  0.62116402  0.37692261  1
  V  V53  1  0.87958848  0.49899328  0.37862973  1
  V  V54  1  0.09602698  0.49953629  0.61470337  1
  V  V55  1  0.63009950  0.62846802  -0.00287877  1
  V  V56  1  0.73531095  0.12462156  0.37647134  1
  V  V57  1  0.62901582  0.50116547  0.62816217  1
  V  V58  1  0.88080489  0.37398590  0.50005291  1
  V  V59  1  0.48528046  0.37990971  0.37774027  1
  V  V60  1  0.74568437  0.37452791  0.11954729  1
  V  V61  1  0.12655496  0.75169464  0.86806939  1
  V  V62  1  -0.01438938  0.62585835  0.12656250  1
  V  V63  1  0.74902019  0.00796027  0.75138238  1
  V  V64  1  0.75412316  0.51251673  0.76111521  1
  V  V65  1  0.37642566  0.24047393  0.12859735  1
  V  V66  1  0.61606033  0.87697586  0.25184063  1
  V  V67  1  0.12709185  -0.00676128  0.12403787  1
  V  V68  1  0.87996266  0.38046171  -0.00438528  1
  V  V69  1  0.86623529  0.25155770  0.11946313  1
  V  V70  1  0.25574637  0.74636991  0.51121005  1
  V  V71  1  0.12561136  0.75049005  0.37202711  1
  V  V72  1  0.00203105  0.12555727  0.12040150  1
  V  V73  1  0.74316601  0.24481756  0.49953320  1
  V  V74  1  0.87227377  0.00696167  0.87131778  1
  V  V75  1  0.12383503  0.11145119  0.50419281  1
  V  V76  1  0.75372649  0.50457051  0.25214343  1
  V  V77  1  0.61750973  0.50962468  0.12565507  1
  V  V78  1  0.38868207  -0.02510768  0.87168960  1
  Zn  Zn79  1  0.11759901  0.49732561  0.12300091  1
  Zn  Zn80  1  0.18227073  0.20713843  -0.04160241  1
  Zn  Zn81  1  0.00458428  0.38066536  0.38210750  1
  Zn  Zn82  1  0.38528174  0.61594039  0.24895010  1
  Zn  Zn83  1  0.61953988  0.24832692  0.38040312  1
  Zn  Zn84  1  0.13007736  0.24606351  0.37597539  1
  Zn  Zn85  1  0.12545818  -0.00802819  0.64526938  1
  Zn  Zn86  1  0.62975497  0.37216452  0.76306469  1
  Zn  Zn87  1  0.87064337  0.24246646  0.62840836  1
  Zn  Zn88  1  0.97462963  0.75140004  0.23870764  1
  Zn  Zn89  1  0.27733988  0.00172105  0.24301143  1
  Zn  Zn90  1  0.01584443  0.37099981  0.88429302  1
  Zn  Zn91  1  0.88229003  0.00661278  0.38267525  1
  Zn  Zn92  1  0.27879515  0.11629514  0.36955601  1
  Zn  Zn93  1  0.76059308  0.74274943  -0.00087916  1
  Zn  Zn94  1  0.19137633  0.18489272  0.18189255  1
  Zn  Zn95  1  0.18514819  0.18825173  0.68688597  1
  Zn  Zn96  1  0.18563942  0.68292146  0.18613920  1
  Zn  Zn97  1  0.18568208  0.67862506  0.68801024  1
  Zn  Zn98  1  0.68192510  0.18604532  0.18765588  1
  Zn  Zn99  1  0.68085032  0.18789944  0.68914018  1
  Zn  Zn100  1  0.68900966  0.68893699  0.18935941  1
  Zn  Zn101  1  0.69201192  0.68987276  0.68724505  1
  Zn  Zn102  1  0.31266964  0.30492786  0.31396660  1
  Zn  Zn103  1  0.31766664  0.31194885  0.80831556  1
  Zn  Zn104  1  0.31313846  0.81611087  0.31211492  1
  Zn  Zn105  1  0.32434023  0.78781842  0.82168142  1
  Zn  Zn106  1  0.80978233  0.31331577  0.31341949  1
  Zn  Zn107  1  0.81292150  0.31400907  0.81247647  1
  Zn  Zn108  1  0.81153594  0.81568910  0.31800268  1
  Zn  Zn109  1  0.81458136  0.81490574  0.81019087  1
  Zn  Zn110  1  0.18706836  0.43673211  0.43906490  1
  Zn  Zn111  1  0.16854835  0.40055984  0.95582048  1
  Zn  Zn112  1  0.19678484  0.93444575  0.43878225  1
  Zn  Zn113  1  0.20085431  0.93723226  0.81475366  1
  Zn  Zn114  1  0.68625708  0.43840203  0.44183926  1
  Zn  Zn115  1  0.68536572  0.44090613  0.94055332  1
  Zn  Zn116  1  0.68779339  0.94012130  0.43730348  1
  Zn  Zn117  1  0.68598181  0.93746196  0.93877947  1
  Zn  Zn118  1  0.25430211  0.01632750  -0.00316742  1
  Zn  Zn119  1  0.31213467  0.05778634  0.56917914  1
  Zn  Zn120  1  0.30741575  0.57072491  0.06840383  1
  Zn  Zn121  1  0.31223236  0.56705583  0.56249211  1
  Zn  Zn122  1  0.81012716  0.06044855  0.06060795  1
  Zn  Zn123  1  0.81063035  0.06199622  0.56282448  1
  Zn  Zn124  1  0.81141552  0.55940465  0.06114481  1
  Zn  Zn125  1  0.81588187  0.55878544  0.56040405  1
  Zn  Zn126  1  0.43837698  0.43672841  0.18654240  1
  Zn  Zn127  1  0.43909471  0.43479516  0.68544352  1
  Zn  Zn128  1  0.41303125  0.95812939  0.09894852  1
  Zn  Zn129  1  0.43038463  0.92916290  0.68525278  1
  Zn  Zn130  1  0.93705910  0.44207470  0.18614222  1
  Zn  Zn131  1  0.93506633  0.43481679  0.69360892  1
  Zn  Zn132  1  0.94284120  0.93642284  0.19207484  1
  Zn  Zn133  1  0.93650910  0.93901735  0.68946496  1
  Zn  Zn134  1  0.13537826  0.05948312  0.31603065  1
  Zn  Zn135  1  0.07517782  0.07195417  0.81693373  1
  Zn  Zn136  1  0.06290346  0.56572720  0.30716043  1
  Zn  Zn137  1  0.08996935  0.56904226  0.80414377  1
  Zn  Zn138  1  0.43837853  0.04659408  0.29128521  1
  Zn  Zn139  1  0.55470258  0.06118410  0.82123311  1
  Zn  Zn140  1  0.56556925  0.56362210  0.31711561  1
  Zn  Zn141  1  0.56282534  0.56347424  0.81611937  1
  Zn  Zn142  1  0.44147260  0.18540538  0.43827343  1
  Zn  Zn143  1  0.38680778  0.12526844  0.98800949  1
  Zn  Zn144  1  0.44115896  0.68994029  0.43901229  1
  Zn  Zn145  1  0.43493860  0.69309425  0.93088337  1
  Zn  Zn146  1  0.93757607  0.18753762  0.44278538  1
  Zn  Zn147  1  0.93233235  0.19048431  0.93508456  1
  Zn  Zn148  1  0.92221069  0.70516507  0.41405028  1
  Zn  Zn149  1  0.95067327  0.68561565  0.94317561  1
  Zn  Zn150  1  0.05819145  0.31186488  0.06941896  1
  Zn  Zn151  1  0.06377243  0.30344088  0.56807500  1
  Zn  Zn152  1  0.05621814  0.80989184  0.06030388  1
  Zn  Zn153  1  0.06595811  0.81059670  0.56479087  1
  Zn  Zn154  1  0.55782251  0.31667186  0.06336391  1
  Zn  Zn155  1  0.56235761  0.31332891  0.56582705  1
  Zn  Zn156  1  0.56137871  0.81624117  0.06326582  1
  Zn  Zn157  1  0.56305042  0.81659386  0.56427160  1
  O  O158  1  0.10864261  0.11586171  0.12789430  1
  O  O159  1  0.11667019  0.12173453  0.61809914  1
  O  O160  1  0.12597110  0.61824200  0.11198451  1
  O  O161  1  0.11840972  0.61002885  0.60880245  1
  O  O162  1  0.63574063  0.11382079  0.11229082  1
  O  O163  1  0.61543549  0.11064910  0.62738364  1
  O  O164  1  0.62681840  0.61620905  0.11888347  1
  O  O165  1  0.62567556  0.61657469  0.62051436  1
  O  O166  1  0.38622074  0.37327946  0.37405671  1
  O  O167  1  0.38529232  0.36950938  0.88663868  1
  O  O168  1  0.36767374  0.87740666  0.39326240  1
  O  O169  1  0.37452869  0.87447587  0.88170090  1
  O  O170  1  0.87356507  0.38150303  0.38268241  1
  O  O171  1  0.87410522  0.37577528  0.88944103  1
  O  O172  1  0.88609663  0.88108378  0.38731633  1
  O  O173  1  0.87946445  0.88790172  0.88105094  1
  O  O174  1  0.23621325  0.00604049  0.36226300  1
  O  O175  1  0.26645821  0.00323219  0.87911470  1
  O  O176  1  0.24681820  0.50770101  0.37109669  1
  O  O177  1  0.31627494  0.49940652  0.79834692  1
  O  O178  1  0.75384230  0.00756003  0.36746325  1
  O  O179  1  0.75388169  0.00594357  0.86922897  1
  O  O180  1  0.75140949  0.50566304  0.36903362  1
  O  O181  1  0.75353226  0.49681541  0.86416771  1
  O  O182  1  0.24749075  0.48953946  0.13773741  1
  O  O183  1  0.25020161  0.48754791  0.61705663  1
  O  O184  1  0.22627207  1.00224487  0.11662789  1
  O  O185  1  0.24976766  0.98300958  0.63177997  1
  O  O186  1  0.74092772  0.49416897  0.13364991  1
  O  O187  1  0.74746131  0.49403472  0.63506836  1
  O  O188  1  0.74943990  0.99129870  0.13345806  1
  O  O189  1  0.74109990  0.99694150  0.63191758  1
  O  O190  1  0.00794880  0.36751845  0.24582622  1
  O  O191  1  0.00949521  0.36401247  0.74803469  1
  O  O192  1  0.00803582  0.86709330  0.25954920  1
  O  O193  1  -0.00823962  0.86771203  0.76161800  1
  O  O194  1  0.50747771  0.37913872  0.26030173  1
  O  O195  1  0.50081280  0.37381854  0.75976703  1
  O  O196  1  0.51570123  0.86280861  0.24974216  1
  O  O197  1  0.51730583  0.85964896  0.73210644  1
  O  O198  1  0.50869532  0.13976396  0.25038655  1
  O  O199  1  0.50654905  0.13731789  0.74363607  1
  O  O200  1  0.50348524  0.63676486  0.25461452  1
  O  O201  1  0.50773585  0.63158067  0.73820605  1
  O  O202  1  0.98732209  0.13568432  0.23812637  1
  O  O203  1  1.01016732  0.14000880  0.74211891  1
  O  O204  1  1.01141552  0.63341942  0.23287453  1
  O  O205  1  1.00089771  0.63824727  0.75512547  1
  O  O206  1  0.38540239  0.26349101  0.01847736  1
  O  O207  1  0.36653371  0.24370601  0.51134985  1
  O  O208  1  0.35993787  0.74530225  0.00933686  1
  O  O209  1  0.36862902  0.75909131  0.49850157  1
  O  O210  1  0.87557906  0.26282623  0.01108887  1
  O  O211  1  0.86128852  0.25710552  0.50260201  1
  O  O212  1  0.87735460  0.76578612  -0.01110731  1
  O  O213  1  0.88225090  0.76366951  0.51372375  1
  O  O214  1  0.13768369  0.24163945  0.50404331  1
  O  O215  1  0.11986208  0.29644429  0.97812425  1
  O  O216  1  0.13364324  0.73598368  0.49653942  1
  O  O217  1  0.13219663  0.74763642  0.99707348  1
  O  O218  1  0.63804850  0.25561166  0.50000391  1
  O  O219  1  0.62201713  0.23875881  1.01119681  1
  O  O220  1  0.61813436  0.74152155  0.49375306  1
  O  O221  1  0.62080262  0.74399347  0.99302455  1
  O  O222  1  0.49031680  0.26056460  0.14110961  1
  O  O223  1  0.49345466  0.23927607  0.62060899  1
  O  O224  1  0.49205649  0.74662412  0.13796303  1
  O  O225  1  0.51470868  0.73334970  0.63103640  1
  O  O226  1  0.98854646  0.24477046  0.13194454  1
  O  O227  1  0.99498234  0.23945934  0.63503743  1
  O  O228  1  0.99751256  0.73809454  0.12548594  1
  O  O229  1  0.99089117  0.75547818  0.63895602  1
  O  O230  1  -0.00395495  0.25269610  0.36099220  1
  O  O231  1  -0.00231876  0.25178344  0.86192614  1
  O  O232  1  0.02182544  0.76031305  0.38223569  1
  O  O233  1  0.00055610  0.75974699  0.86543364  1
  O  O234  1  0.50209237  0.26026632  0.36540706  1
  O  O235  1  0.49906784  0.25696612  0.85981129  1
  O  O236  1  0.51393511  0.74619460  0.36701027  1
  O  O237  1  0.51509748  0.74641185  0.85644534  1
  O  O238  1  0.23900252  0.12872195  0.50603432  1
  O  O239  1  0.26297368  0.13401564  0.99154744  1
  O  O240  1  0.24702633  0.63010168  0.49364077  1
  O  O241  1  0.23495657  0.63138460  0.99823573  1
  O  O242  1  0.75678724  0.13338023  0.49009052  1
  O  O243  1  0.74502077  0.12520997  0.98909927  1
  O  O244  1  0.73820370  0.61895807  0.49442352  1
  O  O245  1  0.73612616  0.62689627  1.00464292  1
  O  O246  1  0.26570295  0.38492429  0.01267025  1
  O  O247  1  0.24469624  0.36384108  0.51073327  1
  O  O248  1  0.24356620  0.86542108  0.00512146  1
  O  O249  1  0.25878545  0.86450696  0.50855085  1
  O  O250  1  0.75447844  0.38137861  0.01396507  1
  O  O251  1  0.75547699  0.36803233  0.50874602  1
  O  O252  1  0.75940421  0.87589841  0.00856669  1
  O  O253  1  0.75969781  0.88177170  0.51272706  1
  O  O254  1  0.13428054  0.48674627  0.25278716  1
  O  O255  1  0.10885353  0.48600270  0.72276277  1
  O  O256  1  0.11192779  0.98717433  0.23202854  1
  O  O257  1  0.11795244  0.98691239  0.75850464  1
  O  O258  1  0.62938021  0.49516060  0.24464350  1
  O  O259  1  0.63638122  0.49850387  0.74508967  1
  O  O260  1  0.64146559  0.99284302  0.24055231  1
  O  O261  1  0.62822324  0.99220827  0.74403881  1
  O  O262  1  0.38400088  -0.00704644  0.21089528  1
  O  O263  1  0.38170208  -0.01367164  0.76850904  1
  O  O264  1  0.36287008  0.49875922  0.24908175  1
  O  O265  1  0.37343868  0.51931459  0.75499276  1
  O  O266  1  0.86728855  0.01010224  0.24945810  1
  O  O267  1  0.86164041  -0.00317099  0.75984952  1
  O  O268  1  0.85968680  0.49108829  0.26007575  1
  O  O269  1  0.86454580  0.49426878  0.76370283  1
  O  O270  1  0.12288374  0.36858260  0.36672471  1
  O  O271  1  0.13118350  0.39650111  0.84718298  1
  O  O272  1  0.12377898  0.86928507  0.36837877  1
  O  O273  1  0.11190544  0.86153578  0.87915200  1
  O  O274  1  0.61973144  0.37624694  0.36582126  1
  O  O275  1  0.60982377  0.37739948  0.88109954  1
  O  O276  1  0.63662239  0.86521380  0.36581177  1
  O  O277  1  0.62889791  0.86905644  0.86322709  1
  O  O278  1  0.37584152  0.14382751  0.12005464  1
  O  O279  1  0.38572353  0.13068820  0.62583465  1
  O  O280  1  0.36575203  0.64170400  0.13742386  1
  O  O281  1  0.39180397  0.62424783  0.62466777  1
  O  O282  1  0.87509562  0.13367184  0.13146021  1
  O  O283  1  0.88800138  0.12296126  0.62474389  1
  O  O284  1  0.88424905  0.62217632  0.12079126  1
  O  O285  1  0.87221974  0.64089292  0.61599512  1
  O  O286  1  0.26397026  0.26375757  0.13570838  1
  O  O287  1  0.25871080  0.25548020  0.61883923  1
  O  O288  1  0.25263985  0.74878848  0.11481042  1
  O  O289  1  0.24356376  0.74707457  0.61673191  1
  O  O290  1  0.75692488  0.26179175  0.13575674  1
  O  O291  1  0.74894788  0.25587903  0.62095261  1
  O  O292  1  0.74730946  0.76369237  0.12375588  1
  O  O293  1  0.76636876  0.76161744  0.63319463  1
  O  O294  1  0.25238462  0.24091420  0.38758547  1
  O  O295  1  0.25771918  0.23356209  0.86106659  1
  O  O296  1  0.24233450  0.74274642  0.38499877  1
  O  O297  1  0.22927113  0.75788316  0.88628842  1
  O  O298  1  0.74607118  0.24313006  0.38062759  1
  O  O299  1  0.75107415  0.23400345  0.86712701  1
  O  O300  1  0.73510792  0.73792204  0.37161850  1
  O  O301  1  0.73909265  0.75550463  0.87714877  1
  O  O302  1  -0.01137395  0.11913115  0.00927044  1
  O  O303  1  0.00961811  0.13205844  0.51744842  1
  O  O304  1  0.01460536  0.62756551  0.01715702  1
  O  O305  1  0.00879384  0.63361056  0.48720666  1
  O  O306  1  0.50908681  0.12974398  0.00004903  1
  O  O307  1  0.49747661  0.10651266  0.51050603  1
  O  O308  1  0.50219596  0.61679291  -0.00528959  1
  O  O309  1  0.50921904  0.61666437  0.51055423  1
  O  O310  1  0.50690599  0.38921575  0.49526516  1
  O  O311  1  0.49245495  0.38698830  0.99579616  1
  O  O312  1  0.48640060  0.88204800  0.50799062  1
  O  O313  1  0.47836049  0.88249858  1.03260378  1
  O  O314  1  0.98559770  0.35978658  0.49953965  1
  O  O315  1  0.98287400  0.38121925  1.00392211  1
  O  O316  1  0.99714899  0.87363519  0.49396785  1
  O  O317  1  0.99225838  0.88442577  0.98977326  1
  O  O318  1  0.50438996  0.49729821  0.39011331  1
  O  O319  1  0.50032186  0.49573786  0.88974085  1
  O  O320  1  0.50240270  0.99842148  0.38674297  1
  O  O321  1  0.49066021  0.99368540  0.88316589  1
  O  O322  1  0.98431637  0.49932251  0.36501216  1
  O  O323  1  0.99016473  0.49309471  0.86477796  1
  O  O324  1  1.00626621  0.98869643  0.36937255  1
  O  O325  1  0.99162195  1.00074193  0.88006943  1
  O  O326  1  -0.00229415  0.00867703  0.11636292  1
  O  O327  1  0.00358083  0.01481874  0.63631762  1
  O  O328  1  0.00239696  0.51432918  0.12982159  1
  O  O329  1  -0.00291159  0.49437399  0.61317577  1
  O  O330  1  0.52202516  0.00290626  0.13246132  1
  O  O331  1  0.50519607  0.00475467  0.62836965  1
  O  O332  1  0.50843665  0.49615781  0.11270748  1
  O  O333  1  0.50867909  0.50797269  0.62108498  1
  O  O334  1  0.24484775  0.37853138  0.24894774  1
  O  O335  1  0.23805772  0.36844224  0.72991738  1
  O  O336  1  0.23668517  0.88031414  0.25104370  1
  O  O337  1  0.25631224  0.85794743  0.74315388  1
  O  O338  1  0.73916350  0.38306298  0.24406626  1
  O  O339  1  0.74814840  0.38053516  0.74107968  1
  O  O340  1  0.75027147  0.88161240  0.24509568  1
  O  O341  1  0.74376632  0.88623424  0.74126499  1
  O  O342  1  0.22910892  0.11311683  0.25817796  1
  O  O343  1  0.25524821  0.11943159  0.74567319  1
  O  O344  1  0.24467094  0.61385067  0.26201550  1
  O  O345  1  0.19580931  0.60547881  0.76934375  1
  O  O346  1  0.75636476  0.12058662  0.25549582  1
  O  O347  1  0.73545027  0.11363875  0.76193505  1
  O  O348  1  0.74124815  0.61369192  0.26116276  1
  O  O349  1  0.75100863  0.61113861  0.74841456  1
  O  O350  1  0.38993279  0.11798355  0.36617977  1
  O  O351  1  0.36810286  0.11344969  0.86976396  1
  O  O352  1  0.36352265  0.63077692  0.37267552  1
  O  O353  1  0.35699047  0.67936178  0.85296726  1
  O  O354  1  0.87249455  0.12590127  0.36379125  1
  O  O355  1  0.86000012  0.11511502  0.88089975  1
  O  O356  1  0.85819778  0.60860923  0.39448850  1
  O  O357  1  0.88396152  0.61099789  0.88385005  1
  O  O358  1  0.13522131  0.37540503  0.13521997  1
  O  O359  1  0.13039103  0.38716893  0.62100244  1
  O  O360  1  0.11379750  0.88454073  0.13057755  1
  O  O361  1  0.14446875  0.87261309  0.61987648  1
  O  O362  1  0.62823016  0.38596124  0.13287891  1
  O  O363  1  0.63465285  0.38833478  0.62312564  1
  O  O364  1  0.63689066  0.88430511  0.13224162  1
  O  O365  1  0.63580257  0.88092460  0.63146696  1
  O  O366  1  0.11591890  0.25762643  0.24834440  1
  O  O367  1  0.11463833  0.26700730  0.73875892  1
  O  O368  1  0.13292798  0.75700959  0.25939009  1
  O  O369  1  0.11175452  0.74860785  0.76297298  1
  O  O370  1  0.61292636  0.26150368  0.24716716  1
  O  O371  1  0.60543821  0.26052996  0.73629380  1
  O  O372  1  0.61702214  0.75556372  0.25449329  1
  O  O373  1  0.62755740  0.75654452  0.75558965  1
  O  O374  1  0.38776568  0.25243042  0.24277590  1
  O  O375  1  0.39277654  0.25922099  0.73350400  1
  O  O376  1  0.39046192  0.75071734  0.25445015  1
  O  O377  1  0.40037717  0.76063965  0.73530651  1
  O  O378  1  0.87875471  0.24683368  0.24120105  1
  O  O379  1  0.89003684  0.25782504  0.74644412  1
  O  O380  1  0.88556153  0.73471094  0.30449294  1
  O  O381  1  0.88331703  0.75054866  0.74080103  1
  O  O382  1  0.39331726  0.50394269  0.50659205  1
  O  O383  1  0.38575497  0.49890611  1.00843859  1
  O  O384  1  0.38581320  0.98864137  0.50570379  1
  O  O385  1  0.37251669  1.00650090  0.99922476  1
  O  O386  1  0.86818818  0.48484127  0.49140632  1
  O  O387  1  0.86668402  0.48972508  0.98561306  1
  O  O388  1  0.87724538  0.99048779  0.50198295  1
  O  O389  1  0.88184382  0.99324747  0.99185784  1
  O  O390  1  0.10770820  -0.00280007  0.01192794  1
  O  O391  1  0.13024257  0.01045129  0.50587222  1
  O  O392  1  0.13228659  0.50761790  -0.00664236  1
  O  O393  1  0.11949679  0.50966069  0.50220764  1
  O  O394  1  0.62810623  0.00302672  0.01270289  1
  O  O395  1  0.60816433  -0.01496197  0.51114219  1
  O  O396  1  0.61588091  0.51009592  0.00712428  1
  O  O397  1  0.61969933  0.50946704  0.51078731  1
  O  O398  1  0.36912859  0.37298497  0.12005925  1
  O  O399  1  0.36335462  0.37050873  0.62580808  1
  O  O400  1  0.36809961  0.85020840  0.13363864  1
  O  O401  1  0.35891833  0.87130882  0.61418113  1
  O  O402  1  0.86597063  0.37253674  0.11790615  1
  O  O403  1  0.86346099  0.37586423  0.61844937  1
  O  O404  1  0.87048400  0.88128350  0.11605801  1
  O  O405  1  0.87114791  0.87299616  0.62005821  1
  O  O406  1  0.11074367  0.13174844  0.39932200  1
  O  O407  1  0.15506839  0.12054787  0.87953810  1
  O  O408  1  0.13250803  0.62912710  0.38431018  1
  O  O409  1  0.10593794  0.64342561  0.89511820  1
  O  O410  1  0.63631994  0.12634167  0.37203820  1
  O  O411  1  0.63209942  0.11959950  0.89085833  1
  O  O412  1  0.63198338  0.63056368  0.38545248  1
  O  O413  1  0.62311511  0.63344716  0.88569833  1
