# generated using pymatgen
data_V79Zn79O256
_symmetry_space_group_name_H-M   'P 1'
_cell_length_a   16.86398012
_cell_length_b   16.86547106
_cell_length_c   16.87331074
_cell_angle_alpha   90.07785163
_cell_angle_beta   90.00911426
_cell_angle_gamma   89.93492437
_symmetry_Int_Tables_number   1
_chemical_formula_structural   V79Zn79O256
_chemical_formula_sum   'V79 Zn79 O256'
_cell_volume   4799.08205055
_cell_formula_units_Z   1
loop_
 _symmetry_equiv_pos_site_id
 _symmetry_equiv_pos_as_xyz
  1  'x, y, z'
loop_
 _atom_site_type_symbol
 _atom_site_label
 _atom_site_symmetry_multiplicity
 _atom_site_fract_x
 _atom_site_fract_y
 _atom_site_fract_z
 _atom_site_occupancy
  V  V0  1  0.25349850  0.75185317  0.50038631  1
  V  V1  1  0.49489101  0.74826829  0.23707028  1
  V  V2  1  0.12514274  0.36922950  0.25353109  1
  V  V3  1  0.74984922  0.36074046  0.61931759  1
  V  V4  1  0.12914479  -0.00119273  0.12495477  1
  V  V5  1  0.38030418  0.00339895  0.88457637  1
  V  V6  1  0.11660365  0.50663468  0.12266869  1
  V  V7  1  0.37835720  0.49732792  0.38839476  1
  V  V8  1  0.24348850  0.13232213  0.37712849  1
  V  V9  1  0.25115668  0.12134586  0.87006148  1
  V  V10  1  0.00303348  -0.00478646  0.48951125  1
  V  V11  1  0.74204091  0.49557923  0.23770380  1
  V  V12  1  0.25295292  0.88381563  0.62937068  1
  V  V13  1  0.49960646  0.50399557  0.01712407  1
  V  V14  1  0.64169197  0.86966227  0.24557589  1
  V  V15  1  0.86751474  0.25830779  0.12086001  1
  V  V16  1  0.12106576  0.75492679  0.36974652  1
  V  V17  1  0.25363089  0.25092443  0.00028982  1
  V  V18  1  0.11155687  0.25243357  0.87192081  1
  V  V19  1  0.76341708  0.86484728  0.60397910  1
  V  V20  1  0.12479643  0.12586441  -0.00124901  1
  V  V21  1  0.74984738  0.50392489  0.74919167  1
  V  V22  1  0.37732893  0.74845564  0.63064683  1
  V  V23  1  0.74099110  0.75297355  0.00216244  1
  V  V24  1  0.25484168  0.62537520  0.37625056  1
  V  V25  1  0.25315761  0.49976172  0.24993055  1
  V  V26  1  0.86649615  0.37237979  0.49148299  1
  V  V27  1  0.62099917  0.49570698  0.62281392  1
  V  V28  1  0.87114428  0.00742972  0.37059567  1
  V  V29  1  0.38660396  0.88183774  0.50102341  1
  V  V30  1  0.37786434  0.37517888  -0.00695497  1
  V  V31  1  0.87414567  -0.00676602  0.87156809  1
  V  V32  1  0.62068243  0.00176330  0.60982016  1
  V  V33  1  0.37622558  0.12009662  0.74328510  1
  V  V34  1  0.50483028  0.87886338  0.87968770  1
  V  V35  1  0.62330113  0.37951431  0.22628145  1
  V  V36  1  0.00127373  0.75627975  0.77079181  1
  V  V37  1  0.12016110  0.87144499  0.25032878  1
  V  V38  1  0.50105474  0.11604965  0.11347589  1
  V  V39  1  0.12586542  0.00293731  0.62704090  1
  V  V40  1  0.00055606  0.49584906  -0.01398402  1
  V  V41  1  0.38392470  0.00196927  0.37797126  1
  V  V42  1  0.88161511  0.73508185  0.13057542  1
  V  V43  1  0.49885314  0.62394096  0.62705091  1
  V  V44  1  0.87298844  0.87176255  0.01398353  1
  V  V45  1  0.49807755  0.37615117  0.39162768  1
  V  V46  1  0.63547070  0.87661813  0.75555564  1
  V  V47  1  -0.00043849  -0.00740088  0.00127056  1
  V  V48  1  0.25541984  0.85824562  0.12207522  1
  V  V49  1  0.25393733  0.37190852  0.12336620  1
  V  V50  1  0.37707864  0.86180630  0.00525012  1
  V  V51  1  0.50553131  0.74991455  0.75468941  1
  V  V52  1  0.62157505  0.62270171  0.50143544  1
  V  V53  1  -0.00199746  0.63860549  0.62330849  1
  V  V54  1  0.75108834  0.61130089  0.37954116  1
  V  V55  1  0.62530065  0.36702853  0.76250450  1
  V  V56  1  0.12863555  0.64261201  -0.00935727  1
  V  V57  1  -0.00170101  0.38280651  0.37618040  1
  V  V58  1  -0.00567424  0.12647245  0.12748041  1
  V  V59  1  0.24909789  0.50802073  0.75690601  1
  V  V60  1  0.12302942  0.49845744  0.62540328  1
  V  V61  1  0.75644234  0.13774024  0.86824785  1
  V  V62  1  -0.00406127  0.24649020  0.25990970  1
  V  V63  1  0.62420352  0.74464505  0.37810018  1
  V  V64  1  -0.01153497  0.12960859  0.63908275  1
  V  V65  1  0.49160410  0.25705923  0.75891300  1
  V  V66  1  0.88021726  0.61465913  0.24523719  1
  V  V67  1  0.75077090  0.02359505  0.24294587  1
  V  V68  1  0.37916968  0.62703866  0.23822959  1
  V  V69  1  0.38109967  0.50989130  0.87105395  1
  V  V70  1  0.37616492  0.12804273  0.24335559  1
  V  V71  1  0.11217361  0.37253360  0.75370890  1
  V  V72  1  0.63696896  0.12975823  -0.00892964  1
  V  V73  1  0.87594159  0.63098810  0.75005777  1
  V  V74  1  0.49539137  0.25416083  0.23579227  1
  V  V75  1  0.62094190  0.61952333  0.00581657  1
  V  V76  1  0.12627804  0.62586387  0.49899280  1
  V  V77  1  0.25132080  0.25958012  0.50839058  1
  V  V78  1  0.12791191  0.87428733  0.76238366  1
  Zn  Zn79  1  -0.05307070  0.84210742  0.42447499  1
  Zn  Zn80  1  0.50503980  0.87675638  0.37567237  1
  Zn  Zn81  1  0.50669877  0.12606009  0.62612895  1
  Zn  Zn82  1  0.26219198  0.37469329  0.63055474  1
  Zn  Zn83  1  0.25241092  0.64645812  0.87599105  1
  Zn  Zn84  1  0.25271229  -0.00116247  0.25166047  1
  Zn  Zn85  1  0.87821807  0.49574178  0.87001206  1
  Zn  Zn86  1  0.86294027  0.36758011  -0.00578936  1
  Zn  Zn87  1  0.11293468  0.13587991  0.49666582  1
  Zn  Zn88  1  0.72954962  0.13849078  0.40928535  1
  Zn  Zn89  1  -0.00569385  0.50259717  0.49678984  1
  Zn  Zn90  1  0.73137321  0.63540087  0.86659121  1
  Zn  Zn91  1  0.62720120  -0.01113551  0.11055547  1
  Zn  Zn92  1  0.62627854  0.25276980  0.36809949  1
  Zn  Zn93  1  0.75798614  0.00392464  0.74367275  1
  Zn  Zn94  1  0.18636501  0.18776296  0.18762018  1
  Zn  Zn95  1  0.18490308  0.18937723  0.68649968  1
  Zn  Zn96  1  0.18909669  0.68465527  0.18794692  1
  Zn  Zn97  1  0.18625497  0.69197242  0.68974359  1
  Zn  Zn98  1  0.67867639  0.19346445  0.18056037  1
  Zn  Zn99  1  0.68928594  0.18500724  0.68774633  1
  Zn  Zn100  1  0.68917128  0.68391292  0.18489211  1
  Zn  Zn101  1  0.68905875  0.69260675  0.68234630  1
  Zn  Zn102  1  0.31474196  0.31244847  0.31405156  1
  Zn  Zn103  1  0.30596410  0.31615953  0.81243333  1
  Zn  Zn104  1  0.31104811  0.81528582  0.31124676  1
  Zn  Zn105  1  0.31662453  0.81510455  0.81413463  1
  Zn  Zn106  1  0.80913214  0.30607088  0.31163722  1
  Zn  Zn107  1  0.82907963  0.31476238  0.80474139  1
  Zn  Zn108  1  0.81883971  0.79620739  0.33396796  1
  Zn  Zn109  1  0.81914133  0.81111702  0.82123705  1
  Zn  Zn110  1  0.18735522  0.43737018  0.43717799  1
  Zn  Zn111  1  0.18786182  0.43920755  0.93400408  1
  Zn  Zn112  1  0.19254566  0.94059498  0.43772743  1
  Zn  Zn113  1  0.19468726  0.93485672  0.94101514  1
  Zn  Zn114  1  0.68026909  0.43425209  0.43571501  1
  Zn  Zn115  1  0.69140085  0.43897081  0.93826172  1
  Zn  Zn116  1  0.68967115  0.93723477  0.43059707  1
  Zn  Zn117  1  0.69025872  0.94157900  0.93980930  1
  Zn  Zn118  1  0.31441428  0.06165317  0.05992023  1
  Zn  Zn119  1  0.31177303  0.06567456  0.55795148  1
  Zn  Zn120  1  0.30720289  0.56206681  0.05896148  1
  Zn  Zn121  1  0.31149333  0.56177933  0.56933781  1
  Zn  Zn122  1  0.81191820  0.06536780  0.06260089  1
  Zn  Zn123  1  0.81444031  0.04284412  0.56745409  1
  Zn  Zn124  1  0.79998665  0.54301568  0.04948955  1
  Zn  Zn125  1  0.81532290  0.55882879  0.56431935  1
  Zn  Zn126  1  0.43250924  0.43962679  0.18919280  1
  Zn  Zn127  1  0.43933395  0.44120819  0.69484493  1
  Zn  Zn128  1  0.44102248  0.93664203  0.19097432  1
  Zn  Zn129  1  0.44336830  0.94075250  0.69099072  1
  Zn  Zn130  1  0.93503063  0.43589345  0.18798288  1
  Zn  Zn131  1  0.93292838  0.43741950  0.68141335  1
  Zn  Zn132  1  0.91111229  0.90756790  0.21971883  1
  Zn  Zn133  1  0.94391535  0.93438357  0.68285000  1
  Zn  Zn134  1  0.06387305  0.06072790  0.30771268  1
  Zn  Zn135  1  0.06124859  0.05818251  0.81446222  1
  Zn  Zn136  1  0.06740894  0.56246647  0.31194434  1
  Zn  Zn137  1  0.06593303  0.56911241  0.81222459  1
  Zn  Zn138  1  0.56598099  0.06430245  0.30983349  1
  Zn  Zn139  1  0.56607097  0.06217798  0.81150117  1
  Zn  Zn140  1  0.55744827  0.55904135  0.31104303  1
  Zn  Zn141  1  0.56413578  0.56291624  0.81557552  1
  Zn  Zn142  1  0.42909783  0.19934231  0.42341489  1
  Zn  Zn143  1  0.44099366  0.19116684  0.93425031  1
  Zn  Zn144  1  0.43983834  0.68770794  0.43737390  1
  Zn  Zn145  1  0.44169446  0.68760425  0.93656936  1
  Zn  Zn146  1  0.89839267  0.16596766  0.47520142  1
  Zn  Zn147  1  0.93295114  0.18256798  0.94051539  1
  Zn  Zn148  1  0.93193786  0.67655002  0.43566924  1
  Zn  Zn149  1  0.93966702  0.67673788  0.94583641  1
  Zn  Zn150  1  0.05932043  0.31471953  0.06261904  1
  Zn  Zn151  1  0.06297342  0.30932110  0.55887596  1
  Zn  Zn152  1  0.05834470  0.81086463  0.07343336  1
  Zn  Zn153  1  0.07068562  0.81310953  0.56564371  1
  Zn  Zn154  1  0.56065665  0.30938304  0.05166505  1
  Zn  Zn155  1  0.43080635  0.30258943  0.57741739  1
  Zn  Zn156  1  0.56199032  0.81235051  0.06336015  1
  Zn  Zn157  1  0.57111390  0.81088127  0.56584770  1
  O  O158  1  0.12051523  0.11845418  0.11890280  1
  O  O159  1  0.12376727  0.11235658  0.62492858  1
  O  O160  1  0.13103880  0.61023895  0.12066633  1
  O  O161  1  0.11822495  0.62160335  0.61905482  1
  O  O162  1  0.61385925  0.12384189  0.11403595  1
  O  O163  1  0.63037544  0.10476030  0.63185870  1
  O  O164  1  0.62180565  0.62996830  0.10658827  1
  O  O165  1  0.61991799  0.62045808  0.61911917  1
  O  O166  1  0.38774030  0.38394549  0.36621811  1
  O  O167  1  0.36633736  0.38862290  0.88720894  1
  O  O168  1  0.37349867  0.88436812  0.38441837  1
  O  O169  1  0.38270760  0.88447112  0.88551854  1
  O  O170  1  0.88049302  0.37492753  0.38326171  1
  O  O171  1  0.86504866  0.38429382  0.88147633  1
  O  O172  1  0.88975474  0.89577974  0.33848618  1
  O  O173  1  0.87357660  0.88603683  0.89578228  1
  O  O174  1  0.26214128  0.01394845  0.37480409  1
  O  O175  1  0.25903969  0.01471244  0.87999820  1
  O  O176  1  0.25679507  0.50428910  0.36886448  1
  O  O177  1  0.25808184  0.50441041  0.87081599  1
  O  O178  1  0.76246858  0.00405556  0.36627568  1
  O  O179  1  0.76483565  0.00224491  0.87359560  1
  O  O180  1  0.73861052  0.50763397  0.36499429  1
  O  O181  1  0.74500838  0.51054297  0.85467075  1
  O  O182  1  0.24136459  0.48968202  0.12971496  1
  O  O183  1  0.23702965  0.50360108  0.63506530  1
  O  O184  1  0.23766215  0.99941742  0.12197690  1
  O  O185  1  0.24305763  0.99205149  0.61929478  1
  O  O186  1  0.73600447  0.50885616  0.14100111  1
  O  O187  1  0.73820963  0.50358074  0.63432926  1
  O  O188  1  0.74412782  1.00895048  0.13884719  1
  O  O189  1  0.73950525  0.98322753  0.62964897  1
  O  O190  1  0.00599847  0.36850254  0.25489280  1
  O  O191  1  0.01321359  0.38107639  0.74519987  1
  O  O192  1  0.02111210  0.87585863  0.23677825  1
  O  O193  1  0.01110202  0.86326830  0.74823015  1
  O  O194  1  0.50875508  0.37106294  0.24112698  1
  O  O195  1  0.51292868  0.36757388  0.75071150  1
  O  O196  1  0.50566195  0.86135037  0.25421065  1
  O  O197  1  0.51057004  0.86988437  0.75769899  1
  O  O198  1  0.49514033  0.13407149  0.23981243  1
  O  O199  1  0.48864127  0.13217934  0.75462973  1
  O  O200  1  0.49438596  0.63715892  0.25296220  1
  O  O201  1  0.50980657  0.63859656  0.74015286  1
  O  O202  1  1.01024012  0.13894004  0.24235738  1
  O  O203  1  1.00718429  0.12100885  0.73872557  1
  O  O204  1  0.97888346  0.61259304  0.25705287  1
  O  O205  1  0.99954706  0.64031899  0.74425738  1
  O  O206  1  0.36367942  0.25973226  -0.00958319  1
  O  O207  1  0.36189323  0.24350839  0.50324461  1
  O  O208  1  0.38028072  0.76285377  0.00147328  1
  O  O209  1  0.37263437  0.75907516  0.50999804  1
  O  O210  1  0.88032028  0.25160310  0.01502186  1
  O  O211  1  0.88171085  0.27449042  0.50460755  1
  O  O212  1  0.87222991  0.75050783  0.01148481  1
  O  O213  1  0.86569606  0.76578734  0.43761858  1
  O  O214  1  0.14229688  0.24695587  0.49835245  1
  O  O215  1  0.13156643  0.24742656  0.99226610  1
  O  O216  1  0.13510546  0.74653443  0.49306005  1
  O  O217  1  0.11989004  0.74087222  1.00790113  1
  O  O218  1  0.58643882  0.19944050  0.49953224  1
  O  O219  1  0.62037005  0.23064765  0.99797473  1
  O  O220  1  0.62294394  0.73601037  0.49194134  1
  O  O221  1  0.63497172  0.74510424  1.00224482  1
  O  O222  1  0.50056054  0.23860065  0.12964934  1
  O  O223  1  0.49880953  0.24124804  0.64841708  1
  O  O224  1  0.49896376  0.75055151  0.13795316  1
  O  O225  1  0.49596931  0.74535546  0.63250875  1
  O  O226  1  0.99566343  0.24345193  0.13179839  1
  O  O227  1  1.00657784  0.22695396  0.61418526  1
  O  O228  1  0.98168940  0.74167570  0.12649879  1
  O  O229  1  1.00354936  0.74134730  0.62547694  1
  O  O230  1  -0.00104776  0.26012448  0.36011364  1
  O  O231  1  0.01268809  0.24019021  0.87960580  1
  O  O232  1  0.02011809  0.74903007  0.37941726  1
  O  O233  1  0.00032439  0.75004272  0.86918881  1
  O  O234  1  0.49727284  0.26563805  0.35693754  1
  O  O235  1  0.50639210  0.24611619  0.85993537  1
  O  O236  1  0.51198169  0.74930766  0.36815086  1
  O  O237  1  0.49258148  0.76339618  0.86417203  1
  O  O238  1  0.24973158  0.13194273  0.48688565  1
  O  O239  1  0.24644569  0.13338735  0.99314290  1
  O  O240  1  0.24624659  0.63178671  0.49683548  1
  O  O241  1  0.23274405  0.62030370  0.99907369  1
  O  O242  1  0.79277472  0.12531118  0.49693881  1
  O  O243  1  0.74328404  0.12737290  0.99161310  1
  O  O244  1  0.74369099  0.61639520  0.48620824  1
  O  O245  1  0.73439201  0.62642432  0.99492804  1
  O  O246  1  0.25445969  0.36967597  0.00471843  1
  O  O247  1  0.24890674  0.36311297  0.49886562  1
  O  O248  1  0.26755832  0.87871479  0.00761013  1
  O  O249  1  0.26079958  0.87140796  0.51030544  1
  O  O250  1  0.77123506  0.43355004  0.01274067  1
  O  O251  1  0.75548380  0.38108994  0.50763279  1
  O  O252  1  0.75504541  0.86159055  0.00190958  1
  O  O253  1  0.75244598  0.87578633  0.50420645  1
  O  O254  1  0.13175264  0.49398716  0.23966537  1
  O  O255  1  0.12904846  0.49197683  0.74670760  1
  O  O256  1  0.13013488  0.99254744  0.24013665  1
  O  O257  1  0.11651864  0.98380422  0.74013015  1
  O  O258  1  0.62601511  0.48714135  0.24963627  1
  O  O259  1  0.62860039  0.49247404  0.74304457  1
  O  O260  1  0.64143829  0.98352504  0.25827501  1
  O  O261  1  0.62804887  0.98531549  0.74530679  1
  O  O262  1  0.37362153  0.01047981  0.25644772  1
  O  O263  1  0.37933810  0.01376814  0.76205434  1
  O  O264  1  0.37118936  0.50870538  0.25914459  1
  O  O265  1  0.36645376  0.49955895  0.76503376  1
  O  O266  1  0.85753194  0.00827794  0.24850377  1
  O  O267  1  0.88056432  -0.01395065  0.76951658  1
  O  O268  1  0.85717516  0.50471346  0.24250160  1
  O  O269  1  0.86558172  0.50868652  0.74596036  1
  O  O270  1  0.11876374  0.38040888  0.36076013  1
  O  O271  1  0.12685290  0.36818188  0.86319321  1
  O  O272  1  0.13821110  0.86790112  0.36388455  1
  O  O273  1  0.13079348  0.88370157  0.86109947  1
  O  O274  1  0.60717689  0.37341388  0.37059857  1
  O  O275  1  0.63468652  0.37818592  0.86115527  1
  O  O276  1  0.62607991  0.86312158  0.36531147  1
  O  O277  1  0.61943439  0.88059561  0.86518233  1
  O  O278  1  0.38688315  0.11787686  0.13160414  1
  O  O279  1  0.37622290  0.11638522  0.64054830  1
  O  O280  1  0.36753220  0.62000930  0.13923048  1
  O  O281  1  0.38399319  0.63758432  0.62163217  1
  O  O282  1  0.88959336  0.13219711  0.12068772  1
  O  O283  1  0.88996234  0.10627859  0.63101317  1
  O  O284  1  0.86811589  0.62460130  0.13486110  1
  O  O285  1  0.88697302  0.62069998  0.63630739  1
  O  O286  1  0.24203045  0.25852838  0.11143042  1
  O  O287  1  0.24990510  0.25171384  0.61373142  1
  O  O288  1  0.25209440  0.75914418  0.12554698  1
  O  O289  1  0.25912593  0.75833908  0.62209799  1
  O  O290  1  0.76954701  0.24152668  0.13384573  1
  O  O291  1  0.73984779  0.26255349  0.61991475  1
  O  O292  1  0.76031339  0.73872246  0.10835519  1
  O  O293  1  0.74860510  0.76550686  0.62189576  1
  O  O294  1  0.25767176  0.23789363  0.38158128  1
  O  O295  1  0.24057513  0.24270060  0.88349138  1
  O  O296  1  0.24803948  0.74440200  0.38217960  1
  O  O297  1  0.25273854  0.75738622  0.87986612  1
  O  O298  1  0.74098402  0.25212565  0.38043718  1
  O  O299  1  0.76496854  0.23629361  0.86911595  1
  O  O300  1  0.72904804  0.72419198  0.36052371  1
  O  O301  1  0.76256458  0.74426354  0.89606690  1
  O  O302  1  0.00669582  0.11630884  0.00932985  1
  O  O303  1  -0.00196617  0.10774378  0.50855747  1
  O  O304  1  0.02208018  0.61223600  -0.00025779  1
  O  O305  1  0.00444474  0.62315915  0.50533394  1
  O  O306  1  0.50090741  0.12530371  0.00983078  1
  O  O307  1  0.51930769  0.16253020  0.50481316  1
  O  O308  1  0.50404236  0.61367575  -0.00022579  1
  O  O309  1  0.50816726  0.62896053  0.51443054  1
  O  O310  1  0.49625178  0.36154213  0.48848465  1
  O  O311  1  0.48907621  0.38794663  1.00582791  1
  O  O312  1  0.48992245  0.86772957  0.49936110  1
  O  O313  1  0.49222276  0.87191052  0.99205141  1
  O  O314  1  0.99628609  0.37740647  0.49021861  1
  O  O315  1  0.99414974  0.39291053  1.00696201  1
  O  O316  1  1.01023692  0.88913650  0.50530147  1
  O  O317  1  0.99079650  0.88464570  1.01234497  1
  O  O318  1  0.49299278  0.48632048  0.37496440  1
  O  O319  1  0.48400516  0.50131705  0.87650838  1
  O  O320  1  0.48837835  0.99837662  0.36716011  1
  O  O321  1  0.49394116  0.98910774  0.86989751  1
  O  O322  1  1.00340162  0.48794324  0.37375653  1
  O  O323  1  1.00796254  0.49730581  0.88286490  1
  O  O324  1  1.00538779  0.99891686  0.38465117  1
  O  O325  1  0.98753781  1.00820259  0.89183066  1
  O  O326  1  0.01407477  0.00872889  0.11859709  1
  O  O327  1  0.01011522  0.00329034  0.61570680  1
  O  O328  1  0.01471040  0.49795138  0.12655030  1
  O  O329  1  0.01276835  0.51139975  0.62838616  1
  O  O330  1  0.50831467  0.01313931  0.13351460  1
  O  O331  1  0.51381857  0.00359699  0.62551738  1
  O  O332  1  0.49473912  0.50472640  0.11582818  1
  O  O333  1  0.50991475  0.51364560  0.63693619  1
  O  O334  1  0.24523289  0.37633824  0.24322716  1
  O  O335  1  0.24011813  0.38903622  0.74936889  1
  O  O336  1  0.24748662  0.87927408  0.23749659  1
  O  O337  1  0.23938035  0.87072716  0.73938482  1
  O  O338  1  0.73433126  0.38426665  0.25195908  1
  O  O339  1  0.74031104  0.38278666  0.73704219  1
  O  O340  1  0.74084243  0.86018662  0.25421794  1
  O  O341  1  0.74010337  0.87070524  0.75551843  1
  O  O342  1  0.25816716  0.12812470  0.25768566  1
  O  O343  1  0.26477653  0.13616283  0.75964617  1
  O  O344  1  0.25897734  0.62009057  0.25725629  1
  O  O345  1  0.24017742  0.61336300  0.75430315  1
  O  O346  1  0.73883823  0.12153995  0.25344849  1
  O  O347  1  0.74853618  0.12017919  0.76401414  1
  O  O348  1  0.74535811  0.60979246  0.25801186  1
  O  O349  1  0.75823196  0.62517346  0.74677138  1
  O  O350  1  0.37046668  0.11904996  0.36462906  1
  O  O351  1  0.36978904  0.12058752  0.87115460  1
  O  O352  1  0.37260437  0.61778310  0.36963436  1
  O  O353  1  0.36991122  0.61336152  0.88320513  1
  O  O354  1  0.89217016  0.10530594  0.36583702  1
  O  O355  1  0.86354800  0.10847160  0.88582450  1
  O  O356  1  0.85679161  0.61861015  0.36072655  1
  O  O357  1  0.88130327  0.61946173  0.85717120  1
  O  O358  1  0.13334961  0.38346987  0.13232358  1
  O  O359  1  0.12628130  0.38375482  0.63448719  1
  O  O360  1  0.13695085  0.87975398  0.12792585  1
  O  O361  1  0.13661294  0.88300846  0.62963514  1
  O  O362  1  0.62490839  0.37402090  0.12741310  1
  O  O363  1  0.63648255  0.38804576  0.62898894  1
  O  O364  1  0.62301800  0.87470801  0.14109228  1
  O  O365  1  0.63235631  0.88249375  0.63416532  1
  O  O366  1  0.11376438  0.26180090  0.24124895  1
  O  O367  1  0.13025540  0.26494429  0.75602743  1
  O  O368  1  0.13516502  0.75693311  0.25878090  1
  O  O369  1  0.11417637  0.76220524  0.74806191  1
  O  O370  1  0.61457690  0.26662190  0.24458912  1
  O  O371  1  0.62222298  0.26352132  0.74826883  1
  O  O372  1  0.61541188  0.75435735  0.25217319  1
  O  O373  1  0.61686247  0.76484436  0.74408825  1
  O  O374  1  0.38136855  0.23931479  0.24954862  1
  O  O375  1  0.38347961  0.24399095  0.75940657  1
  O  O376  1  0.38746246  0.74373082  0.25690483  1
  O  O377  1  0.38772180  0.76218302  0.73691898  1
  O  O378  1  0.89084660  0.25568117  0.24103316  1
  O  O379  1  0.87788377  0.26600378  0.72010260  1
  O  O380  1  0.86267261  0.72996513  0.23908200  1
  O  O381  1  0.89130887  0.74704307  0.75424373  1
  O  O382  1  0.36892227  0.50435278  0.48765891  1
  O  O383  1  0.38303045  0.49692743  0.99373152  1
  O  O384  1  0.37515767  0.99357048  0.49257942  1
  O  O385  1  0.37860962  0.99686878  0.98892836  1
  O  O386  1  0.88078383  0.48332133  0.50862019  1
  O  O387  1  0.90068705  0.52481385  0.99432859  1
  O  O388  1  0.89036943  0.98939665  0.47956067  1
  O  O389  1  0.88035420  0.98991845  1.00444920  1
  O  O390  1  0.11929496  0.00254041  0.00445583  1
  O  O391  1  0.11861506  0.00398746  0.50629201  1
  O  O392  1  0.11916792  0.49628501  0.01175614  1
  O  O393  1  0.12514366  0.50669828  0.50892884  1
  O  O394  1  0.62797864  0.01596247  -0.00034061  1
  O  O395  1  0.62743671  -0.00476578  0.50971456  1
  O  O396  1  0.60769330  0.50640567  -0.00288950  1
  O  O397  1  0.62656334  0.51009501  0.51100970  1
  O  O398  1  0.36093447  0.38138404  0.11444765  1
  O  O399  1  0.37444058  0.38786218  0.62321783  1
  O  O400  1  0.37197832  0.88290707  0.11231220  1
  O  O401  1  0.37169578  0.87349759  0.62102121  1
  O  O402  1  0.87686425  0.36198067  0.12370643  1
  O  O403  1  0.85592772  0.37758758  0.61939731  1
  O  O404  1  0.87217481  0.85614150  0.12289519  1
  O  O405  1  0.86174530  0.88261837  0.62468130  1
  O  O406  1  0.14129674  0.12108913  0.37179082  1
  O  O407  1  0.13339029  0.12938368  0.87747614  1
  O  O408  1  0.13431719  0.63150009  0.37817832  1
  O  O409  1  0.12935308  0.63008312  0.88575186  1
  O  O410  1  0.62286723  0.13541312  0.37339144  1
  O  O411  1  0.64054448  0.11954991  0.88159750  1
  O  O412  1  0.62516548  0.62278913  0.38457967  1
  O  O413  1  0.61725780  0.62860446  0.89155180  1
