# generated using pymatgen
data_V79Zn79O256
_symmetry_space_group_name_H-M   'P 1'
_cell_length_a   16.91426460
_cell_length_b   16.90793580
_cell_length_c   16.91980163
_cell_angle_alpha   90.10168052
_cell_angle_beta   90.08041239
_cell_angle_gamma   90.03470907
_symmetry_Int_Tables_number   1
_chemical_formula_structural   V79Zn79O256
_chemical_formula_sum   'V79 Zn79 O256'
_cell_volume   4838.80126480
_cell_formula_units_Z   1
loop_
 _symmetry_equiv_pos_site_id
 _symmetry_equiv_pos_as_xyz
  1  'x, y, z'
loop_
 _atom_site_type_symbol
 _atom_site_label
 _atom_site_symmetry_multiplicity
 _atom_site_fract_x
 _atom_site_fract_y
 _atom_site_fract_z
 _atom_site_occupancy
  V  V0  1  0.25149686  0.49934756  0.24070427  1
  V  V1  1  0.74565532  0.23431555  -0.00409106  1
  V  V2  1  0.73318288  0.37733308  0.13586250  1
  V  V3  1  0.86863014  -0.00893139  0.37193845  1
  V  V4  1  0.87992224  0.13291196  0.75484305  1
  V  V5  1  0.37928423  0.12883966  0.24802683  1
  V  V6  1  0.00055598  0.37656365  0.37680013  1
  V  V7  1  -0.00184710  0.37160163  0.86654580  1
  V  V8  1  0.11803206  0.75007159  0.85760545  1
  V  V9  1  0.00503297  0.74584044  0.24562817  1
  V  V10  1  0.49421547  0.23287574  0.74891234  1
  V  V11  1  0.24661212  0.74861309  0.00186364  1
  V  V12  1  0.12806556  0.25203996  0.37600778  1
  V  V13  1  0.11550590  0.50414310  0.12238760  1
  V  V14  1  0.62639511  0.50562624  0.62663074  1
  V  V15  1  0.75416208  0.87884670  0.12882032  1
  V  V16  1  0.25315685  0.87050028  0.12748835  1
  V  V17  1  0.62561411  0.23237785  0.87747622  1
  V  V18  1  0.61707890  0.63990363  0.50293663  1
  V  V19  1  -0.00083185  0.50399571  0.50550071  1
  V  V20  1  0.63335395  0.86414114  0.75983531  1
  V  V21  1  -0.00283174  -0.00518769  0.49626746  1
  V  V22  1  0.13143158  0.50527558  0.63221648  1
  V  V23  1  0.52659845  0.62981047  0.12823362  1
  V  V24  1  0.37875599  0.24040204  0.62228979  1
  V  V25  1  0.87360261  0.37780716  0.50284149  1
  V  V26  1  0.49245765  0.38267771  0.87495435  1
  V  V27  1  0.25472200  0.26426594  0.50304813  1
  V  V28  1  0.49580441  0.49308380  0.50326468  1
  V  V29  1  0.11108744  0.62566603  0.00131703  1
  V  V30  1  0.37950639  -0.00036734  0.86831630  1
  V  V31  1  0.37801033  0.87316359  -0.00087775  1
  V  V32  1  0.12348551  -0.00702710  0.62907114  1
  V  V33  1  0.85551857  0.50021261  0.86505829  1
  V  V34  1  0.74472296  0.37779240  0.62951115  1
  V  V35  1  0.37429572  0.49880191  0.37543900  1
  V  V36  1  0.75464183  0.86769325  0.61080833  1
  V  V37  1  0.62840428  0.88139577  0.25221787  1
  V  V38  1  0.87112220  0.61581603  0.25767467  1
  V  V39  1  0.75412999  0.00802926  0.75549225  1
  V  V40  1  0.86585114  0.72560990  0.11529687  1
  V  V41  1  0.62382643  0.12520881  0.49894304  1
  V  V42  1  0.87427669  0.24870776  0.12528540  1
  V  V43  1  0.12072983  0.24759044  0.86712266  1
  V  V44  1  0.13136945  0.12337047  -0.00143306  1
  V  V45  1  0.00445123  0.87186961  0.86005336  1
  V  V46  1  0.00095849  0.13346555  0.62520563  1
  V  V47  1  0.25169206  0.12505405  0.37705067  1
  V  V48  1  0.00290687  0.24972799  0.25040554  1
  V  V49  1  0.11937733  0.63497276  0.49550779  1
  V  V50  1  0.37819571  -0.00374331  0.38143564  1
  V  V51  1  0.87543738  0.87183196  0.00337252  1
  V  V52  1  0.25917614  0.61688518  0.86403418  1
  V  V53  1  0.26933460  0.75274675  0.49427137  1
  V  V54  1  0.50207165  0.75359278  0.25296475  1
  V  V55  1  0.88920553  0.75886193  0.60784027  1
  V  V56  1  0.01647283  0.87151696  0.36698116  1
  V  V57  1  0.49861650  0.00282205  0.50605524  1
  V  V58  1  0.87058407  0.12181565  0.25220060  1
  V  V59  1  0.25376258  0.25836243  0.00526172  1
  V  V60  1  0.12705589  0.12604788  0.49999799  1
  V  V61  1  0.25028294  -0.00202786  0.74917288  1
  V  V62  1  0.00347107  -0.00407072  -0.00048842  1
  V  V63  1  0.87246769  0.37261969  0.00053604  1
  V  V64  1  0.87363129  0.64530188  0.73612917  1
  V  V65  1  0.50009104  0.12926506  0.11592473  1
  V  V66  1  0.50291884  0.87573563  0.38143396  1
  V  V67  1  0.50632462  0.50281159  0.01745159  1
  V  V68  1  0.74884477  0.24850113  0.49872059  1
  V  V69  1  0.24715374  -0.00633519  0.25279992  1
  V  V70  1  0.50442661  0.37046211  0.36180244  1
  V  V71  1  0.37616360  0.62835581  0.23878681  1
  V  V72  1  0.25843447  0.86990302  0.62284066  1
  V  V73  1  0.62630508  0.00459272  0.62557367  1
  V  V74  1  0.13074919  0.37560825  0.24225356  1
  V  V75  1  0.62410366  0.00098567  0.11865663  1
  V  V76  1  0.12648681  -0.00897066  0.12932773  1
  V  V77  1  0.74212192  0.63478539  0.38611384  1
  V  V78  1  0.00214529  0.12419722  0.12600288  1
  Zn  Zn79  1  0.47850588  0.81994167  0.83029239  1
  Zn  Zn80  1  0.12810626  0.37424478  0.75028072  1
  Zn  Zn81  1  0.36733633  0.39040879  0.00397158  1
  Zn  Zn82  1  0.86126594  0.49655524  0.37643198  1
  Zn  Zn83  1  0.26126726  0.38657672  0.64506838  1
  Zn  Zn84  1  0.87873241  0.25450849  0.62894281  1
  Zn  Zn85  1  0.62660998  0.37650963  0.75795379  1
  Zn  Zn86  1  0.62916272  0.26391724  0.35767232  1
  Zn  Zn87  1  -0.00806319  0.50359175  -0.00074102  1
  Zn  Zn88  1  0.37443657  0.26065958  0.13290335  1
  Zn  Zn89  1  0.25403612  0.12696845  0.86600676  1
  Zn  Zn90  1  0.87496022  0.00397135  0.87866057  1
  Zn  Zn91  1  0.50641972  -0.00222414  -0.00575348  1
  Zn  Zn92  1  0.75035859  0.12579944  0.36961654  1
  Zn  Zn93  1  0.24934105  0.63246797  0.37057275  1
  Zn  Zn94  1  0.19073702  0.18355977  0.18770749  1
  Zn  Zn95  1  0.19353306  0.18280814  0.68478953  1
  Zn  Zn96  1  0.18839080  0.68356174  0.18458913  1
  Zn  Zn97  1  0.19083182  0.68452313  0.68039706  1
  Zn  Zn98  1  0.68400595  0.19452001  0.18204041  1
  Zn  Zn99  1  0.68674532  0.18985757  0.68777576  1
  Zn  Zn100  1  0.69415579  0.69417674  0.20101397  1
  Zn  Zn101  1  0.69426924  0.67876578  0.80515284  1
  Zn  Zn102  1  0.31477583  0.31561945  0.31524317  1
  Zn  Zn103  1  0.31067929  0.31144421  0.81439779  1
  Zn  Zn104  1  0.31792270  0.81175667  0.31223929  1
  Zn  Zn105  1  0.30343082  0.80789590  0.80782271  1
  Zn  Zn106  1  0.81422122  0.31176276  0.31345636  1
  Zn  Zn107  1  0.80835242  0.31194400  0.81433290  1
  Zn  Zn108  1  0.81502673  0.80834578  0.30994229  1
  Zn  Zn109  1  0.81825567  0.82113098  0.80742198  1
  Zn  Zn110  1  0.18519833  0.44591595  0.43484610  1
  Zn  Zn111  1  0.18461513  0.43853907  0.93227229  1
  Zn  Zn112  1  0.18776395  0.93501657  0.44029479  1
  Zn  Zn113  1  0.18889294  0.93334494  0.93517942  1
  Zn  Zn114  1  0.68372511  0.44502428  0.43522662  1
  Zn  Zn115  1  0.67918222  0.42730598  0.94477063  1
  Zn  Zn116  1  0.68420010  0.93978507  0.43585480  1
  Zn  Zn117  1  0.69471278  0.93642101  0.93988269  1
  Zn  Zn118  1  0.31505690  0.05972496  0.06198454  1
  Zn  Zn119  1  0.31220054  0.06383688  0.56624264  1
  Zn  Zn120  1  0.31214344  0.56251926  0.05505254  1
  Zn  Zn121  1  0.31183841  0.56759483  0.56278084  1
  Zn  Zn122  1  0.81385337  0.05762087  0.06753271  1
  Zn  Zn123  1  0.81463248  0.06211604  0.56370277  1
  Zn  Zn124  1  0.81266365  0.55151390  0.07136224  1
  Zn  Zn125  1  0.80556773  0.57216291  0.56751989  1
  Zn  Zn126  1  0.43889147  0.43712931  0.18519210  1
  Zn  Zn127  1  0.45550836  0.40730050  0.67075322  1
  Zn  Zn128  1  0.43839983  0.94294809  0.18859630  1
  Zn  Zn129  1  0.44483784  0.91471359  0.68475122  1
  Zn  Zn130  1  0.93572380  0.43535146  0.18781188  1
  Zn  Zn131  1  0.94109324  0.44180785  0.68864579  1
  Zn  Zn132  1  0.93970291  0.93553726  0.19037600  1
  Zn  Zn133  1  0.93421517  0.94144772  0.68155745  1
  Zn  Zn134  1  0.06210196  0.06241065  0.31363304  1
  Zn  Zn135  1  0.06328913  0.06133457  0.81004503  1
  Zn  Zn136  1  0.06159267  0.56236167  0.31694594  1
  Zn  Zn137  1  0.04928003  0.56688920  0.81660979  1
  Zn  Zn138  1  0.58232742  0.08874182  0.29301282  1
  Zn  Zn139  1  0.55973275  0.05236654  0.81025416  1
  Zn  Zn140  1  0.56643124  0.55995803  0.31713249  1
  Zn  Zn141  1  0.54735918  0.56146478  0.80231631  1
  Zn  Zn142  1  0.43839863  0.18666912  0.43722499  1
  Zn  Zn143  1  0.43540052  0.18401594  0.93373305  1
  Zn  Zn144  1  0.44158181  0.68400407  0.43318051  1
  Zn  Zn145  1  0.43329839  0.67872227  0.94953356  1
  Zn  Zn146  1  0.93736823  0.18725530  0.43857609  1
  Zn  Zn147  1  0.93950562  0.18792977  0.93968025  1
  Zn  Zn148  1  0.93801120  0.68964593  0.43150105  1
  Zn  Zn149  1  0.82274022  0.68750947  0.93652367  1
  Zn  Zn150  1  0.06239614  0.31242923  0.05888478  1
  Zn  Zn151  1  0.06869928  0.31880281  0.56448111  1
  Zn  Zn152  1  0.05618210  0.80407500  0.06396776  1
  Zn  Zn153  1  0.06534461  0.81642231  0.55694804  1
  Zn  Zn154  1  0.55846520  0.31014426  0.05661666  1
  Zn  Zn155  1  0.56213733  0.31180760  0.55575562  1
  Zn  Zn156  1  0.56283353  0.81138519  0.06607347  1
  Zn  Zn157  1  0.55608395  0.81691389  0.57889730  1
  O  O158  1  0.12190003  0.11390972  0.11771872  1
  O  O159  1  0.11857849  0.11588270  0.61956471  1
  O  O160  1  0.12777397  0.61463096  0.11443571  1
  O  O161  1  0.12935291  0.61536901  0.60866304  1
  O  O162  1  0.60964183  0.11433916  0.12678304  1
  O  O163  1  0.63222275  0.11541148  0.61379321  1
  O  O164  1  0.62517415  0.63210624  0.12891984  1
  O  O165  1  0.62598507  0.60816050  0.61135853  1
  O  O166  1  0.38515866  0.39027565  0.36930069  1
  O  O167  1  0.39069893  0.35938582  0.88449154  1
  O  O168  1  0.38593361  0.88851143  0.37008171  1
  O  O169  1  0.37441626  0.88076070  0.88895068  1
  O  O170  1  0.88006265  0.37655921  0.38640435  1
  O  O171  1  0.87936558  0.37218346  0.88306162  1
  O  O172  1  0.88110573  0.88868836  0.36718310  1
  O  O173  1  0.89129179  0.88087149  0.88381360  1
  O  O174  1  0.25624313  0.00252885  0.37178153  1
  O  O175  1  0.25540423  -0.00600774  0.86384396  1
  O  O176  1  0.25897281  0.50351942  0.36493033  1
  O  O177  1  0.24261293  0.51795457  0.87717709  1
  O  O178  1  0.76692276  0.00130768  0.37952873  1
  O  O179  1  0.75463700  0.00195965  0.85932780  1
  O  O180  1  0.74840155  0.51983892  0.38183644  1
  O  O181  1  0.75741507  0.48359529  0.88134670  1
  O  O182  1  0.24124488  0.50365775  0.13587587  1
  O  O183  1  0.23728942  0.50051260  0.61898379  1
  O  O184  1  0.24353753  0.99298042  0.13326529  1
  O  O185  1  0.24112406  0.99341872  0.62700488  1
  O  O186  1  0.74761454  0.47597599  0.11821603  1
  O  O187  1  0.73529506  0.49104897  0.61488991  1
  O  O188  1  0.74085888  0.98968798  0.12470244  1
  O  O189  1  0.74552957  0.99671653  0.63061157  1
  O  O190  1  0.00878391  0.36924358  0.25595050  1
  O  O191  1  0.00519452  0.37459207  0.76165883  1
  O  O192  1  -0.00204142  0.86293338  0.25801474  1
  O  O193  1  -0.00240731  0.88727690  0.76274934  1
  O  O194  1  0.50179969  0.37979579  0.26247626  1
  O  O195  1  0.50200861  0.36190931  0.76349603  1
  O  O196  1  0.50449171  0.87101897  0.25464382  1
  O  O197  1  0.53033184  0.89726401  0.76441144  1
  O  O198  1  0.48399992  0.11214277  0.23532642  1
  O  O199  1  0.50298787  0.13399848  0.74830995  1
  O  O200  1  0.49896848  0.63143551  0.24227201  1
  O  O201  1  0.47363449  0.62492483  0.72999726  1
  O  O202  1  0.99682999  0.13090386  0.24512775  1
  O  O203  1  0.98901061  0.11570116  0.73796978  1
  O  O204  1  0.98699469  0.64003603  0.27329546  1
  O  O205  1  0.96972625  0.61054410  0.75016107  1
  O  O206  1  0.35635804  0.24177995  -0.00240444  1
  O  O207  1  0.36868493  0.24419712  0.51166792  1
  O  O208  1  0.35985388  0.76284200  -0.00455154  1
  O  O209  1  0.36797448  0.74398269  0.50119724  1
  O  O210  1  0.86772476  0.25282709  0.00420994  1
  O  O211  1  0.86857282  0.26036489  0.50229596  1
  O  O212  1  0.89331067  0.76939242  0.00912576  1
  O  O213  1  0.88012545  0.75110996  0.50856888  1
  O  O214  1  0.13416891  0.24650403  0.49596648  1
  O  O215  1  0.13230884  0.24073474  0.99500895  1
  O  O216  1  0.12457867  0.73682480  0.49997404  1
  O  O217  1  0.12919332  0.74235015  0.99893024  1
  O  O218  1  0.63107690  0.24048306  0.49569605  1
  O  O219  1  0.62938114  0.24697324  0.98581900  1
  O  O220  1  0.60748850  0.73777827  0.51550616  1
  O  O221  1  0.58797023  0.76079846  0.96253577  1
  O  O222  1  0.49747416  0.23245817  0.11809897  1
  O  O223  1  0.49166387  0.25651181  0.63570532  1
  O  O224  1  0.50434461  0.73623339  0.13432334  1
  O  O225  1  0.47196969  0.80739139  0.64918516  1
  O  O226  1  0.99612173  0.24366722  0.12941382  1
  O  O227  1  1.00304772  0.23748608  0.61805624  1
  O  O228  1  0.98241546  0.75209846  0.13780404  1
  O  O229  1  0.98839093  0.76721762  0.62286582  1
  O  O230  1  0.00797745  0.25594914  0.37177841  1
  O  O231  1  0.00982497  0.25758653  0.88249359  1
  O  O232  1  -0.00430996  0.76658882  0.36610603  1
  O  O233  1  0.01015125  0.76510581  0.87098645  1
  O  O234  1  0.49542653  0.26823242  0.38078073  1
  O  O235  1  0.50679435  0.24750110  0.86650964  1
  O  O236  1  0.49536899  0.76503299  0.36807424  1
  O  O237  1  0.52243145  0.75128574  0.91625658  1
  O  O238  1  0.24457571  0.13143142  0.49474469  1
  O  O239  1  0.23857173  0.12501353  0.99874314  1
  O  O240  1  0.24397193  0.64124245  0.50070253  1
  O  O241  1  0.24154439  0.63524496  0.99280019  1
  O  O242  1  0.74777407  0.13626050  0.50188704  1
  O  O243  1  0.75795407  0.13463499  1.00263299  1
  O  O244  1  0.73386394  0.62970273  0.49547484  1
  O  O245  1  0.80771269  0.65804391  1.04276082  1
  O  O246  1  0.24899697  0.36173191  -0.00616547  1
  O  O247  1  0.24529062  0.36463152  0.49641363  1
  O  O248  1  0.25291398  0.86737133  0.00786228  1
  O  O249  1  0.24343757  0.86067592  0.50655359  1
  O  O250  1  0.75721971  0.35924695  0.00797381  1
  O  O251  1  0.75639145  0.36968648  0.50501247  1
  O  O252  1  0.76601426  0.87928106  0.01082977  1
  O  O253  1  0.74470095  0.88198916  0.51174576  1
  O  O254  1  0.12995689  0.49619313  0.24373556  1
  O  O255  1  0.11557556  0.51205022  0.73248020  1
  O  O256  1  0.13549782  1.00597732  0.24138194  1
  O  O257  1  0.13204508  1.00191812  0.73794978  1
  O  O258  1  0.63862184  0.51369497  0.24812038  1
  O  O259  1  0.61126387  0.49491158  0.72871737  1
  O  O260  1  0.61827976  0.99013757  0.23500948  1
  O  O261  1  0.64221830  1.00809138  0.74244498  1
  O  O262  1  0.36465410  0.00646862  0.25879763  1
  O  O263  1  0.37071311  -0.01767616  0.76328354  1
  O  O264  1  0.36781511  0.50662597  0.25359402  1
  O  O265  1  0.41044005  0.58957020  0.69929822  1
  O  O266  1  0.88552261  0.00903583  0.26285504  1
  O  O267  1  0.86601125  0.00984679  0.74816914  1
  O  O268  1  0.88718085  0.51087829  0.25980291  1
  O  O269  1  0.86767402  0.48203488  0.76520113  1
  O  O270  1  0.12034499  0.37158902  0.36559187  1
  O  O271  1  0.11384479  0.36497817  0.87717739  1
  O  O272  1  0.11565781  0.87913939  0.36804966  1
  O  O273  1  0.11507332  0.86395096  0.87822180  1
  O  O274  1  0.61085290  0.37628105  0.37904292  1
  O  O275  1  0.60911125  0.36197791  0.87573906  1
  O  O276  1  0.61384379  0.88764702  0.36299484  1
  O  O277  1  0.64808183  0.87437863  0.85934531  1
  O  O278  1  0.38201169  0.12287360  0.13117379  1
  O  O279  1  0.37362345  0.13927171  0.62717319  1
  O  O280  1  0.37702228  0.62014042  0.13747689  1
  O  O281  1  0.37826588  0.63125573  0.63877097  1
  O  O282  1  0.88360993  0.12725246  0.13239277  1
  O  O283  1  0.88568778  0.12739943  0.63167870  1
  O  O284  1  0.88452860  0.61765056  0.15223423  1
  O  O285  1  0.87372357  0.64506571  0.62525133  1
  O  O286  1  0.24760115  0.24436228  0.10899548  1
  O  O287  1  0.25940789  0.24993762  0.61800665  1
  O  O288  1  0.24229475  0.76032547  0.11685020  1
  O  O289  1  0.24852610  0.76267532  0.61546179  1
  O  O290  1  0.75489841  0.25323241  0.11509216  1
  O  O291  1  0.74909705  0.25923525  0.61299415  1
  O  O292  1  0.76276342  0.76589956  0.13604000  1
  O  O293  1  0.75967299  0.76912584  0.62233303  1
  O  O294  1  0.24799614  0.24538451  0.38349859  1
  O  O295  1  0.23960186  0.24290674  0.88717607  1
  O  O296  1  0.25609808  0.75247603  0.38861486  1
  O  O297  1  0.23215678  0.74987263  0.88343138  1
  O  O298  1  0.74876114  0.24948580  0.38719628  1
  O  O299  1  0.73365410  0.25167358  0.87970648  1
  O  O300  1  0.75303544  0.73514835  0.37287379  1
  O  O301  1  0.76124561  0.74745103  0.86855323  1
  O  O302  1  0.00925987  0.11499508  0.00522682  1
  O  O303  1  0.00684624  0.11738813  0.50493444  1
  O  O304  1  0.01190656  0.62378107  -0.00390950  1
  O  O305  1  0.01116723  0.61858050  0.49187474  1
  O  O306  1  0.48977188  0.11689114  0.01253214  1
  O  O307  1  0.51018432  0.11437370  0.49551194  1
  O  O308  1  0.49964024  0.61785459  0.02236722  1
  O  O309  1  0.51151906  0.61258763  0.49197779  1
  O  O310  1  0.49827080  0.38900583  0.49143828  1
  O  O311  1  0.49962002  0.38628147  0.99177885  1
  O  O312  1  0.51072830  0.88814223  0.48944110  1
  O  O313  1  0.47942323  0.87663973  1.01329389  1
  O  O314  1  0.99171829  0.38056568  0.49766961  1
  O  O315  1  0.98580299  0.37174984  0.99412253  1
  O  O316  1  1.00595854  0.88621132  0.48250206  1
  O  O317  1  0.99816569  0.88584529  1.00061905  1
  O  O318  1  0.49458404  0.49265182  0.38205604  1
  O  O319  1  0.49236252  0.48401062  0.86952065  1
  O  O320  1  0.49170748  0.99474284  0.38375340  1
  O  O321  1  0.48538479  0.99948662  0.87911563  1
  O  O322  1  0.99986751  0.49193025  0.38946981  1
  O  O323  1  0.99074304  0.48489076  0.88053542  1
  O  O324  1  0.99664233  0.99039737  0.37719062  1
  O  O325  1  1.00764522  0.99002060  0.88612250  1
  O  O326  1  0.00903765  0.00219719  0.11976696  1
  O  O327  1  0.00506223  0.00556331  0.61407400  1
  O  O328  1  0.01102132  0.49587086  0.12161427  1
  O  O329  1  0.00936288  0.49641041  0.61208457  1
  O  O330  1  0.50597706  0.00502425  0.11870617  1
  O  O331  1  0.51204343  -0.00832655  0.61582628  1
  O  O332  1  0.50987339  0.51130588  0.12391477  1
  O  O333  1  0.50605890  0.49140550  0.61111413  1
  O  O334  1  0.23956859  0.38524911  0.25612690  1
  O  O335  1  0.24171996  0.37607713  0.75705192  1
  O  O336  1  0.25710712  0.88458075  0.24312119  1
  O  O337  1  0.24891240  0.88108039  0.73309496  1
  O  O338  1  0.75162828  0.36243645  0.23527478  1
  O  O339  1  0.74435334  0.36475043  0.73341340  1
  O  O340  1  0.73841575  0.87248186  0.24506108  1
  O  O341  1  0.74981832  0.89241910  0.73898988  1
  O  O342  1  0.25588498  0.11281886  0.25612552  1
  O  O343  1  0.25189978  0.10471678  0.74802754  1
  O  O344  1  0.25772507  0.61941360  0.25135602  1
  O  O345  1  0.24872327  0.63458316  0.76487245  1
  O  O346  1  0.76868434  0.12810851  0.24686067  1
  O  O347  1  0.76595825  0.11737149  0.74077584  1
  O  O348  1  0.76348614  0.62579239  0.26288424  1
  O  O349  1  0.77493924  0.61892489  0.74580953  1
  O  O350  1  0.37158281  0.11665422  0.36766859  1
  O  O351  1  0.36904267  0.10403799  0.87972941  1
  O  O352  1  0.37844623  0.61410267  0.36089686  1
  O  O353  1  0.35871716  0.62985656  0.88135099  1
  O  O354  1  0.87732925  0.11712203  0.36730208  1
  O  O355  1  0.88746765  0.12164953  0.85920812  1
  O  O356  1  0.86344497  0.62220071  0.37501429  1
  O  O357  1  0.87006452  0.60281570  0.87119614  1
  O  O358  1  0.12093178  0.38188150  0.13618823  1
  O  O359  1  0.12829652  0.39100038  0.62909621  1
  O  O360  1  0.13288642  0.88538671  0.11890867  1
  O  O361  1  0.13200316  0.88874000  0.61639413  1
  O  O362  1  0.63436798  0.36165518  0.12385983  1
  O  O363  1  0.63080282  0.38301825  0.61941417  1
  O  O364  1  0.63315871  0.87828019  0.13044093  1
  O  O365  1  0.63914660  0.88713856  0.63540594  1
  O  O366  1  0.12457904  0.25637872  0.25420280  1
  O  O367  1  0.13043523  0.24044640  0.76486528  1
  O  O368  1  0.10440465  0.73952516  0.24014543  1
  O  O369  1  0.12592118  0.74702773  0.75963387  1
  O  O370  1  0.61813536  0.19837322  0.26973232  1
  O  O371  1  0.61498588  0.24891369  0.75891241  1
  O  O372  1  0.61253256  0.76434333  0.24896344  1
  O  O373  1  0.63223436  0.76626010  0.74460664  1
  O  O374  1  0.36218155  0.23390000  0.24873719  1
  O  O375  1  0.38759815  0.24609834  0.74521367  1
  O  O376  1  0.38872369  0.74150871  0.25322359  1
  O  O377  1  0.39938524  0.75892815  0.78195566  1
  O  O378  1  0.88467625  0.24219262  0.24656282  1
  O  O379  1  0.87108488  0.23637319  0.74829861  1
  O  O380  1  0.87953778  0.73640351  0.24194701  1
  O  O381  1  0.87828428  0.74921643  0.73724618  1
  O  O382  1  0.38724680  0.51237887  0.49133535  1
  O  O383  1  0.39498694  0.50401120  1.00246410  1
  O  O384  1  0.38341665  1.00993942  0.49099947  1
  O  O385  1  0.36526002  0.98574915  0.98815700  1
  O  O386  1  0.88021901  0.49252491  0.50538236  1
  O  O387  1  0.87260074  0.48557097  0.99199030  1
  O  O388  1  0.88821032  1.00877547  0.48496784  1
  O  O389  1  0.88816673  0.99532510  1.00001182  1
  O  O390  1  0.12186727  0.00427098  0.00738280  1
  O  O391  1  0.11736469  0.00671371  0.50473197  1
  O  O392  1  0.12420323  0.50681350  0.00805349  1
  O  O393  1  0.11753078  0.50699516  0.50776093  1
  O  O394  1  0.62356556  -0.01081497  0.01192084  1
  O  O395  1  0.61922116  0.00516788  0.51019194  1
  O  O396  1  0.60379994  0.50121947  -0.00895452  1
  O  O397  1  0.61064285  0.50489528  0.50619453  1
  O  O398  1  0.38211828  0.37085899  0.11651319  1
  O  O399  1  0.36889393  0.35510693  0.62742921  1
  O  O400  1  0.36055586  0.88480379  0.11493787  1
  O  O401  1  0.35419242  0.89154217  0.61303329  1
  O  O402  1  0.87186291  0.36644118  0.11756258  1
  O  O403  1  0.86714225  0.37546344  0.61747813  1
  O  O404  1  0.86828953  0.87864162  0.12082612  1
  O  O405  1  0.86629397  0.87153883  0.62292765  1
  O  O406  1  0.13108912  0.13169102  0.37924577  1
  O  O407  1  0.12324065  0.12869092  0.88499104  1
  O  O408  1  0.13332254  0.61588098  0.39155509  1
  O  O409  1  0.12499333  0.63789258  0.88010684  1
  O  O410  1  0.63652098  0.10521158  0.39531662  1
  O  O411  1  0.61975025  0.13314993  0.87257972  1
  O  O412  1  0.63099271  0.62954592  0.38938971  1
  O  O413  1  0.60921855  0.63173689  0.85678058  1
