# generated using pymatgen
data_V79Zn79O256
_symmetry_space_group_name_H-M   'P 1'
_cell_length_a   16.91827590
_cell_length_b   16.90888622
_cell_length_c   16.90398998
_cell_angle_alpha   89.98246794
_cell_angle_beta   90.12952960
_cell_angle_gamma   90.16416325
_symmetry_Int_Tables_number   1
_chemical_formula_structural   V79Zn79O256
_chemical_formula_sum   'V79 Zn79 O256'
_cell_volume   4835.67850564
_cell_formula_units_Z   1
loop_
 _symmetry_equiv_pos_site_id
 _symmetry_equiv_pos_as_xyz
  1  'x, y, z'
loop_
 _atom_site_type_symbol
 _atom_site_label
 _atom_site_symmetry_multiplicity
 _atom_site_fract_x
 _atom_site_fract_y
 _atom_site_fract_z
 _atom_site_occupancy
  V  V0  1  0.74010962  0.87357844  0.62968788  1
  V  V1  1  0.64749419  0.50790797  0.12932879  1
  V  V2  1  0.62452208  0.00161988  0.12383068  1
  V  V3  1  0.62930401  0.63320395  0.00691230  1
  V  V4  1  0.75079022  0.25224299  0.50314874  1
  V  V5  1  0.25710193  0.24116035  0.49642187  1
  V  V6  1  0.12127918  0.12564903  -0.00231977  1
  V  V7  1  0.25184205  0.62808601  0.87970298  1
  V  V8  1  0.49657325  0.25351792  0.74536937  1
  V  V9  1  0.38276451  0.74686450  0.63034375  1
  V  V10  1  0.87559100  0.88878596  0.50194279  1
  V  V11  1  0.50493094  0.50308494  0.50576183  1
  V  V12  1  0.61965577  0.12648610  0.50089355  1
  V  V13  1  0.50271345  0.37642228  0.87680750  1
  V  V14  1  0.25318431  0.87513352  0.63425608  1
  V  V15  1  0.62808062  0.62683103  0.50108080  1
  V  V16  1  0.37317710  0.38266610  0.49681224  1
  V  V17  1  0.35931145  -0.00386287  0.36490940  1
  V  V18  1  0.24336004  0.60683556  0.38289226  1
  V  V19  1  0.12180668  0.49295067  0.11989073  1
  V  V20  1  0.49097783  0.13352689  0.61910642  1
  V  V21  1  0.25575667  0.37095890  0.12675692  1
  V  V22  1  0.60171827  0.75170444  0.37523080  1
  V  V23  1  -0.00376834  0.87001398  0.87031139  1
  V  V24  1  0.74998241  0.00117729  0.25092856  1
  V  V25  1  0.63499818  0.38126289  0.24305576  1
  V  V26  1  0.38124131  0.87204099  0.49773211  1
  V  V27  1  0.86979974  0.00395293  0.87269290  1
  V  V28  1  0.00378291  0.63684006  0.13223572  1
  V  V29  1  0.62124310  0.25460810  0.37295432  1
  V  V30  1  0.11097332  0.12183925  0.50271528  1
  V  V31  1  0.11922364  0.61332701  -0.00606858  1
  V  V32  1  0.49744129  0.38756600  0.37318631  1
  V  V33  1  0.86936531  0.85967287  0.00186931  1
  V  V34  1  0.51003886  0.88269030  0.86053268  1
  V  V35  1  0.11225586  0.36429075  0.25009796  1
  V  V36  1  0.49724514  0.00044616  0.49093573  1
  V  V37  1  0.11084710  0.37042516  0.75110511  1
  V  V38  1  0.87957496  -0.00112644  0.37497717  1
  V  V39  1  0.11241701  0.25268949  0.87146253  1
  V  V40  1  0.25560227  0.25029611  0.00263498  1
  V  V41  1  0.37413583  0.13025450  0.74805146  1
  V  V42  1  0.74893531  0.38385424  0.62058455  1
  V  V43  1  0.11887835  0.74837182  0.87354448  1
  V  V44  1  0.37544316  -0.00109457  0.88196774  1
  V  V45  1  0.49167540  0.13246943  0.12735521  1
  V  V46  1  0.61558494  0.87450741  0.25915965  1
  V  V47  1  0.75436154  0.75666975  0.48285333  1
  V  V48  1  0.62594344  0.38642437  0.74570464  1
  V  V49  1  0.50518690  0.50487110  0.01155778  1
  V  V50  1  0.49775089  -0.00159145  -0.00328056  1
  V  V51  1  0.25566946  0.36993642  0.62422783  1
  V  V52  1  0.11266752  0.24632688  0.37403890  1
  V  V53  1  0.75289823  0.62507436  0.88048939  1
  V  V54  1  -0.00590794  -0.00202148  0.00115602  1
  V  V55  1  0.25611423  0.48958677  0.25724968  1
  V  V56  1  0.63307461  0.13304053  -0.00172175  1
  V  V57  1  -0.00451852  0.13478575  0.12404205  1
  V  V58  1  0.25013295  0.12617927  0.87612171  1
  V  V59  1  0.38357119  0.62672987  0.75102883  1
  V  V60  1  0.88533286  0.13052006  0.74197204  1
  V  V61  1  0.24908145  0.00221713  0.75087730  1
  V  V62  1  0.88686010  0.25391869  0.62326635  1
  V  V63  1  0.89353161  0.49736311  0.87456527  1
  V  V64  1  0.87582061  0.13333275  0.24914328  1
  V  V65  1  0.63276784  0.75501908  0.87092036  1
  V  V66  1  0.25539823  0.49395674  0.75116186  1
  V  V67  1  0.12279120  -0.01260644  0.13552458  1
  V  V68  1  0.87161896  0.37431999  -0.01042117  1
  V  V69  1  0.11671928  0.51391178  0.62219902  1
  V  V70  1  0.75365012  0.86304228  0.12433207  1
  V  V71  1  0.37840030  0.63942412  0.25176462  1
  V  V72  1  0.11505279  0.00334819  0.62299622  1
  V  V73  1  0.63477417  0.25528260  0.87734498  1
  V  V74  1  0.84721297  0.25631842  0.11847011  1
  V  V75  1  0.24684790  0.73889188  0.50407510  1
  V  V76  1  0.37733037  0.37650934  0.00465965  1
  V  V77  1  0.88196420  0.63903781  0.74584109  1
  V  V78  1  0.38084350  0.50076501  0.87696655  1
  Zn  Zn79  1  0.61595080  -0.00420814  0.63706710  1
  Zn  Zn80  1  0.03552631  0.69346982  0.67548261  1
  Zn  Zn81  1  0.11458860  0.74424206  0.38415411  1
  Zn  Zn82  1  0.30199656  0.79488767  0.04571853  1
  Zn  Zn83  1  0.74788739  0.12762542  0.37565630  1
  Zn  Zn84  1  0.48452741  0.26174386  0.23771148  1
  Zn  Zn85  1  0.01946999  0.89036955  0.37057968  1
  Zn  Zn86  1  0.51414833  0.61884651  0.63207805  1
  Zn  Zn87  1  0.75146091  0.13205134  0.87009119  1
  Zn  Zn88  1  0.11238066  0.87009006  0.74370882  1
  Zn  Zn89  1  0.34453257  0.13684810  0.26273241  1
  Zn  Zn90  1  0.74189896  0.00504267  0.74731491  1
  Zn  Zn91  1  0.75217652  0.50633953  0.74493356  1
  Zn  Zn92  1  0.51215827  0.75806844  0.74550643  1
  Zn  Zn93  1  0.85344870  0.60368221  0.23949429  1
  Zn  Zn94  1  0.18042360  0.18234630  0.18656872  1
  Zn  Zn95  1  0.18462891  0.18863603  0.68496703  1
  Zn  Zn96  1  0.22573769  0.66308022  0.16416836  1
  Zn  Zn97  1  0.20067482  0.69211990  0.70171940  1
  Zn  Zn98  1  0.67930747  0.18744256  0.19146372  1
  Zn  Zn99  1  0.68913895  0.18991004  0.68909988  1
  Zn  Zn100  1  0.74105715  0.72204797  0.25951877  1
  Zn  Zn101  1  0.69947039  0.69304550  0.68569995  1
  Zn  Zn102  1  0.30822215  0.31268471  0.31958195  1
  Zn  Zn103  1  0.31234414  0.31191991  0.81892342  1
  Zn  Zn104  1  0.31217312  0.80598421  0.32223647  1
  Zn  Zn105  1  0.29770996  0.82960399  0.85397637  1
  Zn  Zn106  1  0.81104720  0.31366897  0.31052259  1
  Zn  Zn107  1  0.81652467  0.31613636  0.80336058  1
  Zn  Zn108  1  0.94417273  0.75424057  0.29967923  1
  Zn  Zn109  1  0.81072505  0.81330646  0.81351896  1
  Zn  Zn110  1  0.16144557  0.43311394  0.44870625  1
  Zn  Zn111  1  0.18834343  0.43486901  0.93484432  1
  Zn  Zn112  1  0.19010486  0.93383468  0.44298141  1
  Zn  Zn113  1  0.18464434  0.93401720  0.95138125  1
  Zn  Zn114  1  0.68746393  0.43945501  0.43597970  1
  Zn  Zn115  1  0.69420041  0.44002496  0.93962913  1
  Zn  Zn116  1  0.68678348  0.94117335  0.43655813  1
  Zn  Zn117  1  0.68855948  0.93889895  0.94026719  1
  Zn  Zn118  1  0.28973487  0.07119922  0.09471989  1
  Zn  Zn119  1  0.31262939  0.05971400  0.56022069  1
  Zn  Zn120  1  0.34634699  0.60333913  0.04320913  1
  Zn  Zn121  1  0.31609655  0.55669416  0.56698665  1
  Zn  Zn122  1  0.81164705  0.06295734  0.06302307  1
  Zn  Zn123  1  0.80628573  0.06485418  0.56730382  1
  Zn  Zn124  1  0.82113012  0.56492850  0.05637978  1
  Zn  Zn125  1  0.81272221  0.57961063  0.56121373  1
  Zn  Zn126  1  0.43772394  0.44398526  0.19002618  1
  Zn  Zn127  1  0.43885567  0.43636051  0.68313015  1
  Zn  Zn128  1  0.43491275  0.93285808  0.18256550  1
  Zn  Zn129  1  0.43760129  0.94516029  0.68620505  1
  Zn  Zn130  1  0.94125388  0.42850923  0.17278271  1
  Zn  Zn131  1  0.93386643  0.44385096  0.68343199  1
  Zn  Zn132  1  0.95223706  0.91792345  0.18398102  1
  Zn  Zn133  1  0.92901001  0.93813629  0.68661447  1
  Zn  Zn134  1  0.06352369  0.06956165  0.30956290  1
  Zn  Zn135  1  0.06221620  0.06024905  0.81108072  1
  Zn  Zn136  1  0.06846987  0.56374249  0.30369716  1
  Zn  Zn137  1  0.06563920  0.55881337  0.80439845  1
  Zn  Zn138  1  0.55599452  0.06306788  0.31220679  1
  Zn  Zn139  1  0.56433614  0.07091807  0.81038273  1
  Zn  Zn140  1  0.56615797  0.56904346  0.30772928  1
  Zn  Zn141  1  0.56731207  0.56501179  0.82030535  1
  Zn  Zn142  1  0.42571567  0.19513135  0.41322361  1
  Zn  Zn143  1  0.44186085  0.18791744  0.93760714  1
  Zn  Zn144  1  0.42998084  0.67722907  0.43638172  1
  Zn  Zn145  1  0.44970136  0.69871580  0.93649809  1
  Zn  Zn146  1  0.93526940  0.18572203  0.43944545  1
  Zn  Zn147  1  0.93117633  0.18910224  0.94004904  1
  Zn  Zn148  1  0.95806900  0.70343898  0.49628643  1
  Zn  Zn149  1  0.94223464  0.68344466  0.94045223  1
  Zn  Zn150  1  0.05986728  0.31570551  0.05407494  1
  Zn  Zn151  1  0.06741770  0.32101238  0.55763043  1
  Zn  Zn152  1  0.11604487  0.78745306  0.08843644  1
  Zn  Zn153  1  0.07136058  0.82833097  0.54098800  1
  Zn  Zn154  1  0.56802456  0.31621095  0.06290401  1
  Zn  Zn155  1  0.56314801  0.31614097  0.56144974  1
  Zn  Zn156  1  0.56170239  0.81738973  0.05885932  1
  Zn  Zn157  1  0.56360753  0.81229174  0.56172664  1
  O  O158  1  0.11125010  0.11321360  0.11606482  1
  O  O159  1  0.12866670  0.11874767  0.61317212  1
  O  O160  1  0.12556643  0.61232122  0.11339993  1
  O  O161  1  0.12570979  0.61367638  0.65503816  1
  O  O162  1  0.61669294  0.11836810  0.11836735  1
  O  O163  1  0.61220043  0.13188160  0.61216818  1
  O  O164  1  0.62924754  0.61063628  0.11613659  1
  O  O165  1  0.62802436  0.63813521  0.60790531  1
  O  O166  1  0.38473506  0.37598240  0.38708466  1
  O  O167  1  0.38204154  0.38238102  0.88376761  1
  O  O168  1  0.37054127  0.87807440  0.39078952  1
  O  O169  1  0.39364043  0.89294478  0.86402903  1
  O  O170  1  0.84421882  0.40265477  0.38350781  1
  O  O171  1  0.87445766  0.38409229  0.87805945  1
  O  O172  1  0.86654894  0.89748302  0.38183239  1
  O  O173  1  0.87528674  0.88346261  0.88247131  1
  O  O174  1  0.25932126  -0.01055348  0.37514122  1
  O  O175  1  0.25675108  0.00776170  0.87066395  1
  O  O176  1  0.23624227  0.50172532  0.37708675  1
  O  O177  1  0.25884882  0.50291421  0.86605913  1
  O  O178  1  0.75219761  0.00662695  0.36431941  1
  O  O179  1  0.76229853  0.00107418  0.87493570  1
  O  O180  1  0.79279553  0.46124451  0.38350331  1
  O  O181  1  0.75308166  0.51438442  0.87049968  1
  O  O182  1  0.23749338  0.48277395  0.13931453  1
  O  O183  1  0.24807766  0.49224729  0.63765596  1
  O  O184  1  0.21980296  0.98023099  0.10258901  1
  O  O185  1  0.24850514  0.99145139  0.63090375  1
  O  O186  1  0.74591158  0.50174409  0.12415363  1
  O  O187  1  0.76364627  0.48689230  0.61627336  1
  O  O188  1  0.73807293  1.00298488  0.13180878  1
  O  O189  1  0.73944684  0.98969422  0.62180123  1
  O  O190  1  0.01461272  0.36196115  0.23757934  1
  O  O191  1  0.01323734  0.37677698  0.74528383  1
  O  O192  1  -0.01152060  0.85559815  0.26792550  1
  O  O193  1  -0.00737817  0.88183073  0.76530273  1
  O  O194  1  0.50460489  0.37757443  0.25828865  1
  O  O195  1  0.50640863  0.37158921  0.75332593  1
  O  O196  1  0.51826815  0.88028273  0.24504726  1
  O  O197  1  0.50593042  0.88100598  0.75564864  1
  O  O198  1  0.49912665  0.12336068  0.23211332  1
  O  O199  1  0.49504751  0.13602797  0.73954352  1
  O  O200  1  0.47623324  0.61568858  0.25340781  1
  O  O201  1  0.49352255  0.62295166  0.75114825  1
  O  O202  1  0.98331663  0.12274686  0.23928613  1
  O  O203  1  0.98497048  0.12184943  0.75102632  1
  O  O204  1  1.01841432  0.64073005  0.23432721  1
  O  O205  1  0.98751801  0.62547549  0.75553365  1
  O  O206  1  0.36353707  0.25739017  -0.00851018  1
  O  O207  1  0.36209571  0.25915314  0.49266532  1
  O  O208  1  0.36467464  0.70901806  0.00387393  1
  O  O209  1  0.37312230  0.75277235  0.51188456  1
  O  O210  1  0.86794819  0.25690358  0.00916589  1
  O  O211  1  0.86297625  0.24223903  0.51164975  1
  O  O212  1  0.87508378  0.76076286  -0.00457070  1
  O  O213  1  0.85866346  0.77434702  0.48800111  1
  O  O214  1  0.13150166  0.23708099  0.49435123  1
  O  O215  1  0.13345253  0.24779737  0.99075459  1
  O  O216  1  0.15043234  0.73225566  0.52253700  1
  O  O217  1  0.12713688  0.73176828  0.97948793  1
  O  O218  1  0.63020011  0.24605768  0.49342323  1
  O  O219  1  0.61986163  0.24584000  0.98886606  1
  O  O220  1  0.62738360  0.75095042  0.48645640  1
  O  O221  1  0.61761694  0.74076279  0.99308009  1
  O  O222  1  0.50445987  0.23814035  0.12309389  1
  O  O223  1  0.50269862  0.24670941  0.63350089  1
  O  O224  1  0.46359050  0.78921883  0.11680477  1
  O  O225  1  0.49331153  0.74716042  0.62765216  1
  O  O226  1  0.99888352  0.23596230  0.11728367  1
  O  O227  1  0.98520821  0.26249643  0.61266938  1
  O  O228  1  1.01272429  0.73405900  0.10952352  1
  O  O229  1  1.00126647  0.75142646  0.58917508  1
  O  O230  1  0.01281780  0.25083855  0.38194129  1
  O  O231  1  0.01346421  0.24628878  0.88093973  1
  O  O232  1  0.00205018  0.72985672  0.39380519  1
  O  O233  1  0.00520956  0.75929150  0.87924892  1
  O  O234  1  0.51477033  0.26780652  0.38420104  1
  O  O235  1  0.50987710  0.25761800  0.86664714  1
  O  O236  1  0.50286444  0.75443530  0.38112501  1
  O  O237  1  0.51140557  0.76518438  0.86929022  1
  O  O238  1  0.25035077  0.13916048  0.50429334  1
  O  O239  1  0.24223299  0.13324820  0.99816255  1
  O  O240  1  0.26591085  0.62909191  0.49182252  1
  O  O241  1  0.23852637  0.61087657  0.98330193  1
  O  O242  1  0.73646754  0.13581928  0.50020408  1
  O  O243  1  0.73616922  0.12154535  0.99578146  1
  O  O244  1  0.74298998  0.64736299  0.49965552  1
  O  O245  1  0.74247598  0.62199342  0.99289727  1
  O  O246  1  0.25659835  0.36992045  0.00616422  1
  O  O247  1  0.25540725  0.37379277  0.50678119  1
  O  O248  1  0.26677077  0.86268912  -0.03867131  1
  O  O249  1  0.26174653  0.85982453  0.51550070  1
  O  O250  1  0.76809823  0.37833481  -0.00111656  1
  O  O251  1  0.73961308  0.36539532  0.51253620  1
  O  O252  1  0.75473729  0.88000044  0.01524148  1
  O  O253  1  0.74928173  0.87148597  0.50375661  1
  O  O254  1  0.13250224  0.47924944  0.24689910  1
  O  O255  1  0.13766486  0.48454634  0.74997923  1
  O  O256  1  0.11774876  1.00228064  0.23577130  1
  O  O257  1  0.13283077  0.99808128  0.74207530  1
  O  O258  1  0.62200655  0.49334410  0.23893071  1
  O  O259  1  0.62657183  0.49033430  0.75238182  1
  O  O260  1  0.62879647  0.99577602  0.24510427  1
  O  O261  1  0.62830827  1.00598639  0.74973067  1
  O  O262  1  0.37517688  -0.01837159  0.26432037  1
  O  O263  1  0.36934707  0.01105249  0.75688369  1
  O  O264  1  0.35790837  0.49243309  0.25771821  1
  O  O265  1  0.37378103  0.50444117  0.75446341  1
  O  O266  1  0.86469296  0.01088338  0.25829658  1
  O  O267  1  0.87020052  0.01305389  0.75548838  1
  O  O268  1  0.91325174  0.49949302  0.26597644  1
  O  O269  1  0.87352361  0.50438653  0.76333877  1
  O  O270  1  0.12837705  0.36089991  0.35557182  1
  O  O271  1  0.13103162  0.36801425  0.86002685  1
  O  O272  1  0.11077367  0.85628139  0.42844777  1
  O  O273  1  0.11302149  0.86580684  0.87336069  1
  O  O274  1  0.61950738  0.37533477  0.36361821  1
  O  O275  1  0.62227453  0.37312377  0.86781855  1
  O  O276  1  0.62193971  0.87256376  0.36605884  1
  O  O277  1  0.62406130  0.86635951  0.87882429  1
  O  O278  1  0.39385213  0.11951280  0.11206367  1
  O  O279  1  0.38396798  0.12407410  0.62959927  1
  O  O280  1  0.34060464  0.61904282  0.15436248  1
  O  O281  1  0.37867520  0.63018802  0.63483901  1
  O  O282  1  0.87457240  0.13871360  0.12763139  1
  O  O283  1  0.87358723  0.13625696  0.63284919  1
  O  O284  1  0.90037087  0.60803155  0.12654106  1
  O  O285  1  0.87222414  0.62516387  0.64661628  1
  O  O286  1  0.24124808  0.25957530  0.11216327  1
  O  O287  1  0.24086717  0.26175839  0.61042949  1
  O  O288  1  0.22199976  0.76514305  0.12130716  1
  O  O289  1  0.26515381  0.75368639  0.62560810  1
  O  O290  1  0.74864611  0.24745243  0.12013322  1
  O  O291  1  0.75533628  0.25958393  0.61802814  1
  O  O292  1  0.74174903  0.76737949  0.13464401  1
  O  O293  1  0.74713147  0.76750321  0.60922916  1
  O  O294  1  0.23550936  0.25645132  0.39310847  1
  O  O295  1  0.24193140  0.24533101  0.88391036  1
  O  O296  1  0.24433603  0.74217124  0.39670848  1
  O  O297  1  0.23721424  0.73231550  0.85489909  1
  O  O298  1  0.73896893  0.25327254  0.38402069  1
  O  O299  1  0.73766730  0.25555703  0.86557146  1
  O  O300  1  0.73571345  0.75864097  0.38375704  1
  O  O301  1  0.74448433  0.73942245  0.87486708  1
  O  O302  1  -0.00033576  0.11725730  0.00406195  1
  O  O303  1  0.01217541  0.12453050  0.50218726  1
  O  O304  1  0.01439504  0.61742945  0.00418999  1
  O  O305  1  -0.08652026  0.59233327  0.49920378  1
  O  O306  1  0.51198139  0.11943069  0.00560391  1
  O  O307  1  0.50087577  0.12469742  0.50205235  1
  O  O308  1  0.51733592  0.61356287  -0.00950522  1
  O  O309  1  0.50653845  0.61747265  0.50110274  1
  O  O310  1  0.49621899  0.38387220  0.49470087  1
  O  O311  1  0.49722544  0.38389840  0.99714168  1
  O  O312  1  0.49028896  0.88706122  0.51050969  1
  O  O313  1  0.51006050  0.89388933  0.98352032  1
  O  O314  1  1.05781876  0.39644994  0.47882470  1
  O  O315  1  0.97476200  0.37417036  1.01032487  1
  O  O316  1  0.97468627  0.88824520  0.49685112  1
  O  O317  1  0.98387325  0.88739730  0.98834314  1
  O  O318  1  0.50822212  0.49225079  0.38417771  1
  O  O319  1  0.50010804  0.49380893  0.88492761  1
  O  O320  1  0.49059054  1.00176675  0.38660542  1
  O  O321  1  0.49577239  1.00231873  0.87824216  1
  O  O322  1  0.97134513  0.49407638  0.32155905  1
  O  O323  1  0.99211221  0.49926808  0.87299740  1
  O  O324  1  0.98342066  1.00622913  0.36955197  1
  O  O325  1  0.98810966  0.99564991  0.88056747  1
  O  O326  1  -0.00613418  0.01065587  0.11574261  1
  O  O327  1  0.01676886  -0.01044801  0.62873139  1
  O  O328  1  0.01910233  0.50474339  0.13308789  1
  O  O329  1  0.01668948  0.49782972  0.62674465  1
  O  O330  1  0.50754528  0.00582797  0.11635153  1
  O  O331  1  0.49896664  0.01469350  0.61222856  1
  O  O332  1  0.50310776  0.50023693  0.11411862  1
  O  O333  1  0.50507362  0.49953868  0.61174297  1
  O  O334  1  0.24495967  0.37096791  0.24301425  1
  O  O335  1  0.25682113  0.38067633  0.74314066  1
  O  O336  1  0.20866975  0.85167422  0.27256648  1
  O  O337  1  0.25232904  0.87960807  0.74333790  1
  O  O338  1  0.73335183  0.37658584  0.25141250  1
  O  O339  1  0.74282491  0.37979277  0.73716296  1
  O  O340  1  0.73793036  0.88986649  0.23569837  1
  O  O341  1  0.75910733  0.87590518  0.73183905  1
  O  O342  1  0.25979591  0.10713358  0.20183383  1
  O  O343  1  0.25430810  0.12406167  0.75462877  1
  O  O344  1  0.24779015  0.60848292  0.26808865  1
  O  O345  1  0.26424791  0.61084596  0.75740138  1
  O  O346  1  0.75434773  0.11844957  0.24962574  1
  O  O347  1  0.76294055  0.12643311  0.75055547  1
  O  O348  1  0.74218271  0.60791098  0.25961246  1
  O  O349  1  0.76197354  0.62471714  0.75891237  1
  O  O350  1  0.37236105  0.10076030  0.37282354  1
  O  O351  1  0.37107037  0.11986530  0.86879537  1
  O  O352  1  0.35532015  0.62585996  0.36414923  1
  O  O353  1  0.37195616  0.61931482  0.86626413  1
  O  O354  1  0.87010824  0.12363438  0.36590547  1
  O  O355  1  0.87305282  0.12182469  0.86475314  1
  O  O356  1  0.86849179  0.62105379  0.37338201  1
  O  O357  1  0.87269978  0.61388210  0.87393641  1
  O  O358  1  0.13224070  0.37301295  0.13114671  1
  O  O359  1  0.13642200  0.38425056  0.63883648  1
  O  O360  1  0.08785423  0.89270196  0.12150222  1
  O  O361  1  0.13900836  0.88332576  0.62367418  1
  O  O362  1  0.62209716  0.38756114  0.13625293  1
  O  O363  1  0.63757305  0.37216720  0.63287637  1
  O  O364  1  0.63165345  0.88536304  0.12891151  1
  O  O365  1  0.63456250  0.87728783  0.62218461  1
  O  O366  1  0.12914560  0.25009551  0.26239725  1
  O  O367  1  0.12973936  0.26282468  0.75458494  1
  O  O368  1  0.15353843  0.79925476  0.26795249  1
  O  O369  1  0.11546568  0.75004231  0.75599353  1
  O  O370  1  0.61836628  0.26364107  0.25611357  1
  O  O371  1  0.61528752  0.26058938  0.75606290  1
  O  O372  1  0.62908868  0.76459522  0.26525709  1
  O  O373  1  0.62740726  0.74063933  0.76490700  1
  O  O374  1  0.38827139  0.23679631  0.29318136  1
  O  O375  1  0.38879676  0.24759940  0.75890910  1
  O  O376  1  0.37103102  0.74062602  0.25377092  1
  O  O377  1  0.37993743  0.73861395  0.74332595  1
  O  O378  1  0.86255716  0.24370809  0.23576723  1
  O  O379  1  0.87636520  0.24186946  0.73731433  1
  O  O380  1  0.85400431  0.72042869  0.24813857  1
  O  O381  1  0.87678522  0.73850683  0.75802026  1
  O  O382  1  0.38712924  0.49223769  0.50170553  1
  O  O383  1  0.38677429  0.50118327  0.99616165  1
  O  O384  1  0.37795574  0.99054934  0.49269126  1
  O  O385  1  0.38588777  1.00989662  0.98765909  1
  O  O386  1  0.90367051  0.56849799  0.41632252  1
  O  O387  1  0.87399434  0.49109450  0.98274032  1
  O  O388  1  0.86102803  1.00261197  0.48454781  1
  O  O389  1  0.87898096  1.00142082  0.99091969  1
  O  O390  1  0.10712001  0.00593472  -0.00421429  1
  O  O391  1  0.13463400  0.01618170  0.50686445  1
  O  O392  1  0.13029523  0.49921679  0.00790823  1
  O  O393  1  0.14172582  0.52106639  0.52582090  1
  O  O394  1  0.61907528  0.01024362  0.00612749  1
  O  O395  1  0.61464181  0.01393721  0.49479664  1
  O  O396  1  0.62433117  0.50243796  0.01350900  1
  O  O397  1  0.62275702  0.51625426  0.48935991  1
  O  O398  1  0.36495117  0.37898687  0.12075221  1
  O  O399  1  0.36648617  0.37711403  0.61317278  1
  O  O400  1  0.40513493  0.84655507  0.10865102  1
  O  O401  1  0.37133830  0.86807888  0.62238223  1
  O  O402  1  0.86642197  0.36038179  0.12244841  1
  O  O403  1  0.86230349  0.36262940  0.63251066  1
  O  O404  1  0.86156036  0.88144037  0.11807589  1
  O  O405  1  0.85966606  0.89178800  0.60729427  1
  O  O406  1  0.12290056  0.13488900  0.38584514  1
  O  O407  1  0.13000199  0.13195718  0.87734456  1
  O  O408  1  0.13943229  0.62623783  0.37484335  1
  O  O409  1  0.13125490  0.62421228  0.87482633  1
  O  O410  1  0.62027322  0.13768440  0.38101007  1
  O  O411  1  0.62581274  0.13879887  0.88206026  1
  O  O412  1  0.61714116  0.64472475  0.38083215  1
  O  O413  1  0.63504255  0.63268341  0.88535481  1
