# generated using pymatgen
data_V79Zn79O256
_symmetry_space_group_name_H-M   'P 1'
_cell_length_a   16.89686713
_cell_length_b   16.92650202
_cell_length_c   16.94689284
_cell_angle_alpha   89.91216959
_cell_angle_beta   89.99711701
_cell_angle_gamma   90.01519225
_symmetry_Int_Tables_number   1
_chemical_formula_structural   V79Zn79O256
_chemical_formula_sum   'V79 Zn79 O256'
_cell_volume   4846.88776632
_cell_formula_units_Z   1
loop_
 _symmetry_equiv_pos_site_id
 _symmetry_equiv_pos_as_xyz
  1  'x, y, z'
loop_
 _atom_site_type_symbol
 _atom_site_label
 _atom_site_symmetry_multiplicity
 _atom_site_fract_x
 _atom_site_fract_y
 _atom_site_fract_z
 _atom_site_occupancy
  V  V0  1  0.75515226  -0.00232200  0.24170405  1
  V  V1  1  0.62269365  0.50405697  0.12988551  1
  V  V2  1  0.75359758  0.12317616  0.38098451  1
  V  V3  1  0.63228952  0.24730374  0.38115608  1
  V  V4  1  0.74946800  0.35726159  0.62192163  1
  V  V5  1  0.37657551  0.24014027  0.12828833  1
  V  V6  1  0.87548942  0.76576235  0.12078576  1
  V  V7  1  0.87470414  0.35929585  0.50266609  1
  V  V8  1  0.37137001  0.62809069  0.74490537  1
  V  V9  1  0.48753093  0.25123522  0.76182695  1
  V  V10  1  0.11136229  0.25359231  0.90643910  1
  V  V11  1  0.00649332  0.26665035  0.26813520  1
  V  V12  1  0.13986058  0.15565914  0.49081161  1
  V  V13  1  0.62490263  -0.00143597  0.62341959  1
  V  V14  1  0.37581413  0.50006348  0.37042775  1
  V  V15  1  0.00632941  0.62681919  0.62011475  1
  V  V16  1  0.62555407  0.50244403  0.62458373  1
  V  V17  1  0.62255550  0.75614312  0.37736090  1
  V  V18  1  0.87137061  0.49765328  0.38008563  1
  V  V19  1  0.61786856  0.36945228  0.76020748  1
  V  V20  1  0.50118842  0.75011468  0.74939136  1
  V  V21  1  0.49477164  -0.01266303  0.49652906  1
  V  V22  1  0.37920156  0.49318629  0.87524541  1
  V  V23  1  0.26307501  0.14217940  0.36553780  1
  V  V24  1  0.37851467  0.37404075  0.00221527  1
  V  V25  1  0.50177382  0.37279507  0.37546929  1
  V  V26  1  -0.01350938  0.39208157  0.87171368  1
  V  V27  1  0.75201857  0.50328821  0.75168873  1
  V  V28  1  0.23843409  0.62316158  0.37914483  1
  V  V29  1  0.00694874  0.74846607  0.25082107  1
  V  V30  1  0.11651489  0.02122095  0.12762035  1
  V  V31  1  0.12586209  0.49408667  0.62414074  1
  V  V32  1  0.25051751  0.90392625  0.64471581  1
  V  V33  1  0.62087741  0.87339766  0.75416634  1
  V  V34  1  0.50121577  0.50142023  -0.00066459  1
  V  V35  1  0.24819970  0.48557973  0.74795638  1
  V  V36  1  0.25570419  0.76123191  0.52381131  1
  V  V37  1  0.50104036  0.75360767  0.25188899  1
  V  V38  1  0.11502810  0.36787369  0.75205155  1
  V  V39  1  0.88014862  0.76008125  0.62280565  1
  V  V40  1  0.02351307  0.00069223  0.49520097  1
  V  V41  1  0.28387283  0.08715545  0.88893242  1
  V  V42  1  0.61847517  0.62731368  0.00488314  1
  V  V43  1  0.75283055  0.76152542  0.00412516  1
  V  V44  1  0.11794464  0.61050559  0.00261973  1
  V  V45  1  0.13360714  0.75587459  0.87693785  1
  V  V46  1  0.38440441  0.62355614  0.24507840  1
  V  V47  1  0.37962539  -0.01401824  0.36473717  1
  V  V48  1  0.23742577  0.86542065  0.12826222  1
  V  V49  1  0.50062334  0.49990742  0.49980997  1
  V  V50  1  0.74379427  0.37017366  0.12428889  1
  V  V51  1  0.49274502  0.62648765  0.62286507  1
  V  V52  1  0.62467167  0.13701619  0.00648274  1
  V  V53  1  0.63310981  0.87343491  0.24656243  1
  V  V54  1  0.23195217  0.49805688  0.24439496  1
  V  V55  1  0.50047845  0.23512895  0.24703151  1
  V  V56  1  0.87495083  0.61445930  0.23982802  1
  V  V57  1  0.73882597  0.13506732  0.88344879  1
  V  V58  1  0.62060909  0.00215330  0.12797369  1
  V  V59  1  0.00014492  0.49831090  0.49919808  1
  V  V60  1  0.88011635  0.25523123  0.11960390  1
  V  V61  1  0.74979809  -0.00297016  0.75070639  1
  V  V62  1  0.24787147  0.37823444  0.12569168  1
  V  V63  1  0.38158394  0.74953284  0.11484068  1
  V  V64  1  0.87754549  0.62580665  0.75236225  1
  V  V65  1  -0.00185531  0.87801078  0.89133743  1
  V  V66  1  0.63109188  0.38031077  0.25274151  1
  V  V67  1  0.88183723  0.13019304  0.24821907  1
  V  V68  1  0.50058883  -0.00677040  -0.00881666  1
  V  V69  1  0.24660061  0.62078396  0.87807996  1
  V  V70  1  0.36173399  0.36675517  0.50536028  1
  V  V71  1  0.86759494  0.13034891  0.74108910  1
  V  V72  1  0.86059822  0.38431451  -0.01105318  1
  V  V73  1  0.00480069  0.76629870  0.74993596  1
  V  V74  1  0.74982948  0.62306318  0.37421005  1
  V  V75  1  0.87443648  -0.00395613  0.88508616  1
  V  V76  1  0.75030080  0.62853434  0.87553617  1
  V  V77  1  0.88881443  0.87470359  0.48509210  1
  V  V78  1  0.49196615  0.13505409  0.62106466  1
  Zn  Zn79  1  0.75169076  0.87392416  0.62126402  1
  Zn  Zn80  1  0.88930198  -0.00233121  0.36613353  1
  Zn  Zn81  1  0.07258166  0.91684700  0.30920267  1
  Zn  Zn82  1  0.61799954  0.75657686  0.88345290  1
  Zn  Zn83  1  0.37329049  0.88604787  -0.00571683  1
  Zn  Zn84  1  0.03160028  0.11792352  0.64280569  1
  Zn  Zn85  1  0.62649192  0.62907308  0.49995762  1
  Zn  Zn86  1  0.12399156  0.75396771  0.38375462  1
  Zn  Zn87  1  0.34470350  0.24767624  0.62552834  1
  Zn  Zn88  1  0.63251971  0.12607310  0.50346163  1
  Zn  Zn89  1  0.75297290  0.75393857  0.49861226  1
  Zn  Zn90  1  0.24395845  0.00138934  0.25215069  1
  Zn  Zn91  1  -0.01865523  0.51211653  0.02403691  1
  Zn  Zn92  1  0.03660335  0.06751955  -0.01219530  1
  Zn  Zn93  1  -0.01821156  0.25558906  0.74209926  1
  Zn  Zn94  1  0.18803617  0.19461779  0.19215794  1
  Zn  Zn95  1  0.20659508  0.10284243  0.68982518  1
  Zn  Zn96  1  0.19458642  0.68024967  0.18307699  1
  Zn  Zn97  1  0.18522309  0.68487271  0.69417307  1
  Zn  Zn98  1  0.69151493  0.18543555  0.19119415  1
  Zn  Zn99  1  0.67620712  0.18113661  0.69651452  1
  Zn  Zn100  1  0.69337962  0.68758680  0.18883254  1
  Zn  Zn101  1  0.68847904  0.69081326  0.68331518  1
  Zn  Zn102  1  0.31651969  0.31835207  0.30555778  1
  Zn  Zn103  1  0.25731943  0.24741547  0.78067855  1
  Zn  Zn104  1  0.30532205  0.81204973  0.30849437  1
  Zn  Zn105  1  0.32961669  0.91207934  0.81503479  1
  Zn  Zn106  1  0.81564316  0.31211395  0.31469366  1
  Zn  Zn107  1  0.79923782  0.31186584  0.81167597  1
  Zn  Zn108  1  0.81329939  0.80548188  0.30792734  1
  Zn  Zn109  1  0.81247309  0.81359157  0.81215180  1
  Zn  Zn110  1  0.17665641  0.42418741  0.43478187  1
  Zn  Zn111  1  0.18857205  0.42891137  0.93566190  1
  Zn  Zn112  1  0.20689503  0.92788450  0.43346538  1
  Zn  Zn113  1  0.18523264  0.93198028  0.95316044  1
  Zn  Zn114  1  0.69084248  0.43608045  0.44082162  1
  Zn  Zn115  1  0.68622913  0.44113708  0.93749699  1
  Zn  Zn116  1  0.69496619  0.93775481  0.43633782  1
  Zn  Zn117  1  0.68155866  0.94369567  0.93695456  1
  Zn  Zn118  1  0.30415877  0.05655258  0.06504233  1
  Zn  Zn119  1  0.31163459  0.06491566  0.54800367  1
  Zn  Zn120  1  0.31179160  0.56472525  0.06201963  1
  Zn  Zn121  1  0.30961307  0.55502648  0.55966917  1
  Zn  Zn122  1  0.84132874  0.08388482  0.04553942  1
  Zn  Zn123  1  0.82074835  0.05058609  0.55984054  1
  Zn  Zn124  1  0.79654949  0.56104713  0.06453785  1
  Zn  Zn125  1  0.81391229  0.56661445  0.56292437  1
  Zn  Zn126  1  0.44290485  0.43490074  0.18562666  1
  Zn  Zn127  1  0.43391228  0.43475971  0.68686279  1
  Zn  Zn128  1  0.44006734  0.93142978  0.18689587  1
  Zn  Zn129  1  0.43533474  0.93363662  0.67572770  1
  Zn  Zn130  1  0.93369231  0.43691031  0.19169603  1
  Zn  Zn131  1  0.93317208  0.43849262  0.68112530  1
  Zn  Zn132  1  0.94092501  0.93803634  0.18327115  1
  Zn  Zn133  1  1.07281956  0.94780040  0.68340693  1
  Zn  Zn134  1  0.06843956  0.08165591  0.31545061  1
  Zn  Zn135  1  0.06166595  0.07880245  0.82038741  1
  Zn  Zn136  1  0.05413632  0.55753860  0.30996947  1
  Zn  Zn137  1  0.06154088  0.56452134  0.81033101  1
  Zn  Zn138  1  0.56646464  0.05734212  0.31685029  1
  Zn  Zn139  1  0.45846179  0.06161105  0.80741664  1
  Zn  Zn140  1  0.56324470  0.56568340  0.31351262  1
  Zn  Zn141  1  0.56270552  0.56626063  0.81440275  1
  Zn  Zn142  1  0.43809527  0.18371482  0.43956078  1
  Zn  Zn143  1  0.44509663  0.18643139  0.94955528  1
  Zn  Zn144  1  0.43371224  0.69024951  0.43611540  1
  Zn  Zn145  1  0.39465634  0.73356638  0.89849394  1
  Zn  Zn146  1  0.94355606  0.18110981  0.43823508  1
  Zn  Zn147  1  0.92965478  0.19938531  0.92833015  1
  Zn  Zn148  1  0.94086639  0.68449544  0.43374720  1
  Zn  Zn149  1  0.93933837  0.69016545  0.93753554  1
  Zn  Zn150  1  0.04469908  0.35399495  0.07933390  1
  Zn  Zn151  1  0.05678287  0.30459973  0.57117566  1
  Zn  Zn152  1  0.06181678  0.79544300  0.06288416  1
  Zn  Zn153  1  0.07813573  0.81242891  0.55722115  1
  Zn  Zn154  1  0.55724230  0.31583015  0.06396876  1
  Zn  Zn155  1  0.56410856  0.31524826  0.56256191  1
  Zn  Zn156  1  0.56402575  0.81285742  0.06836015  1
  Zn  Zn157  1  0.56181590  0.81098225  0.56483473  1
  O  O158  1  0.12761538  0.12022736  0.12512919  1
  O  O159  1  0.13751440  0.12326356  0.58716869  1
  O  O160  1  0.13562821  0.62860385  0.09952604  1
  O  O161  1  0.11228558  0.61154221  0.63502739  1
  O  O162  1  0.63749457  0.11633534  0.11523049  1
  O  O163  1  0.61823516  0.11394965  0.62316337  1
  O  O164  1  0.63792363  0.61450253  0.11750437  1
  O  O165  1  0.61617204  0.61559263  0.62428515  1
  O  O166  1  0.38465095  0.38135565  0.38040967  1
  O  O167  1  0.37037237  0.39103867  0.88937294  1
  O  O168  1  0.37248250  0.88601940  0.37111818  1
  O  O169  1  0.37087201  0.84280224  0.89142532  1
  O  O170  1  0.85945070  0.38414037  0.39508819  1
  O  O171  1  0.86480880  0.37507187  0.88364787  1
  O  O172  1  0.87822754  0.86913112  0.38321895  1
  O  O173  1  0.88450394  0.88881130  0.86393835  1
  O  O174  1  0.27070831  0.00504879  0.37296463  1
  O  O175  1  0.26666631  -0.01565388  0.88992657  1
  O  O176  1  0.25937096  0.50407919  0.35955920  1
  O  O177  1  0.25685611  0.50291221  0.86638018  1
  O  O178  1  0.75417392  0.00790601  0.36252558  1
  O  O179  1  0.75356958  0.00158405  0.86693338  1
  O  O180  1  0.75855449  0.50966480  0.38301863  1
  O  O181  1  0.74338633  0.51273764  0.86062894  1
  O  O182  1  0.25793798  0.49339013  0.13749856  1
  O  O183  1  0.23686975  0.50376405  0.63455212  1
  O  O184  1  0.23275278  0.99128863  0.12953842  1
  O  O185  1  0.25397249  1.00835061  0.62926674  1
  O  O186  1  0.73263898  0.48485114  0.12454287  1
  O  O187  1  0.74024792  0.50271233  0.63403941  1
  O  O188  1  0.74405736  1.00441537  0.14041721  1
  O  O189  1  0.74127584  0.99868561  0.63140842  1
  O  O190  1  -0.01447462  0.36546919  0.26302362  1
  O  O191  1  -0.00278166  0.37744907  0.75387740  1
  O  O192  1  -0.00422894  0.85473658  0.24783816  1
  O  O193  1  0.01009067  0.86830094  0.75365495  1
  O  O194  1  0.50942739  0.36996820  0.26267470  1
  O  O195  1  0.51071378  0.36734535  0.74349311  1
  O  O196  1  0.51424706  0.86150816  0.25057054  1
  O  O197  1  0.50902263  0.85888410  0.73337182  1
  O  O198  1  0.50807574  0.13717632  0.25443472  1
  O  O199  1  0.50193752  0.14136180  0.73469091  1
  O  O200  1  0.49315677  0.63427386  0.25264124  1
  O  O201  1  0.49319869  0.62456154  0.73960197  1
  O  O202  1  0.98547324  0.13672801  0.25396051  1
  O  O203  1  0.97097315  0.12596608  0.75698394  1
  O  O204  1  0.98081641  0.62950319  0.25168169  1
  O  O205  1  0.99078434  0.63192359  0.74271135  1
  O  O206  1  0.39032200  0.26165884  0.01791311  1
  O  O207  1  0.37755651  0.26391419  0.50191275  1
  O  O208  1  0.38471410  0.73281772  0.01755948  1
  O  O209  1  0.35030346  0.73789144  0.49254310  1
  O  O210  1  0.86999896  0.26884479  0.01418262  1
  O  O211  1  0.87964888  0.26105548  0.49640008  1
  O  O212  1  0.86893931  0.74274386  0.01359244  1
  O  O213  1  0.88339208  0.75974775  0.50360789  1
  O  O214  1  0.12510504  0.25510672  0.49203693  1
  O  O215  1  0.09967050  0.27986467  1.00099253  1
  O  O216  1  0.14973641  0.74380762  0.49692395  1
  O  O217  1  0.11627865  0.73285531  0.98021994  1
  O  O218  1  0.62123827  0.25028084  0.48448619  1
  O  O219  1  0.61867071  0.23654022  1.00968672  1
  O  O220  1  0.62694955  0.75025168  0.49047502  1
  O  O221  1  0.63210758  0.74251128  1.00424286  1
  O  O222  1  0.49408299  0.25258816  0.14011154  1
  O  O223  1  0.50501563  0.23959635  0.62522750  1
  O  O224  1  0.49149498  0.74869040  0.13741658  1
  O  O225  1  0.50364889  0.73263139  0.62963200  1
  O  O226  1  0.98020022  0.26530019  0.13337372  1
  O  O227  1  1.00273237  0.22927726  0.63313310  1
  O  O228  1  0.98229585  0.74499675  0.13169890  1
  O  O229  1  1.00116518  0.74466367  0.63066595  1
  O  O230  1  0.00011980  0.24887985  0.36708374  1
  O  O231  1  -0.00403484  0.27006966  0.86729786  1
  O  O232  1  0.00747745  0.73950823  0.35832909  1
  O  O233  1  0.00106311  0.76102503  0.86649817  1
  O  O234  1  0.50693114  0.25547146  0.36616849  1
  O  O235  1  0.49435131  0.24481119  0.86010259  1
  O  O236  1  0.51250794  0.74202885  0.36726814  1
  O  O237  1  0.50471118  0.73657542  0.85327680  1
  O  O238  1  0.24848548  0.13654702  0.48417584  1
  O  O239  1  0.25379127  0.11874729  0.97977229  1
  O  O240  1  0.25135396  0.61257613  0.47996516  1
  O  O241  1  0.24231516  0.61558472  0.98371212  1
  O  O242  1  0.75373018  0.11311476  0.48537019  1
  O  O243  1  0.74276194  0.12040039  0.99126663  1
  O  O244  1  0.74962543  0.63038888  0.48968252  1
  O  O245  1  0.74216434  0.63123612  0.99062267  1
  O  O246  1  0.26549775  0.38664648  0.01546308  1
  O  O247  1  0.26351992  0.37999699  0.49305536  1
  O  O248  1  0.25842542  0.87826350  0.02490632  1
  O  O249  1  0.25314064  0.86521399  0.51891756  1
  O  O250  1  0.75238647  0.37664112  0.00668634  1
  O  O251  1  0.75623225  0.37488098  0.51536693  1
  O  O252  1  0.74152081  0.85928366  -0.00818308  1
  O  O253  1  0.77119725  0.87604892  0.50177749  1
  O  O254  1  0.13357902  0.50589325  0.24193420  1
  O  O255  1  0.12951648  0.49260284  0.74518723  1
  O  O256  1  0.12183414  1.00320720  0.24129324  1
  O  O257  1  0.10657657  1.04764008  0.72466226  1
  O  O258  1  0.61538563  0.49072503  0.24308410  1
  O  O259  1  0.62853034  0.49277894  0.74168207  1
  O  O260  1  0.63322152  0.99245344  0.24780873  1
  O  O261  1  0.63110267  0.98890615  0.73727486  1
  O  O262  1  0.39011546  0.00038243  0.26373941  1
  O  O263  1  0.38716871  -0.00782539  0.75816222  1
  O  O264  1  0.38519516  0.50572248  0.25860519  1
  O  O265  1  0.36851135  0.50165093  0.75692102  1
  O  O266  1  0.87215742  0.00929148  0.24685056  1
  O  O267  1  0.85580604  0.01033609  0.75827942  1
  O  O268  1  0.87716566  0.50817385  0.26395516  1
  O  O269  1  0.86235523  0.51357453  0.73879341  1
  O  O270  1  0.13049513  0.39089610  0.34286197  1
  O  O271  1  0.10413144  0.37695971  0.87071844  1
  O  O272  1  0.15518215  0.86083484  0.35860738  1
  O  O273  1  0.11953104  0.86112593  0.88379165  1
  O  O274  1  0.62191029  0.36987442  0.37135576  1
  O  O275  1  0.62864370  0.38161631  0.85835143  1
  O  O276  1  0.63241614  0.86330361  0.36606731  1
  O  O277  1  0.62622929  0.87371818  0.85857537  1
  O  O278  1  0.36552351  0.14270638  0.12124449  1
  O  O279  1  0.39065216  0.12956718  0.61291823  1
  O  O280  1  0.36681140  0.63451574  0.13825706  1
  O  O281  1  0.38414468  0.60746918  0.63242926  1
  O  O282  1  0.85904945  0.14897170  0.13839010  1
  O  O283  1  0.86033658  0.11916788  0.64160796  1
  O  O284  1  0.86750564  0.61324205  0.13893360  1
  O  O285  1  0.88459915  0.63574758  0.63228506  1
  O  O286  1  0.26954734  0.26664313  0.14138336  1
  O  O287  1  0.25052624  0.21115611  0.67366678  1
  O  O288  1  0.26746074  0.75767221  0.13510416  1
  O  O289  1  0.25246585  0.74068213  0.62317439  1
  O  O290  1  0.75375506  0.26487937  0.13303386  1
  O  O291  1  0.73812501  0.25993903  0.62917266  1
  O  O292  1  0.76475573  0.74456379  0.11798196  1
  O  O293  1  0.76454470  0.75040826  0.62049662  1
  O  O294  1  0.26150729  0.24222031  0.36485112  1
  O  O295  1  0.21160730  0.26524344  0.88650887  1
  O  O296  1  0.25004351  0.72582106  0.36223640  1
  O  O297  1  0.23416070  0.73725758  0.86877389  1
  O  O298  1  0.74146862  0.23846386  0.36689105  1
  O  O299  1  0.74632716  0.23433991  0.87669931  1
  O  O300  1  0.74161493  0.74107482  0.37562776  1
  O  O301  1  0.74897153  0.74195258  0.88203433  1
  O  O302  1  -0.05466126  0.12365168  0.00863314  1
  O  O303  1  0.02460121  0.11189682  0.48201128  1
  O  O304  1  0.00964913  0.61740845  -0.00855457  1
  O  O305  1  -0.00488478  0.61479813  0.51160879  1
  O  O306  1  0.51924188  0.11335370  0.00284726  1
  O  O307  1  0.50890588  0.12001668  0.50987998  1
  O  O308  1  0.51604674  0.61605832  0.00058643  1
  O  O309  1  0.49846203  0.61752331  0.50686483  1
  O  O310  1  0.49674103  0.37954017  0.48892374  1
  O  O311  1  0.49295689  0.38947782  1.00207612  1
  O  O312  1  0.49886706  0.88839467  0.50839034  1
  O  O313  1  0.50609139  0.88895038  1.00589725  1
  O  O314  1  0.98004447  0.38371067  0.51432073  1
  O  O315  1  0.97295836  0.38408623  0.98530233  1
  O  O316  1  0.99581972  0.87993233  0.49930758  1
  O  O317  1  0.99908835  0.86625162  0.98947591  1
  O  O318  1  0.49600753  0.49248061  0.37940893  1
  O  O319  1  0.49034301  0.50851619  0.88495662  1
  O  O320  1  0.49608031  1.00236416  0.38862315  1
  O  O321  1  0.50711302  0.99994759  0.89243805  1
  O  O322  1  0.98585998  0.50553872  0.38876789  1
  O  O323  1  0.98947594  0.49343103  0.86592899  1
  O  O324  1  1.00774288  0.99496898  0.37613782  1
  O  O325  1  0.98727007  0.99715230  0.88043254  1
  O  O326  1  0.01512307  0.00086919  0.12830610  1
  O  O327  1  0.00618224  0.00775531  0.59848258  1
  O  O328  1  0.01208860  0.45990907  0.11757024  1
  O  O329  1  0.00338212  0.50859947  0.61928460  1
  O  O330  1  0.51753188  -0.00061507  0.12968859  1
  O  O331  1  0.50582647  0.00990148  0.61470111  1
  O  O332  1  0.51231269  0.49789112  0.11504092  1
  O  O333  1  0.50830310  0.50385333  0.62088375  1
  O  O334  1  0.26067187  0.39222774  0.24001573  1
  O  O335  1  0.23600449  0.38366405  0.75640767  1
  O  O336  1  0.26443067  0.88455021  0.22997328  1
  O  O337  1  0.24039264  0.89173515  0.74391519  1
  O  O338  1  0.73633818  0.37277319  0.24684912  1
  O  O339  1  0.73998061  0.38279451  0.73873260  1
  O  O340  1  0.74449181  0.88336987  0.25601488  1
  O  O341  1  0.74212785  0.88042132  0.74560681  1
  O  O342  1  0.24914496  0.12204059  0.26173651  1
  O  O343  1  0.23252129  0.12526954  0.80922352  1
  O  O344  1  0.25985771  0.60869665  0.25382159  1
  O  O345  1  0.25410776  0.61072451  0.75667193  1
  O  O346  1  0.75883281  0.11769342  0.25957534  1
  O  O347  1  0.74542960  0.11692656  0.76323951  1
  O  O348  1  0.76348322  0.62888929  0.26260295  1
  O  O349  1  0.75529625  0.62298923  0.75478684  1
  O  O350  1  0.36789606  0.11863026  0.37782580  1
  O  O351  1  0.38365200  0.11929619  0.87994984  1
  O  O352  1  0.37073505  0.61335184  0.36468371  1
  O  O353  1  0.36354424  0.61883860  0.86503675  1
  O  O354  1  0.86840610  0.12413044  0.36625836  1
  O  O355  1  0.85763348  0.11189665  0.86891948  1
  O  O356  1  0.86711109  0.61728981  0.37095509  1
  O  O357  1  0.86565784  0.63372091  0.86133316  1
  O  O358  1  0.15120282  0.36876851  0.12506827  1
  O  O359  1  0.11227435  0.38684268  0.63761118  1
  O  O360  1  0.13600234  0.85840994  0.12590368  1
  O  O361  1  0.14072146  0.87624589  0.62723342  1
  O  O362  1  0.62564565  0.38016320  0.13429071  1
  O  O363  1  0.63472961  0.38409392  0.62934455  1
  O  O364  1  0.62857347  0.88221624  0.13961551  1
  O  O365  1  0.62808505  0.88244426  0.63036184  1
  O  O366  1  0.10302462  0.25048558  0.24155607  1
  O  O367  1  0.11620940  0.26753885  0.76096828  1
  O  O368  1  0.10555888  0.73219110  0.23672898  1
  O  O369  1  0.11272745  0.73843723  0.76714874  1
  O  O370  1  0.61541905  0.25799320  0.25715048  1
  O  O371  1  0.61651245  0.26524172  0.74871826  1
  O  O372  1  0.62279456  0.75434775  0.25460678  1
  O  O373  1  0.61943275  0.75648966  0.74718405  1
  O  O374  1  0.39271571  0.25478470  0.24222838  1
  O  O375  1  0.38842187  0.26305963  0.74386014  1
  O  O376  1  0.38573236  0.74195625  0.24868639  1
  O  O377  1  0.38302140  0.72925601  0.74921146  1
  O  O378  1  0.88048980  0.24849297  0.24457822  1
  O  O379  1  0.86084911  0.23491995  0.75452782  1
  O  O380  1  0.87880964  0.73823339  0.23705617  1
  O  O381  1  0.88507648  0.74681428  0.74202393  1
  O  O382  1  0.38111285  0.48956398  0.48868891  1
  O  O383  1  0.38410908  0.49912700  0.99615881  1
  O  O384  1  0.39061945  1.00265621  0.49076378  1
  O  O385  1  0.39785948  1.00264275  1.01692714  1
  O  O386  1  0.88082824  0.49557212  0.49786100  1
  O  O387  1  0.86389857  0.48858803  1.00447298  1
  O  O388  1  0.88948778  0.98666434  0.49076787  1
  O  O389  1  0.85684087  0.98793036  0.98194812  1
  O  O390  1  0.12074113  -0.00017250  0.01826066  1
  O  O391  1  0.12132783  -0.01500295  0.48973856  1
  O  O392  1  0.12372625  0.50871165  -0.00877369  1
  O  O393  1  0.11104570  0.48556004  0.51063587  1
  O  O394  1  0.61932344  0.00311656  0.01228543  1
  O  O395  1  0.61799065  -0.00253762  0.50714693  1
  O  O396  1  0.61991305  0.50621478  0.00636427  1
  O  O397  1  0.61959517  0.50002739  0.50955194  1
  O  O398  1  0.37461984  0.37115904  0.11833557  1
  O  O399  1  0.37494157  0.37399990  0.60897702  1
  O  O400  1  0.37973603  0.85811119  0.11906475  1
  O  O401  1  0.34906919  0.87519783  0.63235951  1
  O  O402  1  0.85990624  0.37091018  0.12075344  1
  O  O403  1  0.85807786  0.37374570  0.61882113  1
  O  O404  1  0.87293989  0.86409810  0.12500447  1
  O  O405  1  0.88068163  0.86248865  0.61380868  1
  O  O406  1  0.14831663  0.12492599  0.38305607  1
  O  O407  1  0.08869444  0.14859679  0.90600019  1
  O  O408  1  0.13675658  0.61780466  0.36716020  1
  O  O409  1  0.13029279  0.62745855  0.87874615  1
  O  O410  1  0.63563600  0.13128415  0.37588357  1
  O  O411  1  0.63591449  0.12065887  0.89322967  1
  O  O412  1  0.63397364  0.63220869  0.37543390  1
  O  O413  1  0.63471896  0.62879729  0.88333348  1
