# generated using pymatgen
data_V79Zn79O256
_symmetry_space_group_name_H-M   'P 1'
_cell_length_a   16.86902700
_cell_length_b   16.89505377
_cell_length_c   16.88817053
_cell_angle_alpha   90.00833125
_cell_angle_beta   89.94758043
_cell_angle_gamma   90.08705861
_symmetry_Int_Tables_number   1
_chemical_formula_structural   V79Zn79O256
_chemical_formula_sum   'V79 Zn79 O256'
_cell_volume   4813.17363930
_cell_formula_units_Z   1
loop_
 _symmetry_equiv_pos_site_id
 _symmetry_equiv_pos_as_xyz
  1  'x, y, z'
loop_
 _atom_site_type_symbol
 _atom_site_label
 _atom_site_symmetry_multiplicity
 _atom_site_fract_x
 _atom_site_fract_y
 _atom_site_fract_z
 _atom_site_occupancy
  V  V0  1  0.12803398  0.62826479  0.01117382  1
  V  V1  1  0.72451441  0.39562834  0.61295033  1
  V  V2  1  0.62189846  0.12784414  0.49900496  1
  V  V3  1  0.24453982  0.26173121  0.50532780  1
  V  V4  1  0.37766125  -0.00193249  0.37660580  1
  V  V5  1  0.37729521  0.37660472  0.01088312  1
  V  V6  1  0.13446993  0.22504060  0.87559751  1
  V  V7  1  0.37390001  0.00661146  0.87217621  1
  V  V8  1  0.12708810  0.63222399  0.51141995  1
  V  V9  1  0.49418702  0.12671874  0.12460437  1
  V  V10  1  0.74557028  0.24883827  -0.00302187  1
  V  V11  1  0.50109615  0.25299706  0.75142145  1
  V  V12  1  0.62462464  0.37761479  0.24855025  1
  V  V13  1  -0.00030417  0.50884577  0.50117836  1
  V  V14  1  -0.00300849  0.75147738  0.25168470  1
  V  V15  1  0.87659026  0.24769212  0.12022151  1
  V  V16  1  -0.01530034  0.62585400  0.11895942  1
  V  V17  1  0.84763782  0.00721450  0.86707643  1
  V  V18  1  0.24000107  0.36617457  0.12516345  1
  V  V19  1  0.00152009  -0.00663244  -0.01045531  1
  V  V20  1  0.24211306  0.62843696  0.37496477  1
  V  V21  1  0.37656730  0.26866660  0.62148452  1
  V  V22  1  0.00463955  0.75385007  0.76619530  1
  V  V23  1  0.24061226  0.49507959  0.24670200  1
  V  V24  1  0.88149474  0.62475230  0.75059092  1
  V  V25  1  0.36636248  0.75705339  0.61574973  1
  V  V26  1  0.74847986  -0.00231617  0.25365418  1
  V  V27  1  0.49550685  0.24884071  0.24659211  1
  V  V28  1  0.87529657  0.25676982  0.63449250  1
  V  V29  1  0.74040003  0.73301474  0.49095902  1
  V  V30  1  0.13485355  -0.00381357  0.12463139  1
  V  V31  1  0.36903843  0.62136194  0.74603156  1
  V  V32  1  0.88427227  0.50313452  0.87933159  1
  V  V33  1  0.49599013  0.74897862  0.74271145  1
  V  V34  1  -0.00388357  0.88302486  0.37326960  1
  V  V35  1  0.75112135  0.50726433  0.25853639  1
  V  V36  1  0.87479264  0.87166294  -0.00548870  1
  V  V37  1  0.25401883  0.23016605  -0.00052082  1
  V  V38  1  0.49647290  0.63723858  0.13064304  1
  V  V39  1  0.24374646  0.63359250  0.87757361  1
  V  V40  1  0.63023359  0.87748044  0.74599239  1
  V  V41  1  0.75305596  0.50447759  0.75643123  1
  V  V42  1  0.38304911  0.12295623  0.73704139  1
  V  V43  1  0.75000005  0.37997480  0.12215949  1
  V  V44  1  0.74932012  0.25841671  0.49434669  1
  V  V45  1  0.75383608  0.87008391  0.12408186  1
  V  V46  1  0.87820646  0.38388131  0.49300829  1
  V  V47  1  0.36803536  0.12341884  0.24740099  1
  V  V48  1  0.49760350  0.38055158  0.88015386  1
  V  V49  1  0.89033081  0.38021730  0.00278925  1
  V  V50  1  0.62640225  0.74673205  0.87155807  1
  V  V51  1  0.61401913  0.50166198  0.11911146  1
  V  V52  1  0.63637554  -0.00276390  0.61898405  1
  V  V53  1  0.86934723  0.62799783  0.27133530  1
  V  V54  1  0.01674212  0.37589136  0.86404998  1
  V  V55  1  0.36438543  0.76542663  0.12305766  1
  V  V56  1  0.49281063  0.87617775  0.87705842  1
  V  V57  1  0.13881290  0.87393848  0.24828747  1
  V  V58  1  0.24474403  0.12201623  0.38450194  1
  V  V59  1  0.11204055  0.01264180  0.62044370  1
  V  V60  1  0.75026443  0.74573408  -0.00211748  1
  V  V61  1  0.50137921  0.00106479  0.49964441  1
  V  V62  1  0.62357600  0.12951040  -0.00497308  1
  V  V63  1  0.49495200  -0.00234052  -0.00194682  1
  V  V64  1  0.37381835  0.49255368  0.38218511  1
  V  V65  1  0.88584277  0.74669033  0.62275965  1
  V  V66  1  0.87550431  0.11940111  0.25025443  1
  V  V67  1  0.87239477  0.87997306  0.49598013  1
  V  V68  1  0.62552250  0.37681417  0.76366042  1
  V  V69  1  0.49264076  0.37427615  0.37963029  1
  V  V70  1  0.13387632  0.47981479  0.63426127  1
  V  V71  1  0.62109070  0.85823339  0.25233199  1
  V  V72  1  0.63009719  0.25203935  0.37233339  1
  V  V73  1  0.00051580  0.11968066  0.11124249  1
  V  V74  1  0.50127206  0.85904249  0.37700348  1
  V  V75  1  0.25281262  0.00223738  0.74447424  1
  V  V76  1  0.37176236  0.50219002  0.88272027  1
  V  V77  1  0.61766367  0.62250311  -0.00824771  1
  V  V78  1  0.12483264  0.87229466  0.75545660  1
  Zn  Zn79  1  0.11376240  0.49302401  0.12215543  1
  Zn  Zn80  1  0.62227330  -0.00133286  0.12562974  1
  Zn  Zn81  1  0.18105646  0.79412984  0.42782895  1
  Zn  Zn82  1  0.24504960  0.87568370  0.59827959  1
  Zn  Zn83  1  0.02070234  0.24099429  0.73279745  1
  Zn  Zn84  1  0.12787803  0.25715136  0.36788123  1
  Zn  Zn85  1  0.57616597  0.55210876  0.58193093  1
  Zn  Zn86  1  0.37916015  0.62766384  0.25464138  1
  Zn  Zn87  1  1.00326461  0.02659424  0.48810120  1
  Zn  Zn88  1  0.01411848  0.26222574  0.24406624  1
  Zn  Zn89  1  0.01162979  0.38042083  0.36383258  1
  Zn  Zn90  1  0.69189284  0.19878084  0.83238894  1
  Zn  Zn91  1  0.24334626  0.76878544  -0.00100959  1
  Zn  Zn92  1  0.75374842  0.11718241  0.37463163  1
  Zn  Zn93  1  0.75462516  0.87326510  0.62551806  1
  Zn  Zn94  1  0.18582142  0.18129231  0.18416941  1
  Zn  Zn95  1  0.19590561  0.18883639  0.68955396  1
  Zn  Zn96  1  0.18665564  0.69086107  0.19130119  1
  Zn  Zn97  1  0.18942864  0.68860904  0.68864205  1
  Zn  Zn98  1  0.68649295  0.18650111  0.18289041  1
  Zn  Zn99  1  0.72005981  0.17089631  0.66309561  1
  Zn  Zn100  1  0.68900119  0.68443136  0.18241135  1
  Zn  Zn101  1  0.69589117  0.68551117  0.67498281  1
  Zn  Zn102  1  0.30572634  0.30883245  0.31233169  1
  Zn  Zn103  1  0.31060855  0.31097656  0.81519205  1
  Zn  Zn104  1  0.32517969  0.80904155  0.30643966  1
  Zn  Zn105  1  0.30829903  0.81480255  0.80990014  1
  Zn  Zn106  1  0.84100658  0.32915472  0.29491701  1
  Zn  Zn107  1  0.81755777  0.33035641  0.81550252  1
  Zn  Zn108  1  0.80925041  0.80773510  0.31509217  1
  Zn  Zn109  1  0.81402699  0.81397422  0.81412940  1
  Zn  Zn110  1  0.18382783  0.43916409  0.44233313  1
  Zn  Zn111  1  0.19060707  0.44626774  0.94226428  1
  Zn  Zn112  1  0.18293301  0.95639923  0.43645775  1
  Zn  Zn113  1  0.18436409  0.94554445  0.93112351  1
  Zn  Zn114  1  0.67513433  0.45157452  0.43862097  1
  Zn  Zn115  1  0.69006720  0.44041595  0.93598519  1
  Zn  Zn116  1  0.68788252  0.92958334  0.43538626  1
  Zn  Zn117  1  0.67848240  0.93543143  0.93955243  1
  Zn  Zn118  1  0.31467592  -0.06062269  0.05870981  1
  Zn  Zn119  1  0.31408587  0.06185787  0.56297850  1
  Zn  Zn120  1  0.31093740  0.56187573  0.06237329  1
  Zn  Zn121  1  0.31049652  0.55810231  0.56326918  1
  Zn  Zn122  1  0.81045327  0.05840119  0.05773379  1
  Zn  Zn123  1  0.84122366  0.08476282  0.54508737  1
  Zn  Zn124  1  0.80559593  0.56225208  0.05835294  1
  Zn  Zn125  1  0.81662356  0.56591872  0.56754938  1
  Zn  Zn126  1  0.43132017  0.44057734  0.19398907  1
  Zn  Zn127  1  0.42610873  0.44177019  0.69589905  1
  Zn  Zn128  1  0.44253022  0.93977762  0.19499364  1
  Zn  Zn129  1  0.44087020  0.93285872  0.68216895  1
  Zn  Zn130  1  0.93610014  0.44636822  0.18928892  1
  Zn  Zn131  1  0.94231179  0.43512033  0.68273243  1
  Zn  Zn132  1  0.93668090  0.93688425  0.18209577  1
  Zn  Zn133  1  0.93439049  0.93772095  0.69048594  1
  Zn  Zn134  1  0.06347874  0.06390707  0.30207726  1
  Zn  Zn135  1  0.05905097  0.06124132  0.79948377  1
  Zn  Zn136  1  0.05869328  0.56193972  0.31444007  1
  Zn  Zn137  1  0.06577776  0.56421305  0.81185817  1
  Zn  Zn138  1  0.56551488  0.05943894  0.31256452  1
  Zn  Zn139  1  0.58993733  0.08045507  0.78682275  1
  Zn  Zn140  1  0.56159649  0.56179769  0.31333124  1
  Zn  Zn141  1  0.57569289  0.58119147  0.77194573  1
  Zn  Zn142  1  0.43569040  0.18966036  0.43855703  1
  Zn  Zn143  1  0.43364289  0.18908183  0.93558357  1
  Zn  Zn144  1  0.44550752  0.66939186  0.44081953  1
  Zn  Zn145  1  0.43566754  0.69027135  0.94040862  1
  Zn  Zn146  1  0.94462657  0.19635258  0.43425086  1
  Zn  Zn147  1  0.95234920  0.17029240  0.88747984  1
  Zn  Zn148  1  0.94415737  0.69508365  0.43831785  1
  Zn  Zn149  1  0.94019881  0.68886277  0.93832254  1
  Zn  Zn150  1  0.06698415  0.30115116  0.05431032  1
  Zn  Zn151  1  0.06130120  0.30971675  0.55638736  1
  Zn  Zn152  1  0.06153608  0.81018309  0.06508712  1
  Zn  Zn153  1  0.06017110  0.82188525  0.56847192  1
  Zn  Zn154  1  0.56096353  0.31157389  0.06332726  1
  Zn  Zn155  1  0.53774255  0.38607264  0.58086831  1
  Zn  Zn156  1  0.56352818  0.81258374  0.06223559  1
  Zn  Zn157  1  0.56077456  0.81029837  0.56063569  1
  O  O158  1  0.11308747  0.10660312  0.13062101  1
  O  O159  1  0.12575132  0.11127260  0.63825750  1
  O  O160  1  0.12045564  0.62491677  0.11946267  1
  O  O161  1  0.13152294  0.62312200  0.61219423  1
  O  O162  1  0.61042991  0.12357825  0.11749986  1
  O  O163  1  0.63024472  0.11640698  0.60374793  1
  O  O164  1  0.61446282  0.62070459  0.11659929  1
  O  O165  1  0.60964077  0.61845471  0.66569503  1
  O  O166  1  0.37655461  0.38385405  0.36571375  1
  O  O167  1  0.37407458  0.38433336  0.88869884  1
  O  O168  1  0.39244684  0.88535880  0.36058126  1
  O  O169  1  0.38695055  0.88444511  0.86466925  1
  O  O170  1  0.86628817  0.38103355  0.39339488  1
  O  O171  1  0.89478007  0.38054301  0.88504853  1
  O  O172  1  0.88435381  0.87045112  0.38375649  1
  O  O173  1  0.86614264  0.88639889  0.88836334  1
  O  O174  1  0.26292051  0.01378186  0.37547656  1
  O  O175  1  0.26322339  -0.00549323  0.85806420  1
  O  O176  1  0.25565014  0.50371448  0.36508841  1
  O  O177  1  0.26136063  0.51702533  0.88343283  1
  O  O178  1  0.74791451  -0.00294805  0.35959673  1
  O  O179  1  0.74715007  -0.00243212  0.87433590  1
  O  O180  1  0.73765797  0.49903788  0.35726964  1
  O  O181  1  0.77156308  0.48661961  0.86627049  1
  O  O182  1  0.24753897  0.49267070  0.13602828  1
  O  O183  1  0.23307894  0.49714168  0.61733585  1
  O  O184  1  0.23358531  1.00144259  0.11861440  1
  O  O185  1  0.24354030  0.99639349  0.62966274  1
  O  O186  1  0.74023505  0.49518583  0.13058511  1
  O  O187  1  0.76079679  0.49460476  0.64238690  1
  O  O188  1  0.74580717  0.98684043  0.13023942  1
  O  O189  1  0.73756662  0.99575399  0.61446000  1
  O  O190  1  -0.04299046  0.36386980  0.26094908  1
  O  O191  1  0.00119957  0.36403876  0.76277012  1
  O  O192  1  -0.00626696  0.86978324  0.25801231  1
  O  O193  1  0.01108597  0.86367168  0.74446699  1
  O  O194  1  0.50295427  0.36605093  0.25256868  1
  O  O195  1  0.50450236  0.37537998  0.76219468  1
  O  O196  1  0.51449950  0.87431362  0.25776761  1
  O  O197  1  0.50550031  0.86574010  0.75659358  1
  O  O198  1  0.49752902  0.13098627  0.24496775  1
  O  O199  1  0.49703675  0.14264654  0.75247797  1
  O  O200  1  0.50361614  0.62340518  0.23473359  1
  O  O201  1  0.47656102  0.63901369  0.76397602  1
  O  O202  1  0.98417940  0.12034097  0.23524573  1
  O  O203  1  0.98825237  0.14378235  0.78012436  1
  O  O204  1  0.98671715  0.63021121  0.24728198  1
  O  O205  1  0.99601351  0.64269833  0.75617798  1
  O  O206  1  0.36152900  0.26439373  -0.00593359  1
  O  O207  1  0.37271649  0.24761017  0.51573476  1
  O  O208  1  0.37603824  0.74990290  0.01915893  1
  O  O209  1  0.38822564  0.72750557  0.52154715  1
  O  O210  1  0.86597379  0.26197922  0.01110464  1
  O  O211  1  0.86518119  0.26697250  0.50464645  1
  O  O212  1  0.86089771  0.75691370  -0.01189765  1
  O  O213  1  0.87306657  0.75412984  0.50716300  1
  O  O214  1  0.14152010  0.24695673  0.50162076  1
  O  O215  1  0.14303727  0.24605634  0.99038442  1
  O  O216  1  0.11354319  0.73626842  0.50166636  1
  O  O217  1  0.12655405  0.73670413  1.00540169  1
  O  O218  1  0.63150740  0.24472926  0.48604369  1
  O  O219  1  0.63430625  0.24494470  1.00652567  1
  O  O220  1  0.64180336  0.74961548  0.50968768  1
  O  O221  1  0.62842476  0.74441887  0.99015460  1
  O  O222  1  0.50268851  0.24229699  0.13694804  1
  O  O223  1  0.48513758  0.27106921  0.64084481  1
  O  O224  1  0.49478363  0.74115412  0.12380249  1
  O  O225  1  0.48950805  0.75591407  0.63726315  1
  O  O226  1  0.99291270  0.23878107  0.12081588  1
  O  O227  1  0.98068104  0.25492765  0.62320537  1
  O  O228  1  1.00137091  0.73656001  0.13933658  1
  O  O229  1  0.98976071  0.75377300  0.63220635  1
  O  O230  1  0.00731022  0.25598077  0.36773424  1
  O  O231  1  0.02371367  0.26385124  0.88938774  1
  O  O232  1  0.00150566  0.76154369  0.36153934  1
  O  O233  1  0.00026508  0.75691958  0.86553160  1
  O  O234  1  0.50877152  0.25316980  0.36404837  1
  O  O235  1  0.48028417  0.26800506  0.86283223  1
  O  O236  1  0.49090839  0.76035743  0.37958991  1
  O  O237  1  0.50368457  0.75931786  0.86960950  1
  O  O238  1  0.25509765  0.12857059  0.48757046  1
  O  O239  1  0.26329745  0.13559342  1.00702423  1
  O  O240  1  0.23738580  0.62015218  0.48701017  1
  O  O241  1  0.24179034  0.63138191  0.99668887  1
  O  O242  1  0.74632381  0.14104704  0.49106704  1
  O  O243  1  0.73739026  0.13666236  1.01052497  1
  O  O244  1  0.75189833  0.63252621  0.50624401  1
  O  O245  1  0.73467686  0.63602560  1.00409141  1
  O  O246  1  0.25822323  0.37750948  0.01379492  1
  O  O247  1  0.25395119  0.35997893  0.49467843  1
  O  O248  1  0.25055954  0.87959898  -0.00950525  1
  O  O249  1  0.23971229  0.87201229  0.48420666  1
  O  O250  1  0.75450806  0.37195403  0.01062391  1
  O  O251  1  0.75836698  0.37717401  0.50116313  1
  O  O252  1  0.75052091  0.86756870  0.00643522  1
  O  O253  1  0.76359546  0.86319180  0.49635735  1
  O  O254  1  0.13644729  0.50150811  0.24865287  1
  O  O255  1  0.11710858  0.50551405  0.73131718  1
  O  O256  1  0.12018535  0.98598760  0.23671532  1
  O  O257  1  0.13151863  0.99193830  0.74198988  1
  O  O258  1  0.63082369  0.49798694  0.23893120  1
  O  O259  1  0.64211928  0.49003439  0.77019947  1
  O  O260  1  0.63299912  0.99103728  0.24590948  1
  O  O261  1  0.60795154  0.98399929  0.73049603  1
  O  O262  1  0.38406965  0.01537605  0.26115146  1
  O  O263  1  0.37462724  0.00335820  0.74989781  1
  O  O264  1  0.35906926  0.50578986  0.25602745  1
  O  O265  1  0.37185980  0.51759771  0.76274825  1
  O  O266  1  0.86492399  0.01159940  0.23934901  1
  O  O267  1  0.87456215  -0.00936606  0.77024904  1
  O  O268  1  0.86449226  0.51943129  0.24604548  1
  O  O269  1  0.87737737  0.50551031  0.75703685  1
  O  O270  1  0.12594542  0.37314965  0.37443862  1
  O  O271  1  0.11661872  0.38507391  0.87991104  1
  O  O272  1  0.11414033  0.87768668  0.36188753  1
  O  O273  1  0.12392144  0.88246174  0.85433247  1
  O  O274  1  0.61443627  0.37207845  0.36607533  1
  O  O275  1  0.61117003  0.37925196  0.87776328  1
  O  O276  1  0.61555032  0.87331110  0.36232395  1
  O  O277  1  0.61356129  0.86828559  0.86628446  1
  O  O278  1  0.38550979  0.12319709  0.14276709  1
  O  O279  1  0.38311131  0.12515156  0.63384092  1
  O  O280  1  0.39096366  0.62311513  0.12207133  1
  O  O281  1  0.36342816  0.62797692  0.64284660  1
  O  O282  1  0.88022688  0.13031255  0.12315795  1
  O  O283  1  0.83672210  0.15836566  0.63271181  1
  O  O284  1  0.88357287  0.62603449  0.11866426  1
  O  O285  1  0.87933249  0.63258277  0.64066695  1
  O  O286  1  0.24628880  0.25944497  0.11426964  1
  O  O287  1  0.26248625  0.24184552  0.61318110  1
  O  O288  1  0.26121917  0.74832429  0.12255986  1
  O  O289  1  0.26177968  0.75191313  0.62397166  1
  O  O290  1  0.75406028  0.26129236  0.11780799  1
  O  O291  1  0.74402950  0.27452168  0.60712474  1
  O  O292  1  0.74219328  0.75925994  0.11090889  1
  O  O293  1  0.76708783  0.75226291  0.61760296  1
  O  O294  1  0.25492568  0.23742008  0.38767060  1
  O  O295  1  0.24389965  0.24609215  0.88644414  1
  O  O296  1  0.25697988  0.73184760  0.36562165  1
  O  O297  1  0.25830321  0.73778195  0.88183311  1
  O  O298  1  0.74004298  0.26178846  0.37800206  1
  O  O299  1  0.75774813  0.26575282  0.89200825  1
  O  O300  1  0.75178273  0.74564065  0.39055913  1
  O  O301  1  0.73528261  0.75678314  0.88275069  1
  O  O302  1  -0.00594213  0.10837594  0.00453020  1
  O  O303  1  -0.05309890  0.11828681  0.50997612  1
  O  O304  1  0.00879105  0.63312272  0.01334049  1
  O  O305  1  0.01159840  0.61647635  0.49507444  1
  O  O306  1  0.50022088  0.12320662  0.00798244  1
  O  O307  1  0.51298167  0.11591031  0.48738389  1
  O  O308  1  0.51141223  0.62881852  0.01019667  1
  O  O309  1  0.53826894  0.60214455  0.47485155  1
  O  O310  1  0.49805915  0.36326302  0.47779482  1
  O  O311  1  0.48456137  0.36674935  0.99750785  1
  O  O312  1  0.50926838  0.88222803  0.48180521  1
  O  O313  1  0.50781003  0.88539405  0.99043595  1
  O  O314  1  0.98644838  0.38119519  0.49767615  1
  O  O315  1  0.99338160  0.37537371  1.00132555  1
  O  O316  1  0.99133866  0.87168458  0.48495207  1
  O  O317  1  0.98713296  0.88223370  1.00852156  1
  O  O318  1  0.48088354  0.48847293  0.36109005  1
  O  O319  1  0.48296543  0.48789437  0.87386105  1
  O  O320  1  0.49606036  0.99405091  0.38082494  1
  O  O321  1  0.49404093  0.99263744  0.88112302  1
  O  O322  1  1.00629410  0.49654830  0.39413754  1
  O  O323  1  0.99557200  0.48783678  0.87027313  1
  O  O324  1  1.00311460  0.98810022  0.37271066  1
  O  O325  1  1.00323917  0.99947297  0.88947233  1
  O  O326  1  0.00087899  0.00452315  0.11391803  1
  O  O327  1  0.01007120  0.00033516  0.62962387  1
  O  O328  1  0.00159058  0.52040628  0.13405850  1
  O  O329  1  0.01117772  0.49450098  0.60930199  1
  O  O330  1  0.49747814  0.00767359  0.11547617  1
  O  O331  1  0.50894391  -0.01080637  0.60466965  1
  O  O332  1  0.51040219  0.50378111  0.12811316  1
  O  O333  1  0.48859670  0.48414229  0.61403923  1
  O  O334  1  0.25529419  0.38141696  0.23463919  1
  O  O335  1  0.26283117  0.38595684  0.74904649  1
  O  O336  1  0.23722990  0.87098451  0.25737869  1
  O  O337  1  0.23836171  0.88118572  0.74402524  1
  O  O338  1  0.74952399  0.38434443  0.23728425  1
  O  O339  1  0.74164893  0.38403759  0.74471529  1
  O  O340  1  0.74302658  0.87639313  0.24462004  1
  O  O341  1  0.73423186  0.86689831  0.74763969  1
  O  O342  1  0.26497777  0.13162906  0.25709088  1
  O  O343  1  0.26566623  0.11033822  0.74429453  1
  O  O344  1  0.24678367  0.61332709  0.25957242  1
  O  O345  1  0.25801555  0.63371156  0.76682503  1
  O  O346  1  0.75640065  0.11484799  0.24306563  1
  O  O347  1  0.69818989  0.11899581  0.75748719  1
  O  O348  1  0.76127603  0.62313855  0.24616677  1
  O  O349  1  0.76717507  0.61536497  0.75263806  1
  O  O350  1  0.37063957  0.11938310  0.36699186  1
  O  O351  1  0.38395006  0.11209382  0.86084332  1
  O  O352  1  0.36584211  0.61200016  0.37402298  1
  O  O353  1  0.36567444  0.62115580  0.87655504  1
  O  O354  1  0.87127147  0.13382058  0.35141850  1
  O  O355  1  0.86027782  0.10685644  0.88856619  1
  O  O356  1  0.87751093  0.62451741  0.36934665  1
  O  O357  1  0.88643923  0.61296064  0.86849364  1
  O  O358  1  0.13630330  0.37601649  0.11706035  1
  O  O359  1  0.12160573  0.37930087  0.62468045  1
  O  O360  1  0.11955134  0.88333486  0.13672671  1
  O  O361  1  0.12764625  0.88842714  0.63239348  1
  O  O362  1  0.63080335  0.38279449  0.12716258  1
  O  O363  1  0.62525214  0.36675277  0.65425506  1
  O  O364  1  0.63042058  0.87445167  0.13701323  1
  O  O365  1  0.62833125  0.87879296  0.62873757  1
  O  O366  1  0.12580076  0.24606849  0.25078230  1
  O  O367  1  0.13451624  0.24504852  0.76999267  1
  O  O368  1  0.11544367  0.76645493  0.24504001  1
  O  O369  1  0.11569907  0.75965278  0.74475228  1
  O  O370  1  0.62021880  0.25626903  0.25432252  1
  O  O371  1  0.61146090  0.26403989  0.76691492  1
  O  O372  1  0.63023774  0.75924247  0.24917001  1
  O  O373  1  0.61537812  0.75697272  0.75596253  1
  O  O374  1  0.38612340  0.23687905  0.25959546  1
  O  O375  1  0.37611328  0.24119375  0.73992548  1
  O  O376  1  0.37508014  0.74139481  0.22922548  1
  O  O377  1  0.37726895  0.74491544  0.74086981  1
  O  O378  1  0.86346287  0.23371211  0.22969283  1
  O  O379  1  0.86845302  0.26889300  0.73472064  1
  O  O380  1  0.87889300  0.73606937  0.25252028  1
  O  O381  1  0.88599237  0.74760895  0.74845718  1
  O  O382  1  0.36748524  0.50029541  0.48151663  1
  O  O383  1  0.37256359  0.48676495  0.99758038  1
  O  O384  1  0.38693617  1.00687596  0.48726405  1
  O  O385  1  0.38641360  1.00226761  0.98876324  1
  O  O386  1  0.88761217  0.49473571  0.50937029  1
  O  O387  1  0.86951148  0.49082496  0.99244837  1
  O  O388  1  0.87144006  0.97986211  0.50377605  1
  O  O389  1  0.88074299  0.99082145  0.99123985  1
  O  O390  1  0.10931409  -0.01177889  0.01169766  1
  O  O391  1  0.11518783  0.00645826  0.51327677  1
  O  O392  1  0.12848456  0.52059817  0.00616681  1
  O  O393  1  0.11716290  0.50942491  0.50990004  1
  O  O394  1  0.61221939  0.00981563  0.00248304  1
  O  O395  1  0.62229583  0.00609216  0.49787324  1
  O  O396  1  0.63283769  0.51091572  0.00746946  1
  O  O397  1  0.64303855  0.45795509  0.54483681  1
  O  O398  1  0.36747241  0.37769543  0.11583852  1
  O  O399  1  0.36080934  0.36580499  0.63264030  1
  O  O400  1  0.37473973  0.87091111  0.13199989  1
  O  O401  1  0.37110469  0.86174234  0.62058010  1
  O  O402  1  0.86779305  0.37201418  0.11931194  1
  O  O403  1  0.86373746  0.37203424  0.61414838  1
  O  O404  1  0.86225168  0.87671942  0.11313286  1
  O  O405  1  0.87742674  0.86758035  0.61249882  1
  O  O406  1  0.14298285  0.11850030  0.36798114  1
  O  O407  1  0.12782325  0.12683149  0.87939595  1
  O  O408  1  0.13687447  0.62198133  0.38078614  1
  O  O409  1  0.13782085  0.62229568  0.88521243  1
  O  O410  1  0.63133853  0.13552115  0.37649499  1
  O  O411  1  0.61113113  0.13046179  0.89349927  1
  O  O412  1  0.60053436  0.59221029  0.41853552  1
  O  O413  1  0.61359099  0.63775422  0.87729838  1
