# generated using pymatgen
data_V79Zn79O256
_symmetry_space_group_name_H-M   'P 1'
_cell_length_a   16.99968203
_cell_length_b   17.02600675
_cell_length_c   17.01964743
_cell_angle_alpha   90.10477540
_cell_angle_beta   89.89815269
_cell_angle_gamma   89.96504577
_symmetry_Int_Tables_number   1
_chemical_formula_structural   V79Zn79O256
_chemical_formula_sum   'V79 Zn79 O256'
_cell_volume   4926.09365644
_cell_formula_units_Z   1
loop_
 _symmetry_equiv_pos_site_id
 _symmetry_equiv_pos_as_xyz
  1  'x, y, z'
loop_
 _atom_site_type_symbol
 _atom_site_label
 _atom_site_symmetry_multiplicity
 _atom_site_fract_x
 _atom_site_fract_y
 _atom_site_fract_z
 _atom_site_occupancy
  V  V0  1  0.49988781  0.37393408  0.38037567  1
  V  V1  1  0.11685485  0.75116076  0.37322366  1
  V  V2  1  0.50628388  0.75401133  0.75202152  1
  V  V3  1  0.50196568  -0.00072690  0.00005303  1
  V  V4  1  0.37715856  0.87289823  0.49997299  1
  V  V5  1  0.87337552  0.62685962  0.75327835  1
  V  V6  1  0.37711204  0.86523849  0.00107673  1
  V  V7  1  0.62717911  0.49692358  0.11903115  1
  V  V8  1  0.37433032  0.00194778  0.87382751  1
  V  V9  1  0.86090011  0.12223179  0.74166772  1
  V  V10  1  0.62732112  0.00311052  0.62977336  1
  V  V11  1  0.24217038  0.12437163  0.89218116  1
  V  V12  1  0.50438301  0.87628900  0.37505195  1
  V  V13  1  0.74852561  0.11988660  0.37090561  1
  V  V14  1  0.74538921  0.63891179  0.88149935  1
  V  V15  1  0.25449245  0.27512465  0.50688743  1
  V  V16  1  0.62391010  0.12541444  0.50206125  1
  V  V17  1  0.90006209  0.63929559  0.25339820  1
  V  V18  1  0.49680223  0.48455461  -0.01408071  1
  V  V19  1  0.86388997  0.87523172  -0.00042096  1
  V  V20  1  0.62408269  0.50268192  0.61857898  1
  V  V21  1  -0.00754980  0.49431411  0.50441731  1
  V  V22  1  0.50547265  0.12237835  0.12302364  1
  V  V23  1  0.12926080  0.36600778  0.75702903  1
  V  V24  1  0.85253673  0.00559080  0.86316883  1
  V  V25  1  0.12608767  0.87321254  0.74657047  1
  V  V26  1  0.86932664  -0.01080013  0.37183157  1
  V  V27  1  0.76066372  0.36831444  0.62626002  1
  V  V28  1  0.37898542  0.75186436  0.12868709  1
  V  V29  1  0.50380029  0.87138892  0.87533556  1
  V  V30  1  0.62715319  0.24767163  0.37553515  1
  V  V31  1  0.25396880  0.87232736  0.61807043  1
  V  V32  1  0.62385027  0.25618044  0.88262226  1
  V  V33  1  0.12528927  0.48944451  0.63869216  1
  V  V34  1  0.50137372  0.00118910  0.50087401  1
  V  V35  1  0.24219465  -0.00372421  0.24783135  1
  V  V36  1  -0.00427316  0.24633891  0.74857808  1
  V  V37  1  0.24996955  0.87827809  0.12985998  1
  V  V38  1  0.62735155  0.88018799  0.75193202  1
  V  V39  1  0.00022719  0.62964916  0.62759054  1
  V  V40  1  0.38005719  -0.00220699  0.37342080  1
  V  V41  1  0.26123417  0.63332186  0.39099458  1
  V  V42  1  0.24524297  0.12898901  0.37511678  1
  V  V43  1  -0.00063563  0.89921244  0.86968781  1
  V  V44  1  0.85801294  0.38988492  -0.01022194  1
  V  V45  1  0.74805572  0.49918472  0.75141856  1
  V  V46  1  0.88381820  0.13055217  0.25284269  1
  V  V47  1  0.50507287  0.75139450  0.24717232  1
  V  V48  1  0.37551792  0.49793390  0.37167426  1
  V  V49  1  0.60665599  0.36988273  0.75074400  1
  V  V50  1  0.37340183  0.74862537  0.62100298  1
  V  V51  1  0.38287946  0.12025850  0.24935516  1
  V  V52  1  -0.00149895  0.13079010  0.61711702  1
  V  V53  1  0.13898623  0.63197404  0.51489513  1
  V  V54  1  0.49589148  0.13945690  0.62706934  1
  V  V55  1  0.74450421  0.51440229  0.25906513  1
  V  V56  1  0.36855413  0.25201610  0.11251492  1
  V  V57  1  0.37233356  0.62371009  0.77136046  1
  V  V58  1  0.49955700  0.50105966  0.50053292  1
  V  V59  1  0.86823796  0.24229225  0.10672611  1
  V  V60  1  0.74890016  0.87885249  0.62458677  1
  V  V61  1  0.64833117  -0.00343897  0.12592241  1
  V  V62  1  0.63055052  0.37233446  0.24935816  1
  V  V63  1  -0.00157260  0.75518190  0.75676207  1
  V  V64  1  0.74412178  0.73584619  0.50103479  1
  V  V65  1  0.05611093  0.06476555  0.06548658  1
  V  V66  1  0.12395660  0.00383554  0.61563888  1
  V  V67  1  0.00023522  -0.00947119  0.49082009  1
  V  V68  1  0.64761591  0.12376027  -0.00622288  1
  V  V69  1  0.64348388  0.87657818  0.24517457  1
  V  V70  1  0.87231202  0.75306899  0.62372539  1
  V  V71  1  0.50570378  0.62726933  0.62149825  1
  V  V72  1  0.37677094  0.13770086  0.74341157  1
  V  V73  1  0.25167811  0.00722217  0.74564141  1
  V  V74  1  0.76181506  0.24829257  0.50497749  1
  V  V75  1  0.19854263  0.42045350  0.16643918  1
  V  V76  1  0.61358315  0.63933130  -0.00604329  1
  V  V77  1  0.37576886  0.62328293  0.25181340  1
  V  V78  1  0.62951633  0.73913766  0.37867139  1
  Zn  Zn79  1  0.11740291  0.23765757  0.91003132  1
  Zn  Zn80  1  0.87741935  0.50067750  0.86863123  1
  Zn  Zn81  1  0.23363486  0.66338200  0.89115391  1
  Zn  Zn82  1  0.50125259  0.62027864  0.12498706  1
  Zn  Zn83  1  0.01182617  0.29114858  0.24674562  1
  Zn  Zn84  1  -0.00811695  0.37185578  0.87432138  1
  Zn  Zn85  1  0.01229257  0.61003896  0.12482076  1
  Zn  Zn86  1  0.26826846  0.37310912  0.63471356  1
  Zn  Zn87  1  0.73929333  0.36569609  0.11026838  1
  Zn  Zn88  1  0.18801016  0.72187539  0.05277364  1
  Zn  Zn89  1  0.50417824  0.25000165  0.24667405  1
  Zn  Zn90  1  0.87566426  0.86759392  0.49499699  1
  Zn  Zn91  1  0.87781259  0.50045766  0.37658105  1
  Zn  Zn92  1  -0.00090334  0.51434670  -0.00433528  1
  Zn  Zn93  1  0.93379555  0.33621055  0.43714858  1
  Zn  Zn94  1  0.15512162  0.24251414  0.13178167  1
  Zn  Zn95  1  0.18450026  0.19039317  0.67589658  1
  Zn  Zn96  1  0.17473700  0.64246461  0.20856447  1
  Zn  Zn97  1  0.16749817  0.66004608  0.73036550  1
  Zn  Zn98  1  0.69245395  0.18251057  0.18610462  1
  Zn  Zn99  1  0.68077083  0.19281543  0.68909125  1
  Zn  Zn100  1  0.71350438  0.66869498  0.15935967  1
  Zn  Zn101  1  0.68775731  0.69103479  0.68936689  1
  Zn  Zn102  1  0.31766610  0.30999027  0.29698376  1
  Zn  Zn103  1  0.30146254  0.29896498  0.81608136  1
  Zn  Zn104  1  0.31068452  0.80995319  0.31502061  1
  Zn  Zn105  1  0.32047550  0.81527294  0.80537295  1
  Zn  Zn106  1  0.84201535  0.34046322  0.28945315  1
  Zn  Zn107  1  0.80269587  0.30185406  0.81287513  1
  Zn  Zn108  1  0.81299413  0.80076050  0.31448058  1
  Zn  Zn109  1  0.81219583  0.81546973  0.81192016  1
  Zn  Zn110  1  0.18941968  0.45297372  0.45023334  1
  Zn  Zn111  1  0.16731146  0.39059003  0.98514426  1
  Zn  Zn112  1  0.18860202  0.93758528  0.43256497  1
  Zn  Zn113  1  0.18491319  0.84418103  0.93375587  1
  Zn  Zn114  1  0.72617290  0.41385472  0.42162868  1
  Zn  Zn115  1  0.68262519  0.44269577  0.93266639  1
  Zn  Zn116  1  0.68698293  0.93274537  0.44115213  1
  Zn  Zn117  1  0.68723461  0.94545338  0.93290884  1
  Zn  Zn118  1  0.31726154  0.05980177  0.06530516  1
  Zn  Zn119  1  0.31504325  0.06543465  0.55868633  1
  Zn  Zn120  1  0.17966996  0.55552168  0.05291103  1
  Zn  Zn121  1  0.32297129  0.54315911  0.58112019  1
  Zn  Zn122  1  0.88695430  0.06098181  0.05667987  1
  Zn  Zn123  1  0.81387991  0.06091379  0.55856953  1
  Zn  Zn124  1  0.85615425  0.68098590  0.05243940  1
  Zn  Zn125  1  0.81010248  0.56159453  0.56998447  1
  Zn  Zn126  1  0.44166919  0.43644918  0.18468122  1
  Zn  Zn127  1  0.43297476  0.44661223  0.69767784  1
  Zn  Zn128  1  0.44787817  0.93561682  0.18632006  1
  Zn  Zn129  1  0.43979623  0.94352915  0.68648660  1
  Zn  Zn130  1  0.92778368  0.44735678  0.17208376  1
  Zn  Zn131  1  0.94087257  0.43634089  0.68775746  1
  Zn  Zn132  1  0.92047605  0.94200380  0.18731120  1
  Zn  Zn133  1  0.93556479  0.94205844  0.68292734  1
  Zn  Zn134  1  0.09849311  0.11827008  0.24544146  1
  Zn  Zn135  1  0.06705384  0.06767927  0.80423285  1
  Zn  Zn136  1  0.06556862  0.56723473  0.32945420  1
  Zn  Zn137  1  0.09671506  0.53121944  0.85857686  1
  Zn  Zn138  1  0.56765579  0.05709500  0.30983713  1
  Zn  Zn139  1  0.56007169  0.06821139  0.81264032  1
  Zn  Zn140  1  0.56322997  0.55994724  0.31106383  1
  Zn  Zn141  1  0.56119144  0.56450057  0.81162131  1
  Zn  Zn142  1  0.43366006  0.18914182  0.44062157  1
  Zn  Zn143  1  0.44119301  0.18710120  0.93058226  1
  Zn  Zn144  1  0.44686423  0.68679157  0.43997051  1
  Zn  Zn145  1  0.36768187  0.62071901  0.98665326  1
  Zn  Zn146  1  0.94572504  0.17246269  0.42974934  1
  Zn  Zn147  1  0.93586983  0.18146665  0.92622918  1
  Zn  Zn148  1  0.93379073  0.68135732  0.43748426  1
  Zn  Zn149  1  1.00944175  0.73019566  0.97020258  1
  Zn  Zn150  1  0.03434675  0.33504628  0.07156739  1
  Zn  Zn151  1  0.11251651  0.24344770  0.36925732  1
  Zn  Zn152  1  0.06959502  0.88916126  0.05295471  1
  Zn  Zn153  1  0.06465426  0.81208491  0.56168004  1
  Zn  Zn154  1  0.55740673  0.30932923  0.05845602  1
  Zn  Zn155  1  0.56959738  0.31731584  0.56085734  1
  Zn  Zn156  1  0.69672344  0.81016406  0.06130040  1
  Zn  Zn157  1  0.56292433  0.81365143  0.56280759  1
  O  O158  1  0.11278893  0.12893726  0.12428171  1
  O  O159  1  0.11215378  0.11279192  0.62611163  1
  O  O160  1  0.12151175  0.64825641  0.11003070  1
  O  O161  1  0.11374475  0.62388974  0.63260221  1
  O  O162  1  0.62387087  0.11677211  0.11508571  1
  O  O163  1  0.61747024  0.11929921  0.62275128  1
  O  O164  1  0.62604779  0.61554339  0.10647102  1
  O  O165  1  0.61373963  0.61626479  0.63953835  1
  O  O166  1  0.39317088  0.38326194  0.36124607  1
  O  O167  1  0.34841667  0.38631538  0.88572265  1
  O  O168  1  0.38363159  0.87813222  0.38082273  1
  O  O169  1  0.38414254  0.88310491  0.88132182  1
  O  O170  1  0.84314799  0.39144370  0.39314394  1
  O  O171  1  0.86399039  0.37224094  0.87869213  1
  O  O172  1  0.86512174  0.88664473  0.37492246  1
  O  O173  1  0.88225095  0.89245459  0.86023315  1
  O  O174  1  0.25987558  0.00001813  0.36254425  1
  O  O175  1  0.25580804  0.01329648  0.85716421  1
  O  O176  1  0.27131327  0.51095695  0.38518117  1
  O  O177  1  0.29470658  0.43202267  0.91069229  1
  O  O178  1  0.76159692  0.00825546  0.39167262  1
  O  O179  1  0.75460112  -0.00198931  0.85641681  1
  O  O180  1  0.72970619  0.50624493  0.36005101  1
  O  O181  1  0.74756724  0.50885769  0.85894342  1
  O  O182  1  0.18609539  0.52345220  0.16989035  1
  O  O183  1  0.22113485  0.51497428  0.63669565  1
  O  O184  1  0.26706991  0.98920223  0.14007349  1
  O  O185  1  0.24368096  0.99666687  0.62657588  1
  O  O186  1  0.73003474  0.49331155  0.13827898  1
  O  O187  1  0.74229695  0.48988093  0.63198684  1
  O  O188  1  0.74398739  1.00501024  0.12280610  1
  O  O189  1  0.73690081  0.99169640  0.61586114  1
  O  O190  1  -0.05455101  0.37838192  0.25816503  1
  O  O191  1  -0.00008383  0.35884027  0.74866264  1
  O  O192  1  -0.00590524  0.84940121  0.21969935  1
  O  O193  1  0.00570079  0.87484105  0.74931423  1
  O  O194  1  0.51644538  0.37197397  0.26210765  1
  O  O195  1  0.50883280  0.38405565  0.75041140  1
  O  O196  1  0.50781118  0.86636790  0.25738179  1
  O  O197  1  0.50701449  0.87396523  0.75412462  1
  O  O198  1  0.50052849  0.11994414  0.23944910  1
  O  O199  1  0.48858928  0.11834594  0.73849940  1
  O  O200  1  0.49519350  0.63566616  0.25136742  1
  O  O201  1  0.49507903  0.63859870  0.74773832  1
  O  O202  1  0.98115127  0.11813963  0.25656668  1
  O  O203  1  0.99625541  0.12952133  0.73652474  1
  O  O204  1  1.00380047  0.61706940  0.24636973  1
  O  O205  1  0.98860135  0.63941436  0.74132468  1
  O  O206  1  0.38472405  0.24001618  0.01305149  1
  O  O207  1  0.35150703  0.25179252  0.48164334  1
  O  O208  1  0.38405092  0.76020195  0.01481380  1
  O  O209  1  0.38807767  0.75732522  0.51315150  1
  O  O210  1  0.86791202  0.23128631  0.00734574  1
  O  O211  1  0.86172359  0.24512561  0.49228104  1
  O  O212  1  0.88781899  0.77663722  -0.01487937  1
  O  O213  1  0.86372773  0.74913149  0.50476995  1
  O  O214  1  0.16265754  0.25450068  0.46932651  1
  O  O215  1  0.12616818  0.28570171  1.01323260  1
  O  O216  1  0.12828453  0.73564191  0.50273760  1
  O  O217  1  0.10817716  0.78654290  1.00095682  1
  O  O218  1  0.63272670  0.24287528  0.49397007  1
  O  O219  1  0.62694181  0.23722996  0.99087711  1
  O  O220  1  0.62826264  0.75671554  0.48638447  1
  O  O221  1  0.62448446  0.73650279  1.00287660  1
  O  O222  1  0.50473722  0.23009608  0.12452740  1
  O  O223  1  0.50596992  0.23749981  0.61579021  1
  O  O224  1  0.49528237  0.74948170  0.14222416  1
  O  O225  1  0.49722512  0.74557967  0.63125220  1
  O  O226  1  0.96747968  0.25838397  0.13403261  1
  O  O227  1  0.99678015  0.22962808  0.62801863  1
  O  O228  1  1.01364374  0.81145409  0.15780061  1
  O  O229  1  0.99214920  0.74848537  0.63245197  1
  O  O230  1  -0.00285281  0.25911692  0.38138775  1
  O  O231  1  0.00696607  0.24303442  0.86114975  1
  O  O232  1  0.01725935  0.74135090  0.38619618  1
  O  O233  1  -0.00241404  0.76966068  0.85833513  1
  O  O234  1  0.51286915  0.25533303  0.37918402  1
  O  O235  1  0.52462004  0.23101643  0.86812425  1
  O  O236  1  0.51141971  0.75697169  0.37050704  1
  O  O237  1  0.49911273  0.76855323  0.86237709  1
  O  O238  1  0.25696459  0.11712728  0.47646828  1
  O  O239  1  0.25100632  0.11125710  0.98939887  1
  O  O240  1  0.24735792  0.61209365  0.50431985  1
  O  O241  1  0.25216562  0.63573627  1.00222099  1
  O  O242  1  0.74401475  0.13159253  0.49713393  1
  O  O243  1  0.74252410  0.11852363  1.00032438  1
  O  O244  1  0.74495682  0.63747857  0.51390644  1
  O  O245  1  0.74910195  0.62851306  0.98144986  1
  O  O246  1  0.24095290  0.41098698  0.07498454  1
  O  O247  1  0.25307051  0.37900412  0.50639553  1
  O  O248  1  0.26651575  0.88158121  0.01742944  1
  O  O249  1  0.26087116  0.88558333  0.51199527  1
  O  O250  1  0.75147163  0.37222706  -0.00866654  1
  O  O251  1  0.73881900  0.36328263  0.52047501  1
  O  O252  1  0.75757856  0.87276205  -0.01509911  1
  O  O253  1  0.74899543  0.86441310  0.51298549  1
  O  O254  1  0.11839363  0.45935954  0.29904073  1
  O  O255  1  0.10932852  0.47596276  0.74791092  1
  O  O256  1  0.14473779  1.00561824  0.24550233  1
  O  O257  1  0.13238099  0.99379813  0.73545866  1
  O  O258  1  0.62477019  0.49115893  0.24193974  1
  O  O259  1  0.63116514  0.49146284  0.74399850  1
  O  O260  1  0.62430833  0.98345917  0.24134474  1
  O  O261  1  0.61839731  0.99411368  0.73802366  1
  O  O262  1  0.38579282  0.00530592  0.25660752  1
  O  O263  1  0.36683231  0.00489068  0.75308955  1
  O  O264  1  0.39285861  0.51310828  0.26020723  1
  O  O265  1  0.38913028  0.52582541  0.76881699  1
  O  O266  1  0.87212292  0.00497398  0.26705639  1
  O  O267  1  0.87467859  0.01154658  0.75198849  1
  O  O268  1  0.84904699  0.50536940  0.25148785  1
  O  O269  1  0.86495866  0.50941136  0.74477104  1
  O  O270  1  0.12637476  0.40985926  0.35900007  1
  O  O271  1  0.12051557  0.36214599  0.85992753  1
  O  O272  1  0.13808323  0.84963660  0.38436256  1
  O  O273  1  0.10821394  0.89172104  0.85755288  1
  O  O274  1  0.62437489  0.36287756  0.36989063  1
  O  O275  1  0.62626460  0.36458720  0.86288203  1
  O  O276  1  0.62176922  0.87430992  0.36506591  1
  O  O277  1  0.61556961  0.88829378  0.86140989  1
  O  O278  1  0.38843247  0.12531055  0.13113828  1
  O  O279  1  0.38478426  0.11903106  0.63115871  1
  O  O280  1  0.38053888  0.64052477  0.13724597  1
  O  O281  1  0.39137275  0.63354081  0.62883175  1
  O  O282  1  0.86511116  0.13239495  0.14188227  1
  O  O283  1  0.88793739  0.11219004  0.63399132  1
  O  O284  1  0.87551248  0.62071597  0.15572316  1
  O  O285  1  0.87945286  0.63348460  0.63514174  1
  O  O286  1  0.27030377  0.24095133  0.12635409  1
  O  O287  1  0.24868749  0.25699828  0.61071502  1
  O  O288  1  0.26710308  0.76749027  0.13307854  1
  O  O289  1  0.26631343  0.76608898  0.63136328  1
  O  O290  1  0.76469381  0.25319050  0.13610411  1
  O  O291  1  0.74649404  0.26112152  0.62083444  1
  O  O292  1  0.77231209  0.74161352  0.10682126  1
  O  O293  1  0.75166810  0.75840553  0.61931716  1
  O  O294  1  0.25989313  0.22770410  0.35318266  1
  O  O295  1  0.24295921  0.22862569  0.88090017  1
  O  O296  1  0.25859541  0.73591647  0.38740979  1
  O  O297  1  0.24371983  0.77419962  0.87141023  1
  O  O298  1  0.73725299  0.23818607  0.38701829  1
  O  O299  1  0.72049863  0.23589725  0.85441510  1
  O  O300  1  0.73651560  0.75149209  0.38577168  1
  O  O301  1  0.74814543  0.73662355  0.86246614  1
  O  O302  1  -0.00980953  0.11405136  0.00249902  1
  O  O303  1  -0.00647085  0.10868898  0.51174006  1
  O  O304  1  -0.03362867  0.63928354  0.01958714  1
  O  O305  1  0.00893512  0.62616223  0.51922457  1
  O  O306  1  0.50281123  0.11011994  0.00642377  1
  O  O307  1  0.50368179  0.11987785  0.50695462  1
  O  O308  1  0.51200199  0.62392744  -0.00001663  1
  O  O309  1  0.50541861  0.61759288  0.51239695  1
  O  O310  1  0.51008999  0.38545626  0.48853763  1
  O  O311  1  0.50218877  0.38424708  0.99667556  1
  O  O312  1  0.49728916  0.88192975  0.49477848  1
  O  O313  1  0.49493161  0.88826475  0.98915426  1
  O  O314  1  0.99521840  0.39541870  0.51361640  1
  O  O315  1  0.96586314  0.36565640  0.98872494  1
  O  O316  1  0.99391976  0.88652670  0.50789556  1
  O  O317  1  0.98474235  0.88989961  0.97281857  1
  O  O318  1  0.50120701  0.49285976  0.38293006  1
  O  O319  1  0.50849942  0.50030074  0.88722705  1
  O  O320  1  0.49985223  0.99500109  0.38196323  1
  O  O321  1  0.49390845  0.99624431  0.88082107  1
  O  O322  1  1.00041904  0.50874060  0.40246301  1
  O  O323  1  0.99124437  0.49204619  0.88127786  1
  O  O324  1  0.98370766  0.99900593  0.39000010  1
  O  O325  1  0.99140670  0.99874417  0.85819354  1
  O  O326  1  -0.01067745  0.00772978  0.12178209  1
  O  O327  1  0.00854652  0.00393324  0.61646967  1
  O  O328  1  0.00287174  0.49537924  0.10688958  1
  O  O329  1  0.00531169  0.51146093  0.62574408  1
  O  O330  1  0.51003264  0.00556974  0.11585426  1
  O  O331  1  0.51061235  0.00572553  0.61776370  1
  O  O332  1  0.51398855  0.50075394  0.11952696  1
  O  O333  1  0.50673908  0.50951672  0.61992877  1
  O  O334  1  0.25910176  0.38533694  0.23954372  1
  O  O335  1  0.23283593  0.36173054  0.74833538  1
  O  O336  1  0.26446582  0.88711345  0.24329097  1
  O  O337  1  0.24536524  0.88903360  0.73734358  1
  O  O338  1  0.73623813  0.38311610  0.25106438  1
  O  O339  1  0.74267753  0.38051650  0.73922246  1
  O  O340  1  0.74085265  0.86914640  0.25580436  1
  O  O341  1  0.73748442  0.86893243  0.73621496  1
  O  O342  1  0.26965207  0.10363253  0.25592614  1
  O  O343  1  0.25624333  0.11702465  0.73907885  1
  O  O344  1  0.27128257  0.62849614  0.27080999  1
  O  O345  1  0.27884504  0.63793350  0.73788799  1
  O  O346  1  0.75088221  0.12112388  0.26802494  1
  O  O347  1  0.76308899  0.12700238  0.73175914  1
  O  O348  1  0.73466981  0.61469132  0.25262149  1
  O  O349  1  0.75382973  0.61722669  0.74864609  1
  O  O350  1  0.37861457  0.11466194  0.36477327  1
  O  O351  1  0.36469835  0.12037381  0.86522263  1
  O  O352  1  0.37947537  0.61967033  0.37273664  1
  O  O353  1  0.36247700  0.64455910  0.87087642  1
  O  O354  1  0.86636209  0.11204676  0.36981770  1
  O  O355  1  0.87207390  0.11210170  0.85698473  1
  O  O356  1  0.88117326  0.61556378  0.35835287  1
  O  O357  1  0.85896045  0.62309812  0.85800736  1
  O  O358  1  0.11219524  0.35957948  0.15612190  1
  O  O359  1  0.12856870  0.38821925  0.63349367  1
  O  O360  1  0.15227193  0.87762848  0.13236342  1
  O  O361  1  0.13451701  0.88406500  0.62697437  1
  O  O362  1  0.62247102  0.37506119  0.13282806  1
  O  O363  1  0.62667656  0.38427708  0.63815933  1
  O  O364  1  0.63619408  0.87829191  0.13751264  1
  O  O365  1  0.62856308  0.88488079  0.63090694  1
  O  O366  1  0.10896722  0.23410183  0.25200856  1
  O  O367  1  0.11154551  0.25878346  0.73641035  1
  O  O368  1  0.13580407  0.72923654  0.27658260  1
  O  O369  1  0.11398720  0.76847617  0.73764950  1
  O  O370  1  0.62657614  0.25266898  0.25962744  1
  O  O371  1  0.61709751  0.26769447  0.74683933  1
  O  O372  1  0.62117336  0.76322874  0.26339833  1
  O  O373  1  0.61414633  0.76553770  0.74117478  1
  O  O374  1  0.38715389  0.23126539  0.24179700  1
  O  O375  1  0.37095667  0.23672304  0.75228393  1
  O  O376  1  0.38628512  0.74577076  0.24932878  1
  O  O377  1  0.39131273  0.75186624  0.73853781  1
  O  O378  1  0.86790587  0.22949695  0.26194336  1
  O  O379  1  0.88257012  0.23151089  0.75515705  1
  O  O380  1  0.88564160  0.73862577  0.25902604  1
  O  O381  1  0.87978517  0.74594313  0.74330902  1
  O  O382  1  0.39491124  0.50761646  0.48599044  1
  O  O383  1  0.40192800  0.51457432  1.00797053  1
  O  O384  1  0.38368803  0.99283446  0.49314421  1
  O  O385  1  0.38512142  0.99183471  0.99513717  1
  O  O386  1  0.88953968  0.51543276  0.50643787  1
  O  O387  1  0.86177865  0.48889271  0.99111292  1
  O  O388  1  0.88261525  0.99412360  0.49325299  1
  O  O389  1  0.86542645  0.99206240  0.97096752  1
  O  O390  1  0.11213164  -0.00366687  0.01865485  1
  O  O391  1  0.11173187  -0.00768359  0.50387991  1
  O  O392  1  0.12504873  0.49664474  -0.02839720  1
  O  O393  1  0.11339908  0.51226605  0.51982786  1
  O  O394  1  0.62242422  0.00649214  0.00733443  1
  O  O395  1  0.62026977  0.00618732  0.50853871  1
  O  O396  1  0.61672605  0.50488632  0.00384022  1
  O  O397  1  0.61829477  0.49725169  0.51675318  1
  O  O398  1  0.39409114  0.34750147  0.13472278  1
  O  O399  1  0.35583224  0.43811587  0.62229302  1
  O  O400  1  0.38057619  0.86901195  0.11894489  1
  O  O401  1  0.37332682  0.87098990  0.62058232  1
  O  O402  1  0.86014258  0.36389416  0.10016079  1
  O  O403  1  0.85860436  0.37797645  0.62887754  1
  O  O404  1  0.87308976  0.89058010  0.09727546  1
  O  O405  1  0.86275943  0.87110010  0.62663445  1
  O  O406  1  0.14499257  0.11936720  0.36094589  1
  O  O407  1  0.13718946  0.12193838  0.87527455  1
  O  O408  1  0.14226701  0.62817083  0.39516938  1
  O  O409  1  0.14332405  0.62783648  0.83641685  1
  O  O410  1  0.62941225  0.12723833  0.38125276  1
  O  O411  1  0.62704914  0.11730218  0.89216801  1
  O  O412  1  0.61776059  0.64219018  0.37222724  1
  O  O413  1  0.63499313  0.62211795  0.88430533  1
