# generated using pymatgen
data_V79Zn79O256
_symmetry_space_group_name_H-M   'P 1'
_cell_length_a   16.95350673
_cell_length_b   16.96837863
_cell_length_c   16.89823839
_cell_angle_alpha   90.14124615
_cell_angle_beta   89.93471808
_cell_angle_gamma   89.82018051
_symmetry_Int_Tables_number   1
_chemical_formula_structural   V79Zn79O256
_chemical_formula_sum   'V79 Zn79 O256'
_cell_volume   4861.13383370
_cell_formula_units_Z   1
loop_
 _symmetry_equiv_pos_site_id
 _symmetry_equiv_pos_as_xyz
  1  'x, y, z'
loop_
 _atom_site_type_symbol
 _atom_site_label
 _atom_site_symmetry_multiplicity
 _atom_site_fract_x
 _atom_site_fract_y
 _atom_site_fract_z
 _atom_site_occupancy
  V  V0  1  0.36869073  0.87765576  0.50526201  1
  V  V1  1  0.86694606  0.24955599  0.62700353  1
  V  V2  1  0.24808942  0.75513703  0.50175948  1
  V  V3  1  0.61864296  0.62726690  0.00080656  1
  V  V4  1  0.61875777  0.87585458  0.25641585  1
  V  V5  1  0.24619079  0.74145645  -0.01009555  1
  V  V6  1  -0.02196593  0.37406701  0.88042182  1
  V  V7  1  0.49078891  0.25137804  0.74364367  1
  V  V8  1  0.13339248  0.12658295  -0.01000752  1
  V  V9  1  0.00182918  0.12508188  0.12187063  1
  V  V10  1  0.61780358  0.50127153  0.12289104  1
  V  V11  1  0.38828999  0.37705884  -0.00240948  1
  V  V12  1  0.13520467  0.26501581  0.86896813  1
  V  V13  1  0.87920933  -0.00758002  0.37445573  1
  V  V14  1  0.75436036  0.11960306  0.87087818  1
  V  V15  1  0.75391429  0.75114720  0.00367596  1
  V  V16  1  0.61869660  0.75630108  0.37743910  1
  V  V17  1  0.50067295  0.24973109  0.25215554  1
  V  V18  1  -0.00461574  0.00259366  -0.01200521  1
  V  V19  1  0.00124575  0.24989183  0.24939358  1
  V  V20  1  0.49466272  0.37849987  0.38230988  1
  V  V21  1  0.62782108  0.60471302  0.50522534  1
  V  V22  1  0.13902287  0.12862804  0.49507465  1
  V  V23  1  0.74824512  0.00274636  0.25559064  1
  V  V24  1  0.74760302  0.49867558  0.73679986  1
  V  V25  1  0.00928492  0.85986886  0.86170363  1
  V  V26  1  0.11601312  0.75566116  0.36929191  1
  V  V27  1  0.50582711  0.11769591  0.62447401  1
  V  V28  1  0.25041992  -0.01063905  0.76392059  1
  V  V29  1  0.37448261  0.61040300  0.25531740  1
  V  V30  1  0.26202351  0.86735675  0.12788288  1
  V  V31  1  0.13586379  -0.01012453  0.62805089  1
  V  V32  1  0.11254104  0.87255558  0.24821165  1
  V  V33  1  -0.00157479  0.12228248  0.62447776  1
  V  V34  1  0.12108768  0.62456147  0.49586820  1
  V  V35  1  0.36852568  0.11677157  0.75764728  1
  V  V36  1  0.63807157  0.24277799  0.38728385  1
  V  V37  1  0.49045341  0.75187680  0.25235834  1
  V  V38  1  0.12514557  0.38064242  0.25222903  1
  V  V39  1  0.36674516  0.12592743  0.25819601  1
  V  V40  1  0.87420800  0.25553976  0.12030589  1
  V  V41  1  0.88448019  0.86462525  0.49772005  1
  V  V42  1  0.70530277  0.81012133  0.55299288  1
  V  V43  1  0.86879765  0.36927441  0.50071267  1
  V  V44  1  0.24987731  0.37667170  0.12748382  1
  V  V45  1  0.06061153  0.66979340  0.68422138  1
  V  V46  1  0.62145783  0.76132353  0.87551380  1
  V  V47  1  -0.00057716  0.37029741  0.37031860  1
  V  V48  1  0.47645576  0.49430608  0.50270933  1
  V  V49  1  0.62432371  -0.00054728  0.12147294  1
  V  V50  1  0.87199777  0.12432496  0.25523893  1
  V  V51  1  -0.01858969  0.50007553  0.00047192  1
  V  V52  1  0.25330713  0.61503120  0.37178350  1
  V  V53  1  0.62652176  0.37468536  0.25096549  1
  V  V54  1  0.87233907  0.50000588  0.37141308  1
  V  V55  1  0.12877994  0.50681895  0.11999026  1
  V  V56  1  0.49917585  0.12208326  0.12460298  1
  V  V57  1  0.74922725  0.25401291  -0.00380158  1
  V  V58  1  0.87950761  0.62312085  0.75181238  1
  V  V59  1  0.49564949  -0.00256552  -0.01136415  1
  V  V60  1  0.37190103  0.24839683  0.12578556  1
  V  V61  1  0.00045195  0.50204994  0.50217750  1
  V  V62  1  0.88181662  0.63430764  0.24495256  1
  V  V63  1  0.12808141  0.47608165  0.62087804  1
  V  V64  1  0.88210022  0.74115746  0.62115136  1
  V  V65  1  -0.00016386  -0.00136391  0.49968693  1
  V  V66  1  0.50761703  0.75478702  0.75180198  1
  V  V67  1  0.74683922  0.63153027  0.37539839  1
  V  V68  1  0.37839414  0.87638848  -0.01535618  1
  V  V69  1  0.62052986  0.25429659  0.86244224  1
  V  V70  1  0.88013716  0.11895062  0.75899826  1
  V  V71  1  0.75018725  0.37603749  0.11811071  1
  V  V72  1  0.37213993  0.74331838  0.63016295  1
  V  V73  1  0.87726862  0.87870605  -0.00502436  1
  V  V74  1  0.75340781  0.61844563  0.87645207  1
  V  V75  1  0.24832387  0.00195046  0.25241502  1
  V  V76  1  0.50885298  -0.00204879  0.49972024  1
  V  V77  1  0.37267349  -0.00509825  0.37817146  1
  V  V78  1  0.49319969  0.63030533  0.12610231  1
  Zn  Zn79  1  0.62445998  0.12330147  -0.00591708  1
  Zn  Zn80  1  0.12654507  -0.00122306  0.12253824  1
  Zn  Zn81  1  0.60431237  0.39769838  0.74265872  1
  Zn  Zn82  1  0.89045996  0.75881800  0.13108328  1
  Zn  Zn83  1  0.32275633  0.54188327  0.81135612  1
  Zn  Zn84  1  0.49705827  0.61476318  0.62711033  1
  Zn  Zn85  1  0.01314531  0.63362078  0.11352427  1
  Zn  Zn86  1  0.45783118  0.52260160  -0.06312596  1
  Zn  Zn87  1  0.75040864  0.87679293  0.12222649  1
  Zn  Zn88  1  0.74877482  0.50326497  0.24769200  1
  Zn  Zn89  1  0.73891830  0.37191527  0.61843232  1
  Zn  Zn90  1  0.71105457  0.94450339  0.70720195  1
  Zn  Zn91  1  0.00304254  0.26438863  0.74606138  1
  Zn  Zn92  1  0.25826146  0.24774301  -0.01381917  1
  Zn  Zn93  1  0.13324611  0.24759958  0.37854007  1
  Zn  Zn94  1  0.18527071  0.19110176  0.18626164  1
  Zn  Zn95  1  0.17887972  0.17395575  0.69563732  1
  Zn  Zn96  1  0.19278265  0.69058708  0.18825781  1
  Zn  Zn97  1  0.20214461  0.67158760  0.81165738  1
  Zn  Zn98  1  0.68740034  0.18776670  0.18923160  1
  Zn  Zn99  1  0.68731778  0.17592273  0.68349850  1
  Zn  Zn100  1  0.68634435  0.68976902  0.18957078  1
  Zn  Zn101  1  0.68795153  0.68481786  0.68974645  1
  Zn  Zn102  1  0.31341591  0.32265710  0.31032908  1
  Zn  Zn103  1  0.31956025  0.33422860  0.80082577  1
  Zn  Zn104  1  0.30831069  0.81166067  0.31858462  1
  Zn  Zn105  1  0.31300586  0.81417192  0.80964662  1
  Zn  Zn106  1  0.81187270  0.31281546  0.30766820  1
  Zn  Zn107  1  0.81101081  0.31055851  0.80892229  1
  Zn  Zn108  1  0.80544170  0.81569623  0.31372701  1
  Zn  Zn109  1  0.82597031  0.80489404  0.81028270  1
  Zn  Zn110  1  0.26127228  0.45634260  0.48250713  1
  Zn  Zn111  1  0.18754162  0.43525465  0.94711022  1
  Zn  Zn112  1  0.18519156  0.93921500  0.43451137  1
  Zn  Zn113  1  0.18369770  0.93231351  0.93879764  1
  Zn  Zn114  1  0.68745775  0.43544236  0.43384799  1
  Zn  Zn115  1  0.64372205  0.45612130  0.91337726  1
  Zn  Zn116  1  0.68690958  1.06430684  0.44070048  1
  Zn  Zn117  1  0.71642052  0.91553818  0.89284835  1
  Zn  Zn118  1  0.31212527  0.05725274  0.06277610  1
  Zn  Zn119  1  0.31859409  0.06906373  0.57118282  1
  Zn  Zn120  1  0.31350223  0.56169674  0.06262551  1
  Zn  Zn121  1  0.27563763  0.58469833  0.63656730  1
  Zn  Zn122  1  0.81147795  0.06437288  0.06112714  1
  Zn  Zn123  1  0.80832243  0.04599650  0.57497787  1
  Zn  Zn124  1  0.80587616  0.56225063  0.06362243  1
  Zn  Zn125  1  0.81508283  0.56398117  0.56004206  1
  Zn  Zn126  1  0.43994741  0.43678888  0.18705701  1
  Zn  Zn127  1  0.42379383  0.43730551  0.68796710  1
  Zn  Zn128  1  0.43735856  0.93767471  0.18893839  1
  Zn  Zn129  1  0.43568684  0.93730743  0.68855824  1
  Zn  Zn130  1  0.93869195  0.44260027  0.18421977  1
  Zn  Zn131  1  0.93552571  0.43810456  0.68889105  1
  Zn  Zn132  1  0.93532262  0.94133891  0.17845969  1
  Zn  Zn133  1  0.91434377  0.93695342  0.68834965  1
  Zn  Zn134  1  0.06242922  0.06303257  0.31500110  1
  Zn  Zn135  1  0.06512771  0.06189040  0.80978836  1
  Zn  Zn136  1  0.06344054  0.56197639  0.31197260  1
  Zn  Zn137  1  0.06765050  0.53076256  0.81327011  1
  Zn  Zn138  1  0.55714908  0.06110193  0.31140309  1
  Zn  Zn139  1  0.57040743  0.06165812  0.80636638  1
  Zn  Zn140  1  0.56011263  0.56318444  0.31542819  1
  Zn  Zn141  1  0.55955229  0.57597891  0.80593639  1
  Zn  Zn142  1  0.45896214  0.17365409  0.42511556  1
  Zn  Zn143  1  0.43817068  0.18663084  0.93521368  1
  Zn  Zn144  1  0.43670855  0.68446870  0.44109559  1
  Zn  Zn145  1  0.42273534  0.69358398  0.92804964  1
  Zn  Zn146  1  0.82136308  0.18425745  0.44431796  1
  Zn  Zn147  1  0.94183007  0.19461483  0.93852727  1
  Zn  Zn148  1  0.93927262  0.68569869  0.42818400  1
  Zn  Zn149  1  0.94124105  0.68854279  0.93768697  1
  Zn  Zn150  1  0.06343266  0.31508587  0.05730356  1
  Zn  Zn151  1  0.05023127  0.30446791  0.55285124  1
  Zn  Zn152  1  0.06601520  0.81379055  0.05918109  1
  Zn  Zn153  1  0.06263632  0.81416010  0.56230078  1
  Zn  Zn154  1  0.56642136  0.30681693  0.06117706  1
  Zn  Zn155  1  0.56389793  0.31006515  0.56810973  1
  Zn  Zn156  1  0.55985092  0.81394643  0.06452520  1
  Zn  Zn157  1  0.54487439  0.82581958  0.57383581  1
  O  O158  1  0.11355221  0.13105952  0.11489481  1
  O  O159  1  0.11633721  0.11641352  0.61582370  1
  O  O160  1  0.12904522  0.60942519  0.13658657  1
  O  O161  1  0.12019318  0.61742892  0.61365984  1
  O  O162  1  0.61260030  0.11931227  0.12917689  1
  O  O163  1  0.60661231  0.12425789  0.62293274  1
  O  O164  1  0.61770871  0.61938004  0.12217744  1
  O  O165  1  0.62295961  0.63241611  0.60481391  1
  O  O166  1  0.39627747  0.36974478  0.37163818  1
  O  O167  1  0.37455630  0.36332911  0.90021690  1
  O  O168  1  0.37300565  0.88788267  0.38294083  1
  O  O169  1  0.37374852  0.88016211  0.88593984  1
  O  O170  1  0.87736896  0.38240623  0.37670938  1
  O  O171  1  0.87985013  0.36409775  0.88615291  1
  O  O172  1  0.87134451  0.88389900  0.38030556  1
  O  O173  1  0.88884705  0.86750370  0.89070719  1
  O  O174  1  0.25784356  -0.00193540  0.36192919  1
  O  O175  1  0.24089999  -0.00104109  0.86297545  1
  O  O176  1  0.24513595  0.51668285  0.38320538  1
  O  O177  1  0.22004617  0.52103356  0.87832320  1
  O  O178  1  0.75888649  0.00571315  0.36157951  1
  O  O179  1  0.75299180  0.02308162  0.88890250  1
  O  O180  1  0.75761743  0.50834928  0.37228194  1
  O  O181  1  0.74064650  0.51594928  0.87049113  1
  O  O182  1  0.23761884  0.49069763  0.12125852  1
  O  O183  1  0.23289049  0.48986554  0.59194063  1
  O  O184  1  0.24857635  0.99099046  0.13604026  1
  O  O185  1  0.23796668  1.00109205  0.62638288  1
  O  O186  1  0.73792816  0.49140689  0.12794702  1
  O  O187  1  0.75505061  0.49953411  0.63349827  1
  O  O188  1  0.73905457  1.00218808  0.13226638  1
  O  O189  1  0.80444679  0.96824375  0.65004333  1
  O  O190  1  0.00381960  0.37012556  0.25088227  1
  O  O191  1  -0.00803707  0.38128256  0.77195979  1
  O  O192  1  0.01454405  0.88328998  0.24078769  1
  O  O193  1  -0.01647590  0.88125223  0.76567401  1
  O  O194  1  0.50983027  0.37100672  0.25909016  1
  O  O195  1  0.49453108  0.35487776  0.73914081  1
  O  O196  1  0.50777160  0.86574179  0.24488700  1
  O  O197  1  0.49937456  0.85500129  0.73538484  1
  O  O198  1  0.48768210  0.12883631  0.24348303  1
  O  O199  1  0.49213871  0.12731651  0.74146427  1
  O  O200  1  0.49338429  0.63152455  0.24815730  1
  O  O201  1  0.50148039  0.64239574  0.73784505  1
  O  O202  1  0.99434797  0.12842570  0.24086661  1
  O  O203  1  0.99404351  0.12943956  0.74398099  1
  O  O204  1  0.98318790  0.62170298  0.25085298  1
  O  O205  1  0.99955128  0.61247914  0.74828455  1
  O  O206  1  0.37580058  0.25249288  0.01233301  1
  O  O207  1  0.36887996  0.28961844  0.56484413  1
  O  O208  1  0.36561732  0.76861192  -0.00360136  1
  O  O209  1  0.36953442  0.76007379  0.49924516  1
  O  O210  1  0.86583114  0.24670270  0.01324658  1
  O  O211  1  0.87726887  0.26034442  0.50896446  1
  O  O212  1  0.86598348  0.75525727  0.00332542  1
  O  O213  1  0.88611191  0.75426330  0.50141269  1
  O  O214  1  0.11729529  0.23103703  0.49767947  1
  O  O215  1  0.12902001  0.24172321  0.99005530  1
  O  O216  1  0.12845895  0.74574964  0.49287040  1
  O  O217  1  0.14828842  0.76084229  0.99912737  1
  O  O218  1  0.62480844  0.25196524  0.48519400  1
  O  O219  1  0.63076269  0.24569713  0.98702763  1
  O  O220  1  0.62993363  0.75927830  0.49566194  1
  O  O221  1  0.62929789  0.74184031  0.99911894  1
  O  O222  1  0.49265546  0.24096377  0.13130124  1
  O  O223  1  0.50150952  0.23541125  0.63606617  1
  O  O224  1  0.50671088  0.73847516  0.13825758  1
  O  O225  1  0.48668311  0.74473594  0.62556618  1
  O  O226  1  0.99278600  0.24569163  0.12724008  1
  O  O227  1  0.99021019  0.23817301  0.62601009  1
  O  O228  1  1.00122636  0.74368458  0.11596555  1
  O  O229  1  1.00377315  0.73687600  0.62747486  1
  O  O230  1  -0.00229276  0.26495470  0.36565032  1
  O  O231  1  0.00922345  0.26619692  0.88043027  1
  O  O232  1  0.01654183  0.74893375  0.37401369  1
  O  O233  1  0.00374034  0.75940525  0.87480651  1
  O  O234  1  0.51311038  0.25912152  0.37277965  1
  O  O235  1  0.51443784  0.24153395  0.86444947  1
  O  O236  1  0.51206332  0.74253701  0.37012176  1
  O  O237  1  0.50368465  0.74589769  0.85916947  1
  O  O238  1  0.23763578  0.12495876  0.50815426  1
  O  O239  1  0.23646309  0.12635894  1.00611449  1
  O  O240  1  0.23434211  0.63508445  0.48715281  1
  O  O241  1  0.25751326  0.64464232  1.01135158  1
  O  O242  1  0.75836215  0.11627341  0.50773268  1
  O  O243  1  0.75046709  0.13898266  0.99262531  1
  O  O244  1  0.73696241  0.61747498  0.48934571  1
  O  O245  1  0.74287015  0.63214911  0.99631648  1
  O  O246  1  0.25989775  0.36936034  0.01452757  1
  O  O247  1  0.24725192  0.34000826  0.47039010  1
  O  O248  1  0.26078429  0.87788571  0.01082841  1
  O  O249  1  0.25551644  0.86634085  0.49212605  1
  O  O250  1  0.73959401  0.36412670  0.01239998  1
  O  O251  1  0.76500405  0.38420163  0.50070170  1
  O  O252  1  0.76000831  0.86728607  -0.00573335  1
  O  O253  1  0.76886739  0.86810364  0.50064290  1
  O  O254  1  0.11386758  0.48765959  0.23673370  1
  O  O255  1  0.12341775  0.49375005  0.71981877  1
  O  O256  1  0.13252575  0.99172181  0.25060576  1
  O  O257  1  0.13852671  1.01061466  0.73725795  1
  O  O258  1  0.62461193  0.49043028  0.24500333  1
  O  O259  1  0.64338873  0.50896337  0.74573183  1
  O  O260  1  0.62786410  0.99584536  0.24592022  1
  O  O261  1  0.62456253  1.00721909  0.72950747  1
  O  O262  1  0.36989821  0.00730858  0.25785816  1
  O  O263  1  0.36369766  0.00611330  0.74830795  1
  O  O264  1  0.38118946  0.51062307  0.25421449  1
  O  O265  1  0.34016019  0.44105347  0.75875288  1
  O  O266  1  0.86887570  0.00417219  0.25351764  1
  O  O267  1  0.88759463  0.02239473  0.76858871  1
  O  O268  1  0.87213040  0.50799193  0.25874962  1
  O  O269  1  0.86663063  0.51633354  0.74368707  1
  O  O270  1  0.10895156  0.37929298  0.36215111  1
  O  O271  1  0.12152126  0.36635911  0.87912925  1
  O  O272  1  0.12984591  0.87110150  0.35792400  1
  O  O273  1  0.10801842  0.88065762  0.87302879  1
  O  O274  1  0.62318372  0.36336074  0.36760944  1
  O  O275  1  0.63393072  0.35621249  0.85729789  1
  O  O276  1  0.62756574  0.86628594  0.36102524  1
  O  O277  1  0.61505588  0.85855261  0.89527376  1
  O  O278  1  0.38052671  0.13058399  0.13318297  1
  O  O279  1  0.38795364  0.12355126  0.64211554  1
  O  O280  1  0.38690006  0.61915997  0.13639689  1
  O  O281  1  0.37629289  0.64090947  0.61038630  1
  O  O282  1  0.88415762  0.13303243  0.13113352  1
  O  O283  1  0.88151550  0.12946356  0.64055755  1
  O  O284  1  0.86832145  0.62380794  0.14163151  1
  O  O285  1  0.87754553  0.63315371  0.62722129  1
  O  O286  1  0.26084095  0.25619993  0.12533594  1
  O  O287  1  0.23983389  0.26580815  0.64388480  1
  O  O288  1  0.25111619  0.76475879  0.11905935  1
  O  O289  1  0.26375039  0.74675662  0.60749930  1
  O  O290  1  0.75375665  0.25550307  0.11836954  1
  O  O291  1  0.76359022  0.24835504  0.63371395  1
  O  O292  1  0.74595845  0.75305267  0.11241750  1
  O  O293  1  0.76010163  0.74702675  0.61598760  1
  O  O294  1  0.24423243  0.29617147  0.40169366  1
  O  O295  1  0.23990350  0.26433562  0.86812319  1
  O  O296  1  0.23941310  0.74403785  0.38308113  1
  O  O297  1  0.25576940  0.74565938  0.88171064  1
  O  O298  1  0.74316718  0.24745697  0.37480313  1
  O  O299  1  0.74175010  0.24510677  0.87956234  1
  O  O300  1  0.73564625  0.74025539  0.37218555  1
  O  O301  1  0.74124321  0.74019097  0.88724722  1
  O  O302  1  0.00590135  0.12256429  0.00502283  1
  O  O303  1  0.00277674  0.10887676  0.51280360  1
  O  O304  1  -0.00531697  0.60530884  -0.00349317  1
  O  O305  1  0.01056136  0.61467738  0.48603472  1
  O  O306  1  0.49767923  0.11783835  0.01207470  1
  O  O307  1  0.48755150  0.11374231  0.51402685  1
  O  O308  1  0.50812124  0.63092288  0.00998884  1
  O  O309  1  0.50780707  0.60539654  0.49546425  1
  O  O310  1  0.50417020  0.38281284  0.49180192  1
  O  O311  1  0.48863781  0.36987214  1.01063912  1
  O  O312  1  0.48722574  0.89237590  0.50100354  1
  O  O313  1  0.48499231  0.88161298  1.00788125  1
  O  O314  1  0.98794858  0.38209357  0.48785454  1
  O  O315  1  1.00038063  0.38552660  0.99317323  1
  O  O316  1  0.99623189  0.88670111  0.49975523  1
  O  O317  1  0.99695390  0.88659963  0.99437745  1
  O  O318  1  0.50835765  0.48533317  0.38558251  1
  O  O319  1  0.54042039  0.48817584  0.87228773  1
  O  O320  1  0.48485032  1.01330968  0.38931464  1
  O  O321  1  0.51138033  1.00973060  0.89147158  1
  O  O322  1  0.98922223  0.49252841  0.37823741  1
  O  O323  1  0.99613035  0.48615017  0.88954950  1
  O  O324  1  0.98748670  1.00557928  0.38288911  1
  O  O325  1  1.00256558  1.00221509  0.88608587  1
  O  O326  1  0.00324628  0.01322993  0.11508216  1
  O  O327  1  0.00491464  0.00609780  0.62135441  1
  O  O328  1  0.00816927  0.50257368  0.11547174  1
  O  O329  1  0.00557795  0.49228855  0.60829699  1
  O  O330  1  0.50466887  0.00822247  0.12457104  1
  O  O331  1  0.49488774  0.00612388  0.61196215  1
  O  O332  1  0.51122958  0.51058162  0.13156634  1
  O  O333  1  0.48277035  0.49505202  0.61015031  1
  O  O334  1  0.23982478  0.37186835  0.23897410  1
  O  O335  1  0.24976409  0.32542986  0.68897143  1
  O  O336  1  0.24999766  0.88170913  0.24043534  1
  O  O337  1  0.25535036  0.89081761  0.74833102  1
  O  O338  1  0.73940734  0.37458964  0.23978677  1
  O  O339  1  0.75958487  0.39664690  0.75209051  1
  O  O340  1  0.74013612  0.88635796  0.24587357  1
  O  O341  1  0.74406308  0.87547103  0.78944820  1
  O  O342  1  0.25734776  0.11637410  0.24084043  1
  O  O343  1  0.26360407  0.11694233  0.74607987  1
  O  O344  1  0.25938565  0.63040549  0.26286128  1
  O  O345  1  0.27022150  0.61514452  0.74226461  1
  O  O346  1  0.76133203  0.11567357  0.23955151  1
  O  O347  1  0.76421016  0.12874463  0.76169125  1
  O  O348  1  0.75327558  0.62326431  0.26061409  1
  O  O349  1  0.75779321  0.61862926  0.75522308  1
  O  O350  1  0.37440774  0.12305161  0.36423450  1
  O  O351  1  0.38124695  0.12547839  0.85821658  1
  O  O352  1  0.36038041  0.62854473  0.37272513  1
  O  O353  1  0.38942953  0.59675534  0.88568742  1
  O  O354  1  0.87475007  0.11733804  0.36022186  1
  O  O355  1  0.86638244  0.14264995  0.86768497  1
  O  O356  1  0.86607384  0.61961572  0.36679475  1
  O  O357  1  0.86430640  0.63504276  0.86417993  1
  O  O358  1  0.13156016  0.37835667  0.13163615  1
  O  O359  1  0.11668681  0.37806200  0.60966962  1
  O  O360  1  0.13746938  0.87848157  0.13592856  1
  O  O361  1  0.12100125  0.89196014  0.62188005  1
  O  O362  1  0.62828747  0.38038885  0.13177651  1
  O  O363  1  0.62961046  0.36577432  0.63662648  1
  O  O364  1  0.62472023  0.88518654  0.13445315  1
  O  O365  1  0.64739589  0.86754443  0.61402846  1
  O  O366  1  0.12077244  0.25820959  0.25654767  1
  O  O367  1  0.11789623  0.24212620  0.76701310  1
  O  O368  1  0.13126283  0.76565574  0.25348804  1
  O  O369  1  0.12152311  0.72078148  0.74263767  1
  O  O370  1  0.62093855  0.25820783  0.25490098  1
  O  O371  1  0.61612440  0.23793540  0.75739677  1
  O  O372  1  0.61601500  0.75581585  0.25780451  1
  O  O373  1  0.61671193  0.74733380  0.75794873  1
  O  O374  1  0.37724769  0.24415796  0.24548829  1
  O  O375  1  0.38789138  0.24117845  0.75637981  1
  O  O376  1  0.38700421  0.74427358  0.26141485  1
  O  O377  1  0.38005108  0.75438819  0.73439332  1
  O  O378  1  0.87870020  0.24174791  0.24103940  1
  O  O379  1  0.88216758  0.24623528  0.74237308  1
  O  O380  1  0.86745366  0.73816631  0.25122207  1
  O  O381  1  0.87570426  0.73406536  0.73641273  1
  O  O382  1  0.37966901  0.49310054  0.48918733  1
  O  O383  1  0.37877629  0.48209823  1.01186036  1
  O  O384  1  0.37031771  0.99468140  0.49403671  1
  O  O385  1  0.38282867  0.98893262  1.00536940  1
  O  O386  1  0.88157257  0.49691800  0.48898102  1
  O  O387  1  0.88240698  0.49439785  1.01217229  1
  O  O388  1  0.88334647  0.98700078  0.49209662  1
  O  O389  1  0.88371734  0.99271137  1.00601014  1
  O  O390  1  0.11804757  0.01500835  0.00124724  1
  O  O391  1  0.12073533  0.00735159  0.50706393  1
  O  O392  1  0.11666247  0.49559094  0.01830411  1
  O  O393  1  0.11396130  0.50928019  0.50162056  1
  O  O394  1  0.61433382  0.00376448  0.01595493  1
  O  O395  1  0.60702280  -0.00173531  0.48973675  1
  O  O396  1  0.63043468  0.51507529  0.01320963  1
  O  O397  1  0.62264607  0.50428969  0.50307164  1
  O  O398  1  0.36999437  0.36522702  0.12687034  1
  O  O399  1  0.35934176  0.35844485  0.58878014  1
  O  O400  1  0.36397812  0.87717364  0.12456462  1
  O  O401  1  0.37643463  0.86450160  0.61135329  1
  O  O402  1  0.86276181  0.36507990  0.13593794  1
  O  O403  1  0.87567912  0.36626077  0.61687726  1
  O  O404  1  0.87072306  0.87376212  0.11309503  1
  O  O405  1  0.89324225  0.84891011  0.61166875  1
  O  O406  1  0.12636246  0.12380692  0.38876306  1
  O  O407  1  0.12075857  0.13527109  0.88724966  1
  O  O408  1  0.13305937  0.63281442  0.37408943  1
  O  O409  1  0.15682448  0.57963924  0.87389932  1
  O  O410  1  0.62211361  0.13757999  0.37141313  1
  O  O411  1  0.64111666  0.13437374  0.87340211  1
  O  O412  1  0.62797566  0.63119114  0.38785663  1
  O  O413  1  0.63160976  0.63673019  0.88662557  1
