# generated using pymatgen
data_V79Zn79O256
_symmetry_space_group_name_H-M   'P 1'
_cell_length_a   16.87681153
_cell_length_b   16.88972920
_cell_length_c   16.90336819
_cell_angle_alpha   89.98786646
_cell_angle_beta   90.15054696
_cell_angle_gamma   89.95946982
_symmetry_Int_Tables_number   1
_chemical_formula_structural   V79Zn79O256
_chemical_formula_sum   'V79 Zn79 O256'
_cell_volume   4818.19886287
_cell_formula_units_Z   1
loop_
 _symmetry_equiv_pos_site_id
 _symmetry_equiv_pos_as_xyz
  1  'x, y, z'
loop_
 _atom_site_type_symbol
 _atom_site_label
 _atom_site_symmetry_multiplicity
 _atom_site_fract_x
 _atom_site_fract_y
 _atom_site_fract_z
 _atom_site_occupancy
  V  V0  1  0.74180888  -0.00259919  0.24088478  1
  V  V1  1  0.63018513  0.14458711  0.49975576  1
  V  V2  1  0.74740477  0.63118221  0.37629762  1
  V  V3  1  0.00673487  -0.00427030  0.48771580  1
  V  V4  1  0.62466378  0.86803423  0.74926331  1
  V  V5  1  0.62666927  0.11880672  0.00010279  1
  V  V6  1  0.87238119  0.12350705  0.75545309  1
  V  V7  1  0.26372650  0.12162900  0.87301618  1
  V  V8  1  -0.00103940  0.24938226  0.74457973  1
  V  V9  1  0.49455733  0.24842923  0.74989937  1
  V  V10  1  0.37382358  0.00470774  0.38070911  1
  V  V11  1  0.49402384  0.74715080  0.23473198  1
  V  V12  1  0.62249406  0.75264479  0.37428426  1
  V  V13  1  0.38186431  0.45872519  0.89699610  1
  V  V14  1  0.74937140  0.24359656  -0.00569868  1
  V  V15  1  0.88956063  0.87614897  -0.00868795  1
  V  V16  1  0.12201167  0.12334900  -0.00293692  1
  V  V17  1  0.12384798  0.25205450  0.87086306  1
  V  V18  1  0.12478067  -0.00550790  0.11840928  1
  V  V19  1  0.00295910  0.62822989  0.62277426  1
  V  V20  1  0.85783750  0.63014421  0.74775523  1
  V  V21  1  0.62351707  0.36857412  0.25556111  1
  V  V22  1  0.60406106  0.50214628  0.12768598  1
  V  V23  1  0.01310430  0.76802420  0.25858300  1
  V  V24  1  0.12398351  0.37045809  0.25244315  1
  V  V25  1  0.87977859  0.24870858  0.12651318  1
  V  V26  1  0.36821918  0.12080305  0.25385075  1
  V  V27  1  0.75026731  0.00510183  0.75850516  1
  V  V28  1  0.37267137  0.50472355  0.37453477  1
  V  V29  1  0.24844204  0.37136438  0.12548077  1
  V  V30  1  0.74958648  0.49983955  0.24493340  1
  V  V31  1  0.25187420  0.74674095  -0.02027549  1
  V  V32  1  0.36604583  0.24899385  0.12759132  1
  V  V33  1  0.01087095  0.11271131  0.62233355  1
  V  V34  1  0.86816427  0.50097929  0.86568530  1
  V  V35  1  0.00144990  0.37576276  0.87188671  1
  V  V36  1  0.87497774  0.50130995  0.37469631  1
  V  V37  1  0.50425043  0.50484773  0.51494997  1
  V  V38  1  0.74581612  0.75614362  0.00296874  1
  V  V39  1  -0.00120385  0.50206886  -0.00126172  1
  V  V40  1  0.36537351  0.37512193  0.51257301  1
  V  V41  1  0.63020482  0.24003370  0.86756689  1
  V  V42  1  0.87782874  0.12051400  0.25633498  1
  V  V43  1  0.49220114  0.13022422  0.62750427  1
  V  V44  1  0.49182025  0.00434843  -0.00706168  1
  V  V45  1  0.25317497  0.86482634  0.12431926  1
  V  V46  1  0.62863398  0.38886041  0.75484812  1
  V  V47  1  0.50141845  0.37296517  0.37522633  1
  V  V48  1  0.00317298  0.63010904  0.12637755  1
  V  V49  1  0.60914277  0.62515026  0.01098078  1
  V  V50  1  0.87702021  0.62886505  0.24948733  1
  V  V51  1  0.62483076  0.87692238  0.23345355  1
  V  V52  1  0.50996788  -0.00097209  0.49819097  1
  V  V53  1  0.27091514  0.00809743  0.74450422  1
  V  V54  1  0.39534189  0.74661374  0.63074104  1
  V  V55  1  0.75544434  0.87048562  0.62012686  1
  V  V56  1  0.50163348  0.11821413  0.12584483  1
  V  V57  1  0.74406272  0.38053939  0.62989498  1
  V  V58  1  0.87021162  0.75876215  0.12506548  1
  V  V59  1  0.74127056  0.13047318  0.37793945  1
  V  V60  1  0.37126148  0.87862350  -0.00944429  1
  V  V61  1  0.13185333  0.50316074  0.13094818  1
  V  V62  1  -0.00044963  0.36606060  0.36988694  1
  V  V63  1  0.00458640  0.50316971  0.49961836  1
  V  V64  1  0.86866557  0.37640541  -0.00024524  1
  V  V65  1  0.49981449  0.87389496  0.86830004  1
  V  V66  1  0.87591482  0.87891371  0.48434615  1
  V  V67  1  0.12861117  0.63025627  -0.01471431  1
  V  V68  1  -0.00305394  0.11823973  0.11681262  1
  V  V69  1  0.62506523  0.62568485  0.50784789  1
  V  V70  1  0.24701458  0.63265808  0.37393915  1
  V  V71  1  0.37510893  0.62518170  0.23819954  1
  V  V72  1  0.24312928  0.75280900  0.50766345  1
  V  V73  1  0.12044905  0.89606828  0.75221570  1
  V  V74  1  0.86988003  0.36636138  0.50201836  1
  V  V75  1  0.23745668  -0.01549052  0.26197222  1
  V  V76  1  0.24527002  0.23632140  0.50503830  1
  V  V77  1  0.74406308  0.61546628  0.88055938  1
  V  V78  1  0.01384838  0.74786126  0.75878485  1
  Zn  Zn79  1  0.61371898  0.73614316  0.86550332  1
  Zn  Zn80  1  0.24946013  0.50215959  0.75961423  1
  Zn  Zn81  1  0.88720188  -0.00199091  0.88068157  1
  Zn  Zn82  1  0.25681110  0.25498014  -0.00884233  1
  Zn  Zn83  1  0.74639989  0.37246781  0.12440473  1
  Zn  Zn84  1  0.87073369  0.24038044  0.61641261  1
  Zn  Zn85  1  0.39282344  0.63190149  0.75572015  1
  Zn  Zn86  1  0.12259784  0.62943846  0.49526573  1
  Zn  Zn87  1  0.50068659  0.87549952  0.37156797  1
  Zn  Zn88  1  0.86848210  0.74965169  0.61794930  1
  Zn  Zn89  1  0.38048784  0.87092549  0.50124076  1
  Zn  Zn90  1  0.63116219  0.00419008  0.62350700  1
  Zn  Zn91  1  0.50103846  0.24429448  0.25692550  1
  Zn  Zn92  1  0.24943719  0.88435944  0.62366142  1
  Zn  Zn93  1  0.12840673  0.22528170  0.38279510  1
  Zn  Zn94  1  0.17361411  0.17313696  0.21081738  1
  Zn  Zn95  1  0.19201551  0.19004314  0.68636588  1
  Zn  Zn96  1  0.18952518  0.69084425  0.18758230  1
  Zn  Zn97  1  0.20029290  0.66455449  0.68655850  1
  Zn  Zn98  1  0.69077252  0.18602441  0.18324073  1
  Zn  Zn99  1  0.69350715  0.19287671  0.67873103  1
  Zn  Zn100  1  0.68538523  0.68851933  0.18846750  1
  Zn  Zn101  1  0.63453614  0.64488384  0.71800469  1
  Zn  Zn102  1  0.30880488  0.31149274  0.31808485  1
  Zn  Zn103  1  0.30940701  0.31721187  0.80691719  1
  Zn  Zn104  1  0.31493448  0.81257299  0.31823709  1
  Zn  Zn105  1  0.31053876  0.81803821  0.80456716  1
  Zn  Zn106  1  0.81141486  0.30915761  0.31104433  1
  Zn  Zn107  1  0.81176224  0.31271897  0.81049340  1
  Zn  Zn108  1  0.81203905  0.81511104  0.30772096  1
  Zn  Zn109  1  0.80362614  0.80644582  0.81484452  1
  Zn  Zn110  1  0.18892854  0.43904872  0.43563533  1
  Zn  Zn111  1  0.18964122  0.44081970  0.93678227  1
  Zn  Zn112  1  0.18978372  0.94305946  0.44189324  1
  Zn  Zn113  1  0.18207517  0.93773188  0.92848336  1
  Zn  Zn114  1  0.68787213  0.43974729  0.43876213  1
  Zn  Zn115  1  0.64352651  0.41562479  0.95727736  1
  Zn  Zn116  1  0.69348110  0.94364792  0.42867235  1
  Zn  Zn117  1  0.68433047  0.93921287  0.93656916  1
  Zn  Zn118  1  0.30821505  0.06156418  0.06404241  1
  Zn  Zn119  1  0.31430345  0.06564938  0.56214564  1
  Zn  Zn120  1  0.31275311  0.55748511  0.05291086  1
  Zn  Zn121  1  0.32005868  0.57060708  0.56776391  1
  Zn  Zn122  1  0.81004345  0.05646363  0.06283714  1
  Zn  Zn123  1  0.81817046  0.05486584  0.56640987  1
  Zn  Zn124  1  0.81246416  0.56627251  0.06084576  1
  Zn  Zn125  1  0.81067709  0.56100410  0.56349772  1
  Zn  Zn126  1  0.43049927  0.43569220  0.19146639  1
  Zn  Zn127  1  0.43919102  0.43132175  0.69742818  1
  Zn  Zn128  1  0.43266649  0.93466100  0.18485306  1
  Zn  Zn129  1  0.43936552  0.93529940  0.67956159  1
  Zn  Zn130  1  0.93937452  0.43871293  0.18452572  1
  Zn  Zn131  1  0.97743004  0.42373150  0.66797989  1
  Zn  Zn132  1  0.93420658  0.94097565  0.18520414  1
  Zn  Zn133  1  0.93776008  0.93562550  0.69260102  1
  Zn  Zn134  1  0.06099849  0.05533416  0.30850595  1
  Zn  Zn135  1  0.05830199  0.06510328  0.81634531  1
  Zn  Zn136  1  0.06279767  0.56384966  0.31110816  1
  Zn  Zn137  1  0.05816754  0.56103021  0.80253118  1
  Zn  Zn138  1  0.56317080  0.06281787  0.31378938  1
  Zn  Zn139  1  0.56181055  0.06018603  0.81234509  1
  Zn  Zn140  1  0.55757471  0.56295136  0.31483543  1
  Zn  Zn141  1  0.52533527  0.56007210  0.83814145  1
  Zn  Zn142  1  0.43404202  0.19221930  0.44283997  1
  Zn  Zn143  1  0.44096249  0.20532834  0.93844136  1
  Zn  Zn144  1  0.43776391  0.68983081  0.43828647  1
  Zn  Zn145  1  0.43010616  0.68850293  0.93591979  1
  Zn  Zn146  1  0.94235096  0.18210091  0.43684263  1
  Zn  Zn147  1  0.93642442  0.18659307  0.93635237  1
  Zn  Zn148  1  0.93528880  0.69748755  0.43639476  1
  Zn  Zn149  1  0.93416469  0.68989357  0.93678505  1
  Zn  Zn150  1  0.06345053  0.31126240  0.06040945  1
  Zn  Zn151  1  0.07701478  0.30685127  0.56716211  1
  Zn  Zn152  1  0.06589476  0.80989159  0.06113093  1
  Zn  Zn153  1  0.06227523  0.81880661  0.57225014  1
  Zn  Zn154  1  0.55095363  0.30602827  0.06915672  1
  Zn  Zn155  1  0.55878863  0.31923481  0.56651279  1
  Zn  Zn156  1  0.55656426  0.81371694  0.05602958  1
  Zn  Zn157  1  0.57450794  0.81439731  0.56076630  1
  O  O158  1  0.11631506  0.12112498  0.11515228  1
  O  O159  1  0.10887151  0.12686727  0.63097916  1
  O  O160  1  0.11925811  0.62100727  0.12114192  1
  O  O161  1  0.10319661  0.62690143  0.62135318  1
  O  O162  1  0.61072313  0.13436501  0.11444763  1
  O  O163  1  0.62665068  0.12491461  0.60863348  1
  O  O164  1  0.62543281  0.61299718  0.12390957  1
  O  O165  1  0.63693731  0.62881796  0.60521729  1
  O  O166  1  0.38095042  0.38817774  0.38049824  1
  O  O167  1  0.36957668  0.35664937  0.89841197  1
  O  O168  1  0.37816091  0.89054878  0.38043749  1
  O  O169  1  0.38201009  0.87305094  0.88271734  1
  O  O170  1  0.87844378  0.38194426  0.37660413  1
  O  O171  1  0.87787163  0.38265022  0.88069797  1
  O  O172  1  0.86725531  0.87891812  0.38509736  1
  O  O173  1  0.86901824  0.86729627  0.88973353  1
  O  O174  1  0.27420223  0.01595701  0.38922700  1
  O  O175  1  0.25038275  0.01575999  0.86645309  1
  O  O176  1  0.26307292  0.51679879  0.38302272  1
  O  O177  1  0.27272205  0.48717138  0.87919418  1
  O  O178  1  0.74745205  0.01830300  0.35916639  1
  O  O179  1  0.75507899  -0.00500666  0.86139377  1
  O  O180  1  0.75602365  0.50752997  0.36391626  1
  O  O181  1  0.75785534  0.50954601  0.88685206  1
  O  O182  1  0.23876957  0.49086003  0.11891466  1
  O  O183  1  0.24355431  0.55463331  0.64864513  1
  O  O184  1  0.24389359  0.98758166  0.13250752  1
  O  O185  1  0.25510419  1.00830747  0.63968931  1
  O  O186  1  0.75387157  0.49983396  0.13857888  1
  O  O187  1  0.75644149  0.48068968  0.62139084  1
  O  O188  1  0.74053999  1.00975053  0.14131774  1
  O  O189  1  0.75006141  0.99245986  0.63772178  1
  O  O190  1  0.00707008  0.38539315  0.25978924  1
  O  O191  1  -0.01419814  0.36412013  0.76574031  1
  O  O192  1  -0.00460518  0.86727523  0.24666189  1
  O  O193  1  0.01235315  0.85891602  0.74136249  1
  O  O194  1  0.50626874  0.37594951  0.25896355  1
  O  O195  1  0.52195145  0.35537175  0.73566843  1
  O  O196  1  0.50414471  0.86470524  0.24899206  1
  O  O197  1  0.51156166  0.88810456  0.75776272  1
  O  O198  1  0.49305242  0.12150573  0.24142217  1
  O  O199  1  0.50888365  0.13121990  0.73526893  1
  O  O200  1  0.48985579  0.63693313  0.25111194  1
  O  O201  1  0.52914290  0.63562764  0.75757512  1
  O  O202  1  0.98048666  0.11669356  0.23827657  1
  O  O203  1  0.99225107  0.13107570  0.74111045  1
  O  O204  1  0.99618774  0.63112289  0.24007897  1
  O  O205  1  0.98639711  0.62971540  0.73739732  1
  O  O206  1  0.37176137  0.24274021  0.02211339  1
  O  O207  1  0.36344469  0.26783752  0.49498692  1
  O  O208  1  0.35897299  0.75680545  -0.00363014  1
  O  O209  1  0.37031332  0.75042290  0.51010017  1
  O  O210  1  0.86748700  0.25364751  0.00385436  1
  O  O211  1  0.88062413  0.26382866  0.49452110  1
  O  O212  1  0.86745758  0.75714158  0.00584703  1
  O  O213  1  0.87723227  0.77144014  0.50123933  1
  O  O214  1  0.13433083  0.24479107  0.49727243  1
  O  O215  1  0.12576458  0.23977786  0.98996664  1
  O  O216  1  0.13800005  0.75016141  0.50603338  1
  O  O217  1  0.13462122  0.73851402  0.99923772  1
  O  O218  1  0.62431048  0.24323485  0.50151439  1
  O  O219  1  0.63178504  0.23941498  0.99044754  1
  O  O220  1  0.61979086  0.73568919  0.48717816  1
  O  O221  1  0.63019673  0.73528726  1.01146886  1
  O  O222  1  0.48710059  0.23892421  0.13348476  1
  O  O223  1  0.50986613  0.23769715  0.63310692  1
  O  O224  1  0.49726932  0.75148912  0.13577154  1
  O  O225  1  0.49412241  0.76288322  0.62217437  1
  O  O226  1  0.98825670  0.23820852  0.11776824  1
  O  O227  1  0.99478472  0.23867430  0.63284840  1
  O  O228  1  0.99346193  0.74429920  0.13077536  1
  O  O229  1  0.99114581  0.73920649  0.63156048  1
  O  O230  1  0.00579266  0.26307054  0.38028957  1
  O  O231  1  0.00417573  0.25581290  0.86867878  1
  O  O232  1  -0.00058145  0.74596440  0.35681621  1
  O  O233  1  -0.00165527  0.73977320  0.85773360  1
  O  O234  1  0.49400768  0.26772935  0.37603190  1
  O  O235  1  0.51391741  0.24235524  0.85875104  1
  O  O236  1  0.50941397  0.75244209  0.36662895  1
  O  O237  1  0.50313942  0.76876192  0.88593075  1
  O  O238  1  0.25911912  0.13743698  0.49474816  1
  O  O239  1  0.24232789  0.12866507  0.98824169  1
  O  O240  1  0.24959929  0.63514626  0.48956343  1
  O  O241  1  0.24022175  0.63598903  1.00086385  1
  O  O242  1  0.74168799  0.11981513  0.48901594  1
  O  O243  1  0.73952331  0.13153445  1.00746120  1
  O  O244  1  0.73732270  0.61368309  0.48503768  1
  O  O245  1  0.74668976  0.63505802  0.99636674  1
  O  O246  1  0.23363062  0.36646568  0.02100634  1
  O  O247  1  0.26443822  0.39133344  0.50725818  1
  O  O248  1  0.25289182  0.86562436  -0.00278972  1
  O  O249  1  0.25097479  0.86323255  0.50043847  1
  O  O250  1  0.74972097  0.36276682  0.00232674  1
  O  O251  1  0.76344570  0.37909721  0.50210674  1
  O  O252  1  0.74407155  0.85877598  -0.00282790  1
  O  O253  1  0.76135715  0.89026250  0.51093513  1
  O  O254  1  0.12032037  0.49647294  0.23645466  1
  O  O255  1  0.13392219  0.48972077  0.76989312  1
  O  O256  1  0.12688275  1.00641821  0.22335641  1
  O  O257  1  0.12613276  0.99734589  0.74788160  1
  O  O258  1  0.63000370  0.49921454  0.24206376  1
  O  O259  1  0.61829835  0.48512906  0.75999436  1
  O  O260  1  0.63077285  0.99063777  0.25348740  1
  O  O261  1  0.63821912  0.99503025  0.75012393  1
  O  O262  1  0.36787898  -0.00205332  0.26426309  1
  O  O263  1  0.36987898  0.00203713  0.74974895  1
  O  O264  1  0.38118909  0.51712021  0.26006920  1
  O  O265  1  0.37864064  0.48294865  0.77424079  1
  O  O266  1  0.85963290  0.01285013  0.24094236  1
  O  O267  1  0.86393849  0.00438668  0.75186507  1
  O  O268  1  0.87001959  0.50602268  0.25704032  1
  O  O269  1  0.87723968  0.51410593  0.76306905  1
  O  O270  1  0.11637214  0.38501296  0.36171182  1
  O  O271  1  0.11160987  0.36433328  0.88629649  1
  O  O272  1  0.18342554  0.92752334  0.32858568  1
  O  O273  1  0.13209789  0.87088754  0.85118132  1
  O  O274  1  0.61556534  0.38686074  0.36559353  1
  O  O275  1  0.63732228  0.35866462  0.85696819  1
  O  O276  1  0.62813671  0.86397368  0.36664801  1
  O  O277  1  0.61675038  0.87491430  0.86575261  1
  O  O278  1  0.37967188  0.12757855  0.13484320  1
  O  O279  1  0.39392627  0.12970319  0.61860810  1
  O  O280  1  0.36378007  0.61954771  0.14018254  1
  O  O281  1  0.39146606  0.64140013  0.62992394  1
  O  O282  1  0.88014217  0.12918647  0.12474227  1
  O  O283  1  0.88186403  0.12454978  0.63661871  1
  O  O284  1  0.88627671  0.63353963  0.12729442  1
  O  O285  1  0.86710775  0.63144577  0.63345208  1
  O  O286  1  0.25361744  0.25213284  0.13475060  1
  O  O287  1  0.24544695  0.25098427  0.60784539  1
  O  O288  1  0.24595530  0.76227575  0.11358802  1
  O  O289  1  0.25876542  0.74302470  0.61156674  1
  O  O290  1  0.75996555  0.25049937  0.11385139  1
  O  O291  1  0.75992518  0.26965011  0.62541089  1
  O  O292  1  0.76210068  0.74103713  0.11937491  1
  O  O293  1  0.74611312  0.77130345  0.62296477  1
  O  O294  1  0.24052700  0.26797014  0.39546655  1
  O  O295  1  0.23917212  0.24167728  0.86890421  1
  O  O296  1  0.25858136  0.74093752  0.38888307  1
  O  O297  1  0.25026615  0.75070182  0.88112620  1
  O  O298  1  0.75334663  0.23068237  0.36937209  1
  O  O299  1  0.74648374  0.24779992  0.88500791  1
  O  O300  1  0.73984986  0.73896301  0.36318985  1
  O  O301  1  0.73766149  0.73657452  0.88588186  1
  O  O302  1  0.00838157  0.12639424  0.00526192  1
  O  O303  1  -0.00739106  0.11065504  0.51212893  1
  O  O304  1  0.00957809  0.62675681  0.00775491  1
  O  O305  1  -0.00457134  0.62487902  0.50652650  1
  O  O306  1  0.50348037  0.12141125  0.00446219  1
  O  O307  1  0.51305999  0.12551609  0.50637490  1
  O  O308  1  0.51115075  0.63278246  0.00801335  1
  O  O309  1  0.51169041  0.61444552  0.49503681  1
  O  O310  1  0.49692450  0.38819975  0.49404967  1
  O  O311  1  0.54052411  0.38093099  0.99218311  1
  O  O312  1  0.50541477  0.88925162  0.49839031  1
  O  O313  1  0.49182299  0.88549702  0.99348724  1
  O  O314  1  0.98574945  0.38761508  0.48553125  1
  O  O315  1  0.99114938  0.37963773  0.99156370  1
  O  O316  1  0.98867847  0.88458093  0.50664044  1
  O  O317  1  0.98907563  0.86742928  0.99793578  1
  O  O318  1  0.49049237  0.49435327  0.38158440  1
  O  O319  1  0.48805450  0.46320282  0.87550099  1
  O  O320  1  0.49664452  0.99873359  0.38322849  1
  O  O321  1  0.50047320  0.99242396  0.88464045  1
  O  O322  1  0.98856421  0.50033674  0.37845453  1
  O  O323  1  0.98938272  0.49415863  0.87959500  1
  O  O324  1  1.00073946  1.00394510  0.38754631  1
  O  O325  1  0.99820264  0.99069773  0.86917759  1
  O  O326  1  0.00628947  0.00939952  0.12194540  1
  O  O327  1  -0.00105066  0.01031552  0.62768408  1
  O  O328  1  0.00569344  0.51183647  0.11854490  1
  O  O329  1  -0.02177079  0.52254868  0.61035241  1
  O  O330  1  0.49120646  0.01068307  0.11338895  1
  O  O331  1  0.50609023  0.01421874  0.61628545  1
  O  O332  1  0.50576940  0.50159488  0.13158322  1
  O  O333  1  0.50013874  0.49795025  0.61319336  1
  O  O334  1  0.23285817  0.37590065  0.24395338  1
  O  O335  1  0.28233465  0.39385893  0.73151644  1
  O  O336  1  0.26881880  0.87153744  0.22745460  1
  O  O337  1  0.24520479  0.89878266  0.75202620  1
  O  O338  1  0.74241448  0.38449884  0.25205324  1
  O  O339  1  0.74305313  0.37684584  0.74046160  1
  O  O340  1  0.74270753  0.88926404  0.25163894  1
  O  O341  1  0.74548023  0.88444936  0.74313355  1
  O  O342  1  0.26444606  0.10144418  0.24280649  1
  O  O343  1  0.24836731  0.11887243  0.76110520  1
  O  O344  1  0.26463854  0.64050378  0.26297773  1
  O  O345  1  0.27307837  0.61997595  0.76165956  1
  O  O346  1  0.75194159  0.11826531  0.25648539  1
  O  O347  1  0.75594035  0.11257657  0.74325070  1
  O  O348  1  0.75532413  0.61822458  0.25660575  1
  O  O349  1  0.74592462  0.62777836  0.76628319  1
  O  O350  1  0.39182688  0.11524134  0.36440125  1
  O  O351  1  0.36139620  0.13662257  0.88186773  1
  O  O352  1  0.36958105  0.62106029  0.37010767  1
  O  O353  1  0.41414670  0.60413199  0.86608837  1
  O  O354  1  0.87077411  0.12855811  0.36000415  1
  O  O355  1  0.87952660  0.12128328  0.86089967  1
  O  O356  1  0.86667675  0.62005480  0.37130757  1
  O  O357  1  0.86387692  0.62013815  0.87079602  1
  O  O358  1  0.12286902  0.38399232  0.13370759  1
  O  O359  1  0.07894997  0.39448878  0.62927084  1
  O  O360  1  0.14077600  0.88268527  0.11045260  1
  O  O361  1  0.13667991  0.86435974  0.64788949  1
  O  O362  1  0.62540062  0.39090255  0.13750405  1
  O  O363  1  0.63774494  0.37371676  0.63340833  1
  O  O364  1  0.62223248  0.86992365  0.13431162  1
  O  O365  1  0.63623374  0.88257530  0.63109225  1
  O  O366  1  0.11494378  0.27200807  0.24206539  1
  O  O367  1  0.11142247  0.24417829  0.75990900  1
  O  O368  1  0.11224654  0.75446314  0.24208382  1
  O  O369  1  0.11200393  0.73016671  0.74671428  1
  O  O370  1  0.62466928  0.26522604  0.24163652  1
  O  O371  1  0.62689549  0.24449327  0.75807206  1
  O  O372  1  0.61370611  0.75491252  0.25299424  1
  O  O373  1  0.63305107  0.76576341  0.74916821  1
  O  O374  1  0.37248796  0.23667705  0.24864453  1
  O  O375  1  0.39652650  0.25394787  0.75269310  1
  O  O376  1  0.38749349  0.74257033  0.25428924  1
  O  O377  1  0.37496770  0.75654472  0.73438661  1
  O  O378  1  0.86482749  0.23457568  0.23608142  1
  O  O379  1  0.88335815  0.24144565  0.75126295  1
  O  O380  1  0.88074397  0.74756223  0.24111476  1
  O  O381  1  0.87643577  0.73797036  0.75084104  1
  O  O382  1  0.38745078  0.49928254  0.49636836  1
  O  O383  1  0.37968615  0.49191894  0.99461233  1
  O  O384  1  0.39120675  1.00676092  0.49234601  1
  O  O385  1  0.38047061  0.99464400  0.99802676  1
  O  O386  1  0.87774470  0.49579850  0.48587640  1
  O  O387  1  0.88004205  0.49710559  0.99375578  1
  O  O388  1  0.88725866  0.98789897  0.50385835  1
  O  O389  1  0.86562073  0.97963872  1.00053822  1
  O  O390  1  0.13488851  0.01190545  0.00567918  1
  O  O391  1  0.10755646  -0.01212889  0.50353964  1
  O  O392  1  0.11998257  0.51314267  0.00728055  1
  O  O393  1  0.10783897  0.50664554  0.48935214  1
  O  O394  1  0.61356064  0.01065419  -0.00363041  1
  O  O395  1  0.61875935  0.01014878  0.49644598  1
  O  O396  1  0.63124267  0.51318162  0.02150766  1
  O  O397  1  0.61361651  0.51059521  0.49441503  1
  O  O398  1  0.35999757  0.36300753  0.14081276  1
  O  O399  1  0.38779121  0.37768003  0.60882826  1
  O  O400  1  0.36251821  0.88008307  0.10459786  1
  O  O401  1  0.36857034  0.86760345  0.61910248  1
  O  O402  1  0.87536023  0.36636099  0.11932542  1
  O  O403  1  0.87752886  0.37665912  0.60729953  1
  O  O404  1  0.87740447  0.86451535  0.11298734  1
  O  O405  1  0.86326274  0.87394223  0.62746972  1
  O  O406  1  0.13446577  0.13716810  0.31763570  1
  O  O407  1  0.12839740  0.13425231  0.88120641  1
  O  O408  1  0.14339874  0.62208009  0.37088190  1
  O  O409  1  0.11814860  0.62109719  0.88858793  1
  O  O410  1  0.63122585  0.12910547  0.38479505  1
  O  O411  1  0.62264414  0.13008216  0.88559043  1
  O  O412  1  0.63064228  0.63241103  0.37534889  1
  O  O413  1  0.62612085  0.61692025  0.89887607  1
