# generated using pymatgen
data_V79Zn79O256
_symmetry_space_group_name_H-M   'P 1'
_cell_length_a   16.94064898
_cell_length_b   16.94786722
_cell_length_c   16.93477043
_cell_angle_alpha   89.98031392
_cell_angle_beta   89.92103022
_cell_angle_gamma   89.89782486
_symmetry_Int_Tables_number   1
_chemical_formula_structural   V79Zn79O256
_chemical_formula_sum   'V79 Zn79 O256'
_cell_volume   4862.09322650
_cell_formula_units_Z   1
loop_
 _symmetry_equiv_pos_site_id
 _symmetry_equiv_pos_as_xyz
  1  'x, y, z'
loop_
 _atom_site_type_symbol
 _atom_site_label
 _atom_site_symmetry_multiplicity
 _atom_site_fract_x
 _atom_site_fract_y
 _atom_site_fract_z
 _atom_site_occupancy
  V  V0  1  0.61187221  0.11527979  0.49631128  1
  V  V1  1  0.88106275  -0.00856299  0.35773188  1
  V  V2  1  0.36749390  0.37149553  0.50089478  1
  V  V3  1  0.62033017  0.61178314  0.50089223  1
  V  V4  1  -0.00477732  0.24127901  0.24683763  1
  V  V5  1  0.87450955  0.50306199  0.37955634  1
  V  V6  1  0.37396028  0.62406509  0.25181861  1
  V  V7  1  0.12075241  0.37276199  0.25747199  1
  V  V8  1  0.36704897  -0.00121663  0.87018186  1
  V  V9  1  0.49728480  0.24988038  0.24612749  1
  V  V10  1  0.01311917  0.01972706  -0.00390914  1
  V  V11  1  0.50394058  0.75727021  0.76527076  1
  V  V12  1  0.49861304  0.37710115  0.37621802  1
  V  V13  1  0.37187333  0.24997709  0.12322693  1
  V  V14  1  0.00080227  0.50111179  0.00112651  1
  V  V15  1  0.49936116  -0.00046603  -0.00595230  1
  V  V16  1  0.77817222  0.86669237  0.11139911  1
  V  V17  1  0.37087848  0.11214416  0.24953841  1
  V  V18  1  0.24325325  0.24320650  -0.00225862  1
  V  V19  1  0.11897874  0.50411471  0.12773461  1
  V  V20  1  0.88521519  0.12136017  0.74619749  1
  V  V21  1  0.14030253  0.87535560  0.74594930  1
  V  V22  1  0.62742560  0.24957308  0.37211105  1
  V  V23  1  0.12266858  0.24832995  0.87513202  1
  V  V24  1  0.75318095  0.63034163  0.37993645  1
  V  V25  1  0.12098544  0.37234575  0.73330213  1
  V  V26  1  0.24186526  0.88247990  0.13724813  1
  V  V27  1  0.12352959  0.01491268  0.13278630  1
  V  V28  1  0.24247309  0.49356879  0.74611013  1
  V  V29  1  0.25325917  0.11119000  0.37005902  1
  V  V30  1  0.37341446  0.75310716  0.12817063  1
  V  V31  1  0.24717088  0.37407860  0.12410824  1
  V  V32  1  0.10122506  0.62051723  0.50507111  1
  V  V33  1  0.24521065  0.25098835  0.48844852  1
  V  V34  1  0.74995675  0.50220684  0.25057838  1
  V  V35  1  0.73365988  0.49792207  0.72880424  1
  V  V36  1  0.37696226  0.49948873  0.37993807  1
  V  V37  1  0.49425348  0.49923944  -0.00642066  1
  V  V38  1  0.12546992  0.76626472  0.37136636  1
  V  V39  1  0.13372279  0.74837963  0.87732847  1
  V  V40  1  0.87079342  -0.00162707  0.87685998  1
  V  V41  1  0.85511887  0.50284358  0.87302395  1
  V  V42  1  0.87105381  0.23259253  0.12677312  1
  V  V43  1  0.00115392  0.74066456  0.75088180  1
  V  V44  1  0.50222414  0.11979997  0.12244680  1
  V  V45  1  0.38100824  0.75039968  0.62621782  1
  V  V46  1  -0.00415085  0.37462919  0.37673728  1
  V  V47  1  -0.00028897  0.37330756  0.87148324  1
  V  V48  1  0.62949037  0.75475195  0.38075146  1
  V  V49  1  0.62476811  0.12372726  -0.00068288  1
  V  V50  1  0.63083872  0.88038296  0.23646208  1
  V  V51  1  0.36404884  0.12037951  0.74861612  1
  V  V52  1  0.36402582  0.25062371  0.62347562  1
  V  V53  1  0.37793711  0.88749169  0.50224271  1
  V  V54  1  0.86663440  0.37643227  0.01099983  1
  V  V55  1  0.37732931  0.87642717  -0.00260535  1
  V  V56  1  0.24866970  0.49796386  0.25113499  1
  V  V57  1  0.37631944  0.61607793  0.76058899  1
  V  V58  1  0.62887973  0.37575701  0.24596340  1
  V  V59  1  0.26025757  0.73778278  0.50185073  1
  V  V60  1  0.00386784  0.87729991  0.87899278  1
  V  V61  1  0.37367742  0.37851742  -0.01034525  1
  V  V62  1  0.12394320  0.62591656  0.00347292  1
  V  V63  1  0.62217688  -0.01275901  0.63611528  1
  V  V64  1  0.87045829  0.37448960  0.50361423  1
  V  V65  1  0.63044441  0.87033695  0.77611298  1
  V  V66  1  0.88847946  0.24986359  0.63205544  1
  V  V67  1  0.88795066  0.62978238  0.24193658  1
  V  V68  1  0.50333883  0.24984270  0.74851907  1
  V  V69  1  0.49834213  0.88808539  0.37967473  1
  V  V70  1  0.63593881  0.63471825  -0.00954483  1
  V  V71  1  0.74918681  0.12935502  0.87161164  1
  V  V72  1  0.74346265  0.24868003  0.50868481  1
  V  V73  1  0.00474219  0.76653994  0.24323909  1
  V  V74  1  0.12683199  0.00614985  0.62779994  1
  V  V75  1  0.11606837  0.12373894  0.49107980  1
  V  V76  1  0.50188942  0.62544990  0.12628988  1
  V  V77  1  0.62760353  0.49927710  0.12509523  1
  V  V78  1  0.81917299  0.76831367  0.58831842  1
  Zn  Zn79  1  0.01905423  -0.04718342  0.48335570  1
  Zn  Zn80  1  0.25816001  0.61136401  0.88440606  1
  Zn  Zn81  1  0.23861559  0.11803572  0.87256345  1
  Zn  Zn82  1  0.67913393  0.32085420  0.68864811  1
  Zn  Zn83  1  0.48583321  0.11553092  0.61388859  1
  Zn  Zn84  1  0.50265485  0.75315732  0.25127366  1
  Zn  Zn85  1  0.51170217  0.62224147  0.62767959  1
  Zn  Zn86  1  0.50042293  0.38239636  0.86196392  1
  Zn  Zn87  1  0.74855831  0.01292668  0.23625690  1
  Zn  Zn88  1  0.25113368  0.74935448  0.00397840  1
  Zn  Zn89  1  0.76275795  0.12489954  0.36646202  1
  Zn  Zn90  1  0.88101359  0.62263258  0.72860088  1
  Zn  Zn91  1  0.24365647  0.62367024  0.37409886  1
  Zn  Zn92  1  0.74211282  0.25578446  0.00452878  1
  Zn  Zn93  1  0.62660263  0.25505680  0.87128871  1
  Zn  Zn94  1  0.18489542  0.19004003  0.19131190  1
  Zn  Zn95  1  0.18199085  0.18956284  0.68327468  1
  Zn  Zn96  1  0.18618929  0.69018797  0.18866113  1
  Zn  Zn97  1  0.19616131  0.68076386  0.68339938  1
  Zn  Zn98  1  0.68844004  0.18834445  0.18291234  1
  Zn  Zn99  1  0.69593210  0.14845471  0.67399433  1
  Zn  Zn100  1  0.69315016  0.69469967  0.18850287  1
  Zn  Zn101  1  0.69043457  0.68444513  0.68838862  1
  Zn  Zn102  1  0.31021367  0.30822621  0.31131964  1
  Zn  Zn103  1  0.30877735  0.31263963  0.80908862  1
  Zn  Zn104  1  0.31274764  0.81729019  0.31728737  1
  Zn  Zn105  1  0.31701841  0.81038398  0.81595057  1
  Zn  Zn106  1  0.81077125  0.31190395  0.31179758  1
  Zn  Zn107  1  0.81049337  0.31799875  0.81477253  1
  Zn  Zn108  1  0.81415095  0.81399855  0.30652447  1
  Zn  Zn109  1  0.83992856  0.84235694  0.76235044  1
  Zn  Zn110  1  0.18448801  0.44597732  0.44439753  1
  Zn  Zn111  1  0.18835565  0.43424349  0.93182715  1
  Zn  Zn112  1  0.20061093  0.93764696  0.44615160  1
  Zn  Zn113  1  0.19022171  0.93360257  0.94371561  1
  Zn  Zn114  1  0.68508889  0.43877470  0.54647199  1
  Zn  Zn115  1  0.67749560  0.43578269  0.93652053  1
  Zn  Zn116  1  0.69658667  0.94279298  0.42774041  1
  Zn  Zn117  1  0.69001477  0.93805195  0.94590527  1
  Zn  Zn118  1  0.31091403  0.06111375  0.06309711  1
  Zn  Zn119  1  0.30079043  0.06204333  0.56491401  1
  Zn  Zn120  1  0.31012278  0.56071441  0.06525806  1
  Zn  Zn121  1  0.36781910  0.52428163  0.59957549  1
  Zn  Zn122  1  0.81135074  0.05204645  0.05756358  1
  Zn  Zn123  1  0.80321659  0.06688401  0.56133032  1
  Zn  Zn124  1  0.81312524  0.56531940  0.06403721  1
  Zn  Zn125  1  0.84845897  0.56717870  0.57283097  1
  Zn  Zn126  1  0.43692539  0.43657795  0.18489521  1
  Zn  Zn127  1  0.53889090  0.44063349  0.67539128  1
  Zn  Zn128  1  0.44364770  0.93455703  0.18705328  1
  Zn  Zn129  1  0.44246020  0.93665520  0.68702665  1
  Zn  Zn130  1  0.93781328  0.43904769  0.19074281  1
  Zn  Zn131  1  0.93413423  0.44156115  0.68807201  1
  Zn  Zn132  1  0.94059498  0.94202964  0.17706265  1
  Zn  Zn133  1  0.96469156  0.88734817  0.62813382  1
  Zn  Zn134  1  0.05856224  0.05594454  0.31785261  1
  Zn  Zn135  1  0.06035956  0.06224590  0.80496735  1
  Zn  Zn136  1  0.06142396  0.56594311  0.32551426  1
  Zn  Zn137  1  0.07012510  0.55600830  0.81598438  1
  Zn  Zn138  1  0.56367260  0.06329037  0.30803371  1
  Zn  Zn139  1  0.55559561  0.06433038  0.81123890  1
  Zn  Zn140  1  0.56317973  0.56300891  0.31665858  1
  Zn  Zn141  1  0.56570231  0.56834945  0.81271813  1
  Zn  Zn142  1  0.43309082  0.18758349  0.42970858  1
  Zn  Zn143  1  0.43109182  0.18659313  0.93288028  1
  Zn  Zn144  1  0.44449597  0.69077647  0.43431004  1
  Zn  Zn145  1  0.44284127  0.68897505  0.94155262  1
  Zn  Zn146  1  0.93108338  0.18663363  0.43299117  1
  Zn  Zn147  1  0.93532655  0.19152917  0.93655390  1
  Zn  Zn148  1  0.95223285  0.75564065  0.46031437  1
  Zn  Zn149  1  0.94825382  0.67682857  0.91896338  1
  Zn  Zn150  1  0.05806293  0.31167337  0.06403458  1
  Zn  Zn151  1  0.05863455  0.30571168  0.55549790  1
  Zn  Zn152  1  0.05817722  0.81514073  0.06309747  1
  Zn  Zn153  1  0.08515208  0.78741312  0.57391759  1
  Zn  Zn154  1  0.55932130  0.31215537  0.05913813  1
  Zn  Zn155  1  0.54874343  0.30061757  0.55703951  1
  Zn  Zn156  1  0.56210839  0.81226999  0.05748054  1
  Zn  Zn157  1  0.56352634  0.80871780  0.56349933  1
  O  O158  1  0.13229482  0.11400629  0.12400706  1
  O  O159  1  0.12672589  0.11288014  0.61443186  1
  O  O160  1  0.13075793  0.61310881  0.11841696  1
  O  O161  1  0.12657743  0.64504579  0.60208973  1
  O  O162  1  0.61090668  0.13007206  0.11492596  1
  O  O163  1  0.60788932  0.13094870  0.60228457  1
  O  O164  1  0.61500975  0.61837328  0.12621086  1
  O  O165  1  0.63023635  0.62623873  0.60413397  1
  O  O166  1  0.37971504  0.38042112  0.37455206  1
  O  O167  1  0.37882378  0.36926053  0.88634344  1
  O  O168  1  0.39134664  0.87158813  0.38324677  1
  O  O169  1  0.37057311  0.88213515  0.88911168  1
  O  O170  1  0.87559135  0.38229127  0.38152085  1
  O  O171  1  0.88167920  0.38240375  0.88690925  1
  O  O172  1  0.87222057  0.88973119  0.36799132  1
  O  O173  1  0.88578792  0.89518102  0.85957450  1
  O  O174  1  0.25328036  0.01241023  0.37503385  1
  O  O175  1  0.26143141  0.00209877  0.88279440  1
  O  O176  1  0.25921748  0.50218409  0.36765201  1
  O  O177  1  0.24692578  0.49893897  0.85904923  1
  O  O178  1  0.76341578  0.00139265  0.35726219  1
  O  O179  1  0.76633570  0.00901020  0.88467982  1
  O  O180  1  0.75797355  0.51076803  0.36049218  1
  O  O181  1  0.75498058  0.50216540  0.88343850  1
  O  O182  1  0.23978993  0.49314901  0.13181669  1
  O  O183  1  0.26685876  0.50231050  0.64818044  1
  O  O184  1  0.23741934  0.99162950  0.12010049  1
  O  O185  1  0.22643380  0.98926659  0.61271151  1
  O  O186  1  0.73721532  0.50643842  0.13743028  1
  O  O187  1  0.75240728  0.49336014  0.62822719  1
  O  O188  1  0.76478197  0.97935550  0.12911247  1
  O  O189  1  0.71746694  1.03098477  0.63513300  1
  O  O190  1  0.00415099  0.37123562  0.25730156  1
  O  O191  1  0.01200677  0.38751567  0.75752229  1
  O  O192  1  -0.00146903  0.86448884  0.24598095  1
  O  O193  1  0.01574281  0.86185424  0.76524046  1
  O  O194  1  0.50525846  0.37021625  0.25448624  1
  O  O195  1  0.49480930  0.35475922  0.74446144  1
  O  O196  1  0.50810928  0.87481400  0.26248193  1
  O  O197  1  0.51026920  0.86211255  0.74722085  1
  O  O198  1  0.49274032  0.12921327  0.24102260  1
  O  O199  1  0.48398476  0.13316633  0.74491107  1
  O  O200  1  0.49061695  0.62291224  0.24119543  1
  O  O201  1  0.49110648  0.63797740  0.75389612  1
  O  O202  1  1.00599058  0.14421366  0.25820596  1
  O  O203  1  0.98416982  0.13085631  0.75190891  1
  O  O204  1  0.98920894  0.62083528  0.25308986  1
  O  O205  1  1.01260952  0.63898250  0.76448899  1
  O  O206  1  0.36630032  0.25846514  0.00386863  1
  O  O207  1  0.36475752  0.25254330  0.50151205  1
  O  O208  1  0.37739650  0.75762187  0.01229782  1
  O  O209  1  0.37364624  0.74958312  0.50577166  1
  O  O210  1  0.88050815  0.26371077  0.01267665  1
  O  O211  1  0.86328518  0.25089409  0.51278104  1
  O  O212  1  0.85670326  0.74398656  -0.02625860  1
  O  O213  1  0.84355809  0.76783360  0.48904956  1
  O  O214  1  0.13559290  0.23493988  0.50741232  1
  O  O215  1  0.13247588  0.26048859  0.99030875  1
  O  O216  1  0.14563942  0.74459511  0.48672609  1
  O  O217  1  0.12460586  0.74032095  0.99694413  1
  O  O218  1  0.62676256  0.24697790  0.48763692  1
  O  O219  1  0.62267792  0.23681317  0.99862039  1
  O  O220  1  0.62579752  0.74726472  0.48282430  1
  O  O221  1  0.61744869  0.73335852  1.00354811  1
  O  O222  1  0.49203433  0.24095073  0.12709009  1
  O  O223  1  0.48046796  0.24258222  0.63075454  1
  O  O224  1  0.48917428  0.74130569  0.12741042  1
  O  O225  1  0.49528179  0.74238786  0.63105298  1
  O  O226  1  0.98679764  0.25581361  0.13645006  1
  O  O227  1  0.98630207  0.24210084  0.62271485  1
  O  O228  1  1.01606700  0.74753368  0.14426858  1
  O  O229  1  1.00510576  0.75402819  0.65161673  1
  O  O230  1  -0.01697268  0.26343183  0.35864974  1
  O  O231  1  0.00585007  0.26506515  0.88068519  1
  O  O232  1  0.01960391  0.75583193  0.36586255  1
  O  O233  1  0.01754495  0.75742623  0.87577267  1
  O  O234  1  0.50464302  0.25669820  0.36432276  1
  O  O235  1  0.49613949  0.24513300  0.85557442  1
  O  O236  1  0.51483027  0.75758852  0.37002446  1
  O  O237  1  0.49726101  0.75428052  0.86437852  1
  O  O238  1  0.24614848  0.13032710  0.48540511  1
  O  O239  1  0.25522846  0.14058553  0.99718919  1
  O  O240  1  0.26072519  0.63785393  0.49466330  1
  O  O241  1  0.24023006  0.62636841  1.00172211  1
  O  O242  1  0.73165755  0.13678745  0.49539413  1
  O  O243  1  0.73938660  0.12290180  0.99287856  1
  O  O244  1  0.74066792  0.62167342  0.48194989  1
  O  O245  1  0.73426201  0.62200627  1.00875278  1
  O  O246  1  0.25613890  0.36982458  0.00463499  1
  O  O247  1  0.25548022  0.36453992  0.48672349  1
  O  O248  1  0.26310432  0.87235167  0.01382411  1
  O  O249  1  0.27437497  0.86111551  0.48967033  1
  O  O250  1  0.76428414  0.37627097  -0.00289815  1
  O  O251  1  0.76046782  0.36165506  0.50148294  1
  O  O252  1  0.75361976  0.87732077  0.01244188  1
  O  O253  1  0.77864317  0.91694009  0.51173949  1
  O  O254  1  0.12686720  0.49455269  0.24561244  1
  O  O255  1  0.13414821  0.49075954  0.74445189  1
  O  O256  1  0.11078181  1.00170392  0.23114894  1
  O  O257  1  0.12026448  0.98906969  0.73809672  1
  O  O258  1  0.62923827  0.49541177  0.24528774  1
  O  O259  1  0.62763556  0.50306489  0.73907230  1
  O  O260  1  0.62540535  0.98325359  0.25476834  1
  O  O261  1  0.61453606  0.98103895  0.74714196  1
  O  O262  1  0.37765544  0.01350869  0.24146702  1
  O  O263  1  0.38198506  0.00586884  0.75900236  1
  O  O264  1  0.36909153  0.50554312  0.25464567  1
  O  O265  1  0.37283496  0.51733038  0.76172960  1
  O  O266  1  0.88971084  0.00670739  0.25721407  1
  O  O267  1  0.87687031  0.01875545  0.76427585  1
  O  O268  1  0.86783889  0.50560912  0.25540225  1
  O  O269  1  0.85347440  0.48290637  0.76995557  1
  O  O270  1  0.11238377  0.38421037  0.36604206  1
  O  O271  1  0.11577344  0.36786646  0.86726300  1
  O  O272  1  0.13611065  0.86503871  0.38158416  1
  O  O273  1  0.12414632  0.86895721  0.87008226  1
  O  O274  1  0.61263887  0.36348868  0.36220159  1
  O  O275  1  0.61197113  0.36673124  0.88106802  1
  O  O276  1  0.62174981  0.86731276  0.37354031  1
  O  O277  1  0.62090821  0.87926368  0.87453140  1
  O  O278  1  0.37934521  0.13142704  0.12953529  1
  O  O279  1  0.36933589  0.12916290  0.62930011  1
  O  O280  1  0.38038956  0.63113383  0.13226315  1
  O  O281  1  0.37324296  0.64011716  0.64678632  1
  O  O282  1  0.87641464  0.13520902  0.11463835  1
  O  O283  1  0.86518920  0.13440186  0.63720849  1
  O  O284  1  0.87394446  0.61983073  0.14310136  1
  O  O285  1  0.84900041  0.67465260  0.62018889  1
  O  O286  1  0.25054049  0.25562132  0.11739805  1
  O  O287  1  0.25824387  0.24392187  0.61038127  1
  O  O288  1  0.25864489  0.76013639  0.12648894  1
  O  O289  1  0.26259511  0.74976924  0.60932891  1
  O  O290  1  0.76608599  0.24995568  0.12098124  1
  O  O291  1  0.74201805  0.24521843  0.61825460  1
  O  O292  1  0.75164945  0.76797183  0.12785203  1
  O  O293  1  0.72119719  0.76618336  0.61169535  1
  O  O294  1  0.25003331  0.24014708  0.38277439  1
  O  O295  1  0.23942205  0.25261304  0.88268945  1
  O  O296  1  0.24646208  0.74645067  0.37976054  1
  O  O297  1  0.24060263  0.75040037  0.88237270  1
  O  O298  1  0.74040561  0.25050130  0.38322795  1
  O  O299  1  0.75078103  0.24226652  0.88366959  1
  O  O300  1  0.73706897  0.74381835  0.36266566  1
  O  O301  1  0.79768216  0.75370277  0.93051504  1
  O  O302  1  0.00640855  0.11862926  -0.00819849  1
  O  O303  1  0.01828168  0.13485759  0.49083046  1
  O  O304  1  0.01075942  0.61229873  -0.00524135  1
  O  O305  1  0.00486126  0.64811629  0.49590020  1
  O  O306  1  0.50193409  0.12079303  0.00410537  1
  O  O307  1  0.50712346  0.12702218  0.49083515  1
  O  O308  1  0.50252364  0.61719753  0.01116916  1
  O  O309  1  0.51775871  0.62877774  0.49520273  1
  O  O310  1  0.48435207  0.36361314  0.48171818  1
  O  O311  1  0.48759275  0.38445651  1.00507911  1
  O  O312  1  0.49319859  0.86994857  0.48791474  1
  O  O313  1  0.48838749  0.88753120  1.01009334  1
  O  O314  1  0.98412945  0.36231771  0.48783817  1
  O  O315  1  0.99201775  0.38452260  0.99391189  1
  O  O316  1  1.00132630  0.84621149  0.51799310  1
  O  O317  1  1.00603477  0.88065196  0.98373639  1
  O  O318  1  0.48854449  0.48872745  0.36595542  1
  O  O319  1  0.50292220  0.50206713  0.89052348  1
  O  O320  1  0.50600293  0.98665535  0.37547741  1
  O  O321  1  0.48506190  1.00721666  0.88698308  1
  O  O322  1  0.98464282  0.48784511  0.36907258  1
  O  O323  1  0.99935001  0.48939143  0.88506357  1
  O  O324  1  0.98761954  0.99825214  0.38556632  1
  O  O325  1  1.00012122  0.99752585  0.88117589  1
  O  O326  1  0.01329678  -0.00283493  0.10483043  1
  O  O327  1  0.02292486  -0.01807911  0.60520782  1
  O  O328  1  0.00966062  0.49375430  0.11509617  1
  O  O329  1  -0.07126271  0.54549054  0.65146150  1
  O  O330  1  0.49097176  0.01343426  0.11226439  1
  O  O331  1  0.51610576  0.00388523  0.62662367  1
  O  O332  1  0.50602921  0.50854381  0.12047577  1
  O  O333  1  0.47737990  0.51531558  0.62401755  1
  O  O334  1  0.23914390  0.37670346  0.24640807  1
  O  O335  1  0.23673074  0.38366969  0.75043750  1
  O  O336  1  0.25763243  0.87648561  0.23587803  1
  O  O337  1  0.23899443  0.87286347  0.75855046  1
  O  O338  1  0.73687756  0.38566350  0.25639533  1
  O  O339  1  0.74138060  0.38812845  0.75411394  1
  O  O340  1  0.73827846  0.87449470  0.23776585  1
  O  O341  1  0.72910912  0.86459777  0.76255652  1
  O  O342  1  0.25489582  0.13099102  0.26196014  1
  O  O343  1  0.25966276  0.12970657  0.74892736  1
  O  O344  1  0.26100228  0.61898098  0.24851072  1
  O  O345  1  0.25881296  0.61815395  0.75639920  1
  O  O346  1  0.74199564  0.12481960  0.25446124  1
  O  O347  1  0.75785239  0.13053627  0.76686016  1
  O  O348  1  0.75790497  0.62038431  0.25599076  1
  O  O349  1  0.75463059  0.60212658  0.74212515  1
  O  O350  1  0.36292452  0.12668651  0.36411715  1
  O  O351  1  0.36697656  0.11696991  0.86572281  1
  O  O352  1  0.38048017  0.61689165  0.36452577  1
  O  O353  1  0.37145920  0.64155626  0.86418477  1
  O  O354  1  0.86961212  0.09850006  0.40326789  1
  O  O355  1  0.86999148  0.12426831  0.86752503  1
  O  O356  1  0.86742858  0.61444949  0.36400349  1
  O  O357  1  0.88048698  0.60200822  0.86841541  1
  O  O358  1  0.12686127  0.38493501  0.13392051  1
  O  O359  1  0.11350312  0.36952419  0.63442351  1
  O  O360  1  0.14001146  0.87842452  0.12089530  1
  O  O361  1  0.13042553  0.87012077  0.64356684  1
  O  O362  1  0.61540135  0.38581361  0.13507336  1
  O  O363  1  0.61335058  0.37652814  0.61307485  1
  O  O364  1  0.61414798  0.87422422  0.13777045  1
  O  O365  1  0.62749016  0.88944864  0.61660584  1
  O  O366  1  0.10896220  0.26384757  0.24165905  1
  O  O367  1  0.13087599  0.26698538  0.75489297  1
  O  O368  1  0.12042767  0.74718296  0.26311171  1
  O  O369  1  0.12722808  0.75638124  0.76032983  1
  O  O370  1  0.61916284  0.25833009  0.25158225  1
  O  O371  1  0.60872492  0.23839643  0.74066704  1
  O  O372  1  0.62257789  0.76252523  0.25761741  1
  O  O373  1  0.61319966  0.75682528  0.75065702  1
  O  O374  1  0.37885177  0.24288074  0.24185586  1
  O  O375  1  0.37495028  0.24301298  0.74053526  1
  O  O376  1  0.37617986  0.74149150  0.24333551  1
  O  O377  1  0.38765092  0.75661109  0.74316697  1
  O  O378  1  0.88109759  0.25491123  0.23630116  1
  O  O379  1  0.86927510  0.24700321  0.73712768  1
  O  O380  1  0.89306427  0.73831824  0.25880144  1
  O  O381  1  0.89750894  0.74034010  0.77267785  1
  O  O382  1  0.36687651  0.48822493  0.48530853  1
  O  O383  1  0.38164011  0.49104310  1.00826498  1
  O  O384  1  0.37149449  0.98594431  0.50799704  1
  O  O385  1  0.37953601  0.99504323  0.99370727  1
  O  O386  1  0.86446115  0.48834044  0.48915086  1
  O  O387  1  0.87992635  0.49345309  0.99472326  1
  O  O388  1  0.83941261  0.96988269  0.50748397  1
  O  O389  1  0.89352588  1.00859603  0.98213682  1
  O  O390  1  0.11725167  0.00311323  0.00031152  1
  O  O391  1  0.12646693  0.01115514  0.49970961  1
  O  O392  1  0.11979178  0.50395274  0.00731654  1
  O  O393  1  0.11499643  0.51913991  0.49561796  1
  O  O394  1  0.61218024  0.01335737  -0.00793909  1
  O  O395  1  0.62848183  0.01405767  0.49749752  1
  O  O396  1  0.61519010  0.50679049  0.01173513  1
  O  O397  1  0.62536545  0.51261549  0.48583729  1
  O  O398  1  0.36646572  0.36885974  0.11931231  1
  O  O399  1  0.37569425  0.36404864  0.60418013  1
  O  O400  1  0.36954066  0.86931943  0.12130158  1
  O  O401  1  0.38883261  0.86435876  0.61026940  1
  O  O402  1  0.87588851  0.38111767  0.11214138  1
  O  O403  1  0.88241151  0.36027936  0.61719391  1
  O  O404  1  0.87912894  0.86602805  0.11854928  1
  O  O405  1  0.86224639  0.84751466  0.64766439  1
  O  O406  1  0.13676868  0.11975580  0.38338968  1
  O  O407  1  0.12326012  0.14330656  0.85931641  1
  O  O408  1  0.12734388  0.63520340  0.38834568  1
  O  O409  1  0.12980196  0.63148044  0.88774687  1
  O  O410  1  0.61905841  0.13795598  0.37977866  1
  O  O411  1  0.63169884  0.12768941  0.87936603  1
  O  O412  1  0.63053789  0.63614817  0.37630139  1
  O  O413  1  0.62561336  0.62181550  0.89140236  1
