# generated using pymatgen
data_V79Zn79O256
_symmetry_space_group_name_H-M   'P 1'
_cell_length_a   16.95342678
_cell_length_b   16.92386047
_cell_length_c   16.91850883
_cell_angle_alpha   89.94257757
_cell_angle_beta   89.82383656
_cell_angle_gamma   90.10561942
_symmetry_Int_Tables_number   1
_chemical_formula_structural   V79Zn79O256
_chemical_formula_sum   'V79 Zn79 O256'
_cell_volume   4854.18140358
_cell_formula_units_Z   1
loop_
 _symmetry_equiv_pos_site_id
 _symmetry_equiv_pos_as_xyz
  1  'x, y, z'
loop_
 _atom_site_type_symbol
 _atom_site_label
 _atom_site_symmetry_multiplicity
 _atom_site_fract_x
 _atom_site_fract_y
 _atom_site_fract_z
 _atom_site_occupancy
  V  V0  1  0.12818893  0.62762629  0.50028317  1
  V  V1  1  0.25018439  0.62099330  0.87249018  1
  V  V2  1  -0.00077945  0.63478288  0.12757036  1
  V  V3  1  0.00799854  0.88240672  0.38675218  1
  V  V4  1  0.37465252  0.12060945  0.25058469  1
  V  V5  1  -0.00278332  -0.00424421  -0.00042649  1
  V  V6  1  0.86674403  0.11972872  0.25538356  1
  V  V7  1  0.77886009  0.75997210  0.00191497  1
  V  V8  1  0.49971773  0.87427715  0.87258270  1
  V  V9  1  0.25192553  0.11979153  0.37234501  1
  V  V10  1  0.00051450  0.12604945  0.13197801  1
  V  V11  1  0.87196068  0.74152658  0.63389371  1
  V  V12  1  0.50345408  0.75027266  0.74826877  1
  V  V13  1  0.25583574  0.87252035  0.62353527  1
  V  V14  1  0.24953379  0.12481693  0.87326267  1
  V  V15  1  0.37837269  0.37667798  0.50152969  1
  V  V16  1  0.62759975  0.25031690  0.87731767  1
  V  V17  1  0.37187822  0.86900639  -0.00132270  1
  V  V18  1  0.62712472  0.50490308  0.62361097  1
  V  V19  1  0.37885903  0.24801319  0.12823045  1
  V  V20  1  0.25176838  0.24972850  -0.00059524  1
  V  V21  1  0.49803030  -0.00064600  -0.00151704  1
  V  V22  1  0.00328614  0.50047496  0.50861547  1
  V  V23  1  0.63243061  0.62547642  0.48187038  1
  V  V24  1  0.24831745  0.24736209  0.50182761  1
  V  V25  1  0.37291346  -0.00095683  0.87293804  1
  V  V26  1  0.50747000  0.36516838  0.35796689  1
  V  V27  1  0.37421544  0.24970938  0.62733252  1
  V  V28  1  0.62543656  0.75155891  0.88916500  1
  V  V29  1  0.50655320  -0.01177547  0.50176715  1
  V  V30  1  0.12890362  0.87047566  0.25367173  1
  V  V31  1  0.49927988  0.25310539  0.75299948  1
  V  V32  1  0.86787662  0.00335232  0.38314001  1
  V  V33  1  0.86291021  0.00227968  0.87620070  1
  V  V34  1  0.62261665  0.37813669  0.75031436  1
  V  V35  1  0.00221280  0.38006498  0.37717236  1
  V  V36  1  0.50807161  0.12413524  0.62201838  1
  V  V37  1  0.75383798  0.63155704  0.87844968  1
  V  V38  1  0.87287732  0.25217789  0.62186427  1
  V  V39  1  0.75859993  0.51114056  0.74855269  1
  V  V40  1  0.86763097  0.63041004  0.25724518  1
  V  V41  1  0.62728919  -0.01029887  0.13359414  1
  V  V42  1  0.37748716  0.61269544  0.75080546  1
  V  V43  1  0.22713575  0.49602572  0.74721428  1
  V  V44  1  0.62939818  0.88764726  0.74748144  1
  V  V45  1  0.37459689  0.73465990  0.13373119  1
  V  V46  1  0.24899232  0.87471746  0.12765821  1
  V  V47  1  0.75352134  0.74936091  0.48945556  1
  V  V48  1  0.87425187  0.49550938  0.87979981  1
  V  V49  1  0.86924951  0.50419409  0.37663383  1
  V  V50  1  0.12372416  0.25773231  0.87173240  1
  V  V51  1  0.12201314  -0.00120806  0.61959679  1
  V  V52  1  0.74499266  0.24851257  0.48877678  1
  V  V53  1  0.12143107  0.62265217  0.00069849  1
  V  V54  1  0.24889785  0.74728840  0.48896978  1
  V  V55  1  0.75345472  0.37605778  0.62109246  1
  V  V56  1  0.12919157  -0.00100513  0.13107366  1
  V  V57  1  0.37488984  0.74961776  0.61876504  1
  V  V58  1  0.12537607  0.25189013  0.37028214  1
  V  V59  1  0.38082261  0.38687183  -0.00402629  1
  V  V60  1  0.86146402  0.12145508  0.75517916  1
  V  V61  1  0.35763782  0.49827081  0.35991760  1
  V  V62  1  0.38331245  -0.00884047  0.37826586  1
  V  V63  1  0.12454457  0.12409313  -0.00009052  1
  V  V64  1  0.00107070  0.75240380  0.25782250  1
  V  V65  1  0.23626914  0.37534224  0.63037690  1
  V  V66  1  0.00240947  0.25419779  0.75261570  1
  V  V67  1  0.37595549  0.12536463  0.74977357  1
  V  V68  1  0.74646711  0.88808721  0.63032331  1
  V  V69  1  0.76752147  0.87858605  0.12981472  1
  V  V70  1  -0.00056962  0.12020955  0.62176744  1
  V  V71  1  0.50419803  0.62840661  0.61930372  1
  V  V72  1  -0.00258730  0.74450855  0.75035906  1
  V  V73  1  0.24158634  0.38179561  0.12957139  1
  V  V74  1  0.50025929  0.12498098  0.13007062  1
  V  V75  1  -0.00114228  0.87751106  0.87447282  1
  V  V76  1  -0.00255618  0.49181015  0.01048314  1
  V  V77  1  0.63648199  0.12281945  -0.00714400  1
  V  V78  1  0.25059964  -0.00109381  0.74782512  1
  Zn  Zn79  1  0.00240698  0.61438903  0.63710883  1
  Zn  Zn80  1  0.00145397  0.26137404  0.24673893  1
  Zn  Zn81  1  0.86851311  0.25581965  0.12371068  1
  Zn  Zn82  1  0.49650476  0.50104658  0.49226208  1
  Zn  Zn83  1  0.62905908  0.12643862  0.50033260  1
  Zn  Zn84  1  0.12391124  0.75081704  0.87166050  1
  Zn  Zn85  1  0.51762571  0.75586463  0.26670709  1
  Zn  Zn86  1  -0.01003927  0.36939543  0.88319786  1
  Zn  Zn87  1  0.12542023  0.87395184  0.74982734  1
  Zn  Zn88  1  0.75683536  0.26555218  0.00673057  1
  Zn  Zn89  1  0.49481675  0.39482576  0.87668843  1
  Zn  Zn90  1  0.24317610  0.74781888  -0.00257921  1
  Zn  Zn91  1  0.88285589  0.88192167  0.50990508  1
  Zn  Zn92  1  0.13888744  0.40617952  0.25649511  1
  Zn  Zn93  1  0.11677320  0.11868700  0.49526787  1
  Zn  Zn94  1  0.19079357  0.18781893  0.18891786  1
  Zn  Zn95  1  0.18453168  0.18520318  0.68747888  1
  Zn  Zn96  1  0.18470625  0.68296501  0.18809381  1
  Zn  Zn97  1  0.18238472  0.68452620  0.68499649  1
  Zn  Zn98  1  0.69363792  0.17359900  0.17978271  1
  Zn  Zn99  1  0.68595036  0.19026914  0.68868058  1
  Zn  Zn100  1  0.70182047  0.69342275  0.18781792  1
  Zn  Zn101  1  0.68654976  0.69532465  0.69001389  1
  Zn  Zn102  1  0.31513195  0.31286618  0.31358346  1
  Zn  Zn103  1  0.31236193  0.31798001  0.81321642  1
  Zn  Zn104  1  0.31722956  0.81178446  0.31008630  1
  Zn  Zn105  1  0.31291817  0.80600311  0.80742584  1
  Zn  Zn106  1  0.82121456  0.31407136  0.30619002  1
  Zn  Zn107  1  0.81080622  0.31345672  0.80937410  1
  Zn  Zn108  1  0.81891012  0.82257977  0.31056794  1
  Zn  Zn109  1  0.81349474  0.81953253  0.81264327  1
  Zn  Zn110  1  0.18428306  0.43755096  0.44764584  1
  Zn  Zn111  1  0.18754629  0.43980806  0.93997850  1
  Zn  Zn112  1  0.19390337  0.93421733  0.44002461  1
  Zn  Zn113  1  0.18424163  0.93727650  0.93799996  1
  Zn  Zn114  1  0.68650706  0.43247766  0.43504301  1
  Zn  Zn115  1  0.69170677  0.43243166  0.92562342  1
  Zn  Zn116  1  0.69054183  0.93869699  0.44586903  1
  Zn  Zn117  1  0.68560885  0.93180360  0.94272326  1
  Zn  Zn118  1  0.31139007  0.06090878  0.06158006  1
  Zn  Zn119  1  0.31775663  0.06031286  0.56017654  1
  Zn  Zn120  1  0.30676182  0.56040952  0.06222752  1
  Zn  Zn121  1  0.30921638  0.56174086  0.56439256  1
  Zn  Zn122  1  0.81520057  0.06033444  0.06625736  1
  Zn  Zn123  1  0.81518047  0.06843320  0.55803833  1
  Zn  Zn124  1  0.82397107  0.57722654  0.05897728  1
  Zn  Zn125  1  0.81640008  0.56458862  0.55782893  1
  Zn  Zn126  1  0.42788964  0.43239248  0.19038620  1
  Zn  Zn127  1  0.43753257  0.43602523  0.68090378  1
  Zn  Zn128  1  0.43502721  0.93353014  0.18789936  1
  Zn  Zn129  1  0.44140114  0.93648331  0.68303237  1
  Zn  Zn130  1  0.94525357  0.44714804  0.19856912  1
  Zn  Zn131  1  0.93612171  0.43453250  0.69287507  1
  Zn  Zn132  1  0.94317666  0.94176008  0.19591873  1
  Zn  Zn133  1  0.93438942  0.93563545  0.69046708  1
  Zn  Zn134  1  0.06399423  0.05981867  0.31477574  1
  Zn  Zn135  1  0.06107063  0.06567541  0.80813034  1
  Zn  Zn136  1  0.05972808  0.57393240  0.32345486  1
  Zn  Zn137  1  0.05770327  0.56138547  0.81959685  1
  Zn  Zn138  1  0.56860107  -0.07059717  0.30993157  1
  Zn  Zn139  1  0.56201296  0.06637182  0.81275570  1
  Zn  Zn140  1  0.54434572  0.55485708  0.31081653  1
  Zn  Zn141  1  0.57273297  0.57268419  0.80895993  1
  Zn  Zn142  1  0.44005507  0.18655807  0.43694592  1
  Zn  Zn143  1  0.43978907  0.18945418  0.93841190  1
  Zn  Zn144  1  0.43108644  0.67458158  0.38720388  1
  Zn  Zn145  1  0.43465807  0.68496165  0.93408935  1
  Zn  Zn146  1  0.93509541  0.19160658  0.43723887  1
  Zn  Zn147  1  0.93223762  0.18683739  0.94307902  1
  Zn  Zn148  1  0.94088259  0.69006519  0.44127477  1
  Zn  Zn149  1  0.93971156  0.68231858  0.93170109  1
  Zn  Zn150  1  0.06334611  0.30917583  0.06401754  1
  Zn  Zn151  1  0.05808823  0.30893796  0.55963117  1
  Zn  Zn152  1  0.05915033  0.81002410  0.06226858  1
  Zn  Zn153  1  0.06745933  0.80806791  0.56856873  1
  Zn  Zn154  1  0.56323846  0.31230351  0.06073156  1
  Zn  Zn155  1  0.56403016  0.31148858  0.55994781  1
  Zn  Zn156  1  0.57676293  0.78670154  0.09723996  1
  Zn  Zn157  1  0.56126094  0.80796596  0.44424265  1
  O  O158  1  0.12188135  0.11782968  0.12201252  1
  O  O159  1  0.11691579  0.11760392  0.62264783  1
  O  O160  1  0.11247233  0.62966705  0.11125775  1
  O  O161  1  0.11456018  0.63019081  0.61276078  1
  O  O162  1  0.61777931  0.11288695  0.11177762  1
  O  O163  1  0.61131586  0.12926609  0.62826994  1
  O  O164  1  0.67297511  0.58023384  0.12115797  1
  O  O165  1  0.62058224  0.62048643  0.62565452  1
  O  O166  1  0.38131092  0.37720569  0.38409051  1
  O  O167  1  0.37685257  0.37160723  0.89035307  1
  O  O168  1  0.36209129  0.89507141  0.37282221  1
  O  O169  1  0.37789668  0.87780680  0.87920957  1
  O  O170  1  0.89299722  0.39119023  0.36503786  1
  O  O171  1  0.86773702  0.38948262  0.87735211  1
  O  O172  1  0.89008416  0.88832526  0.37674689  1
  O  O173  1  0.88602947  0.89385782  0.86761243  1
  O  O174  1  0.26252881  0.01438671  0.38883964  1
  O  O175  1  0.25353468  0.00473622  0.86978620  1
  O  O176  1  0.25910933  0.47455556  0.37219343  1
  O  O177  1  0.24203544  0.50763545  0.85982600  1
  O  O178  1  0.76894641  -0.00409196  0.38013233  1
  O  O179  1  0.76503655  -0.00479142  0.88309265  1
  O  O180  1  0.77100137  0.49131164  0.38318401  1
  O  O181  1  0.75240494  0.51017102  0.87086464  1
  O  O182  1  0.24727083  0.48043600  0.11835939  1
  O  O183  1  0.24990882  0.49159829  0.63951985  1
  O  O184  1  0.23836051  0.99039291  0.11835992  1
  O  O185  1  0.24859363  0.99165062  0.62718871  1
  O  O186  1  0.72670865  0.52735228  0.11422489  1
  O  O187  1  0.74922301  0.49748048  0.63026803  1
  O  O188  1  0.73785651  0.98900168  0.11558610  1
  O  O189  1  0.75639040  0.98635452  0.61598384  1
  O  O190  1  0.01941619  0.38274385  0.26010253  1
  O  O191  1  -0.00756285  0.35811490  0.75684067  1
  O  O192  1  0.00914859  0.86962588  0.25907372  1
  O  O193  1  0.00109273  0.86810137  0.75912195  1
  O  O194  1  0.49330088  0.36614069  0.25765205  1
  O  O195  1  0.50396192  0.37274965  0.75236298  1
  O  O196  1  0.50558654  0.86764743  0.24030789  1
  O  O197  1  0.50668410  0.87026218  0.75346949  1
  O  O198  1  0.48905179  0.12512055  0.23194590  1
  O  O199  1  0.49420759  0.13104214  0.74360782  1
  O  O200  1  0.48852481  0.64707961  0.28888216  1
  O  O201  1  0.49652329  0.62916736  0.74120732  1
  O  O202  1  1.00282589  0.12349632  0.23951161  1
  O  O203  1  0.99198964  0.13522566  0.74077595  1
  O  O204  1  1.00052900  0.63677546  0.24624061  1
  O  O205  1  0.99977587  0.63826676  0.75404996  1
  O  O206  1  0.36540320  0.25183758  0.00648455  1
  O  O207  1  0.36521308  0.25677133  0.50618633  1
  O  O208  1  0.36590754  0.76009164  -0.00323090  1
  O  O209  1  0.35826236  0.73769406  0.51527694  1
  O  O210  1  0.87078321  0.25337853  0.00644426  1
  O  O211  1  0.86417955  0.24513768  0.51535112  1
  O  O212  1  0.87758412  0.75891584  -0.00501691  1
  O  O213  1  0.86741365  0.75189293  0.51294245  1
  O  O214  1  0.13361668  0.24752228  0.49001620  1
  O  O215  1  0.13378915  0.24368827  0.99371840  1
  O  O216  1  0.13925268  0.74304291  0.50511440  1
  O  O217  1  0.12284079  0.73890406  0.99454050  1
  O  O218  1  0.63977366  0.24929715  0.50055520  1
  O  O219  1  0.62123529  0.23274567  0.99471596  1
  O  O220  1  0.63898756  0.73465004  0.49389697  1
  O  O221  1  0.62128719  0.75794219  0.98955963  1
  O  O222  1  0.48881886  0.23927844  0.11312206  1
  O  O223  1  0.49477410  0.24504651  0.63247393  1
  O  O224  1  0.46926914  0.75057817  0.10407441  1
  O  O225  1  0.49218474  0.73710398  0.62833293  1
  O  O226  1  0.99746634  0.23841445  0.12682953  1
  O  O227  1  0.99144452  0.24562389  0.63239580  1
  O  O228  1  1.00015749  0.74437814  0.13800311  1
  O  O229  1  0.98537006  0.75610013  0.63404025  1
  O  O230  1  0.00821895  0.26219433  0.37916715  1
  O  O231  1  0.00667894  0.24759481  0.87139468  1
  O  O232  1  -0.00291732  0.76555752  0.36798382  1
  O  O233  1  -0.00487666  0.76048417  0.86675415  1
  O  O234  1  0.49702024  0.26667983  0.38288710  1
  O  O235  1  0.51087903  0.25043094  0.86982731  1
  O  O236  1  0.47831688  0.77172177  0.37892033  1
  O  O237  1  0.50666461  0.75352507  0.86969974  1
  O  O238  1  0.25332106  0.13698098  0.49438682  1
  O  O239  1  0.24634738  0.13177766  0.99424561  1
  O  O240  1  0.23824596  0.63427946  0.51014359  1
  O  O241  1  0.23872677  0.62003202  0.98885277  1
  O  O242  1  0.74762933  0.14178630  0.50077607  1
  O  O243  1  0.73545114  0.11858047  1.00113076  1
  O  O244  1  0.74259187  0.63635202  0.50406998  1
  O  O245  1  0.75954074  0.64856292  0.99225899  1
  O  O246  1  0.25661250  0.36594267  0.00603818  1
  O  O247  1  0.25532564  0.36401070  0.51023358  1
  O  O248  1  0.25527491  0.87398960  0.00622245  1
  O  O249  1  0.24618587  0.85842040  0.51170916  1
  O  O250  1  0.70941563  0.38286852  0.02654421  1
  O  O251  1  0.74509408  0.36714250  0.51509405  1
  O  O252  1  0.75407800  0.86464794  0.00473660  1
  O  O253  1  0.75047876  0.86049758  0.51519212  1
  O  O254  1  0.13914637  0.53006403  0.24769302  1
  O  O255  1  0.12848172  0.50148391  0.74753485  1
  O  O256  1  0.11995117  0.98809726  0.23824289  1
  O  O257  1  0.13373981  1.00181999  0.73882912  1
  O  O258  1  0.57912476  0.50332011  0.20454978  1
  O  O259  1  0.63535701  0.49946301  0.74082729  1
  O  O260  1  0.62220384  1.00088661  0.23142434  1
  O  O261  1  0.62102752  0.98737780  0.75752131  1
  O  O262  1  0.38180212  0.01099435  0.26303273  1
  O  O263  1  0.37139166  0.00456654  0.75416037  1
  O  O264  1  0.37127182  0.50178299  0.25943493  1
  O  O265  1  0.37750115  0.51062602  0.74695728  1
  O  O266  1  0.88536521  0.01076744  0.26685216  1
  O  O267  1  0.87788779  0.01341883  0.76068090  1
  O  O268  1  0.88511623  0.51872612  0.26638814  1
  O  O269  1  0.86476665  0.49777086  0.75962003  1
  O  O270  1  0.12178098  0.36845544  0.37451838  1
  O  O271  1  0.12245405  0.35996282  0.88381354  1
  O  O272  1  0.11876701  0.88337632  0.36686690  1
  O  O273  1  0.11291743  0.87453701  0.87208584  1
  O  O274  1  0.60692457  0.38724578  0.37236591  1
  O  O275  1  0.61353584  0.37233705  0.86966003  1
  O  O276  1  0.63170036  0.87085251  0.37988406  1
  O  O277  1  0.61924382  0.86926999  0.86944917  1
  O  O278  1  0.37858373  0.12704603  0.12914588  1
  O  O279  1  0.38245481  0.13127503  0.63076089  1
  O  O280  1  0.36038112  0.63542901  0.12366579  1
  O  O281  1  0.38454036  0.62752606  0.63026075  1
  O  O282  1  0.88653736  0.11350422  0.14035485  1
  O  O283  1  0.87971869  0.13047439  0.63727529  1
  O  O284  1  0.88787942  0.62110905  0.14405053  1
  O  O285  1  0.87894601  0.63865982  0.62459014  1
  O  O286  1  0.25756665  0.25123965  0.11423446  1
  O  O287  1  0.25342171  0.25350785  0.62102137  1
  O  O288  1  0.25478666  0.75780661  0.12131802  1
  O  O289  1  0.25782067  0.75686017  0.62871257  1
  O  O290  1  0.75138774  0.24619116  0.12144788  1
  O  O291  1  0.75533664  0.25868651  0.62323116  1
  O  O292  1  0.75846695  0.76243738  0.10845846  1
  O  O293  1  0.76261130  0.75393558  0.62370481  1
  O  O294  1  0.24499251  0.24326226  0.38261524  1
  O  O295  1  0.24395497  0.24578844  0.88080465  1
  O  O296  1  0.25851795  0.75198147  0.39051042  1
  O  O297  1  0.24477991  0.73544835  0.87079267  1
  O  O298  1  0.76124497  0.26661069  0.39139057  1
  O  O299  1  0.73191299  0.26760482  0.88407387  1
  O  O300  1  0.76567696  0.75747977  0.39211793  1
  O  O301  1  0.74861455  0.75220735  0.88527064  1
  O  O302  1  0.00566801  0.11625720  0.01070649  1
  O  O303  1  -0.00192412  0.13386497  0.51748009  1
  O  O304  1  0.00243798  0.62008549  0.00734869  1
  O  O305  1  0.00736833  0.61635041  0.50507755  1
  O  O306  1  0.50063384  0.11283828  0.00567912  1
  O  O307  1  0.50503960  0.12609802  0.50915388  1
  O  O308  1  0.49862630  0.60711938  -0.00196390  1
  O  O309  1  0.52033333  0.62127908  0.50615904  1
  O  O310  1  0.48842498  0.37782184  0.50510027  1
  O  O311  1  0.48411251  0.37407360  1.00194210  1
  O  O312  1  0.50811157  0.89040186  0.51242383  1
  O  O313  1  0.48738647  0.88663660  0.99272362  1
  O  O314  1  1.00804430  0.38997831  0.49254495  1
  O  O315  1  1.00232092  0.38861097  1.00517441  1
  O  O316  1  1.00408309  0.86654539  0.48895399  1
  O  O317  1  1.00416706  0.88727794  0.99263700  1
  O  O318  1  0.48186021  0.48266607  0.37753043  1
  O  O319  1  0.50497015  0.51888484  0.88940830  1
  O  O320  1  0.49058886  0.99325472  0.38504751  1
  O  O321  1  0.49250302  0.99621705  0.88066476  1
  O  O322  1  0.99958844  0.49627325  0.38671800  1
  O  O323  1  0.98939692  0.49587143  0.88522114  1
  O  O324  1  1.00081632  0.98698197  0.37829455  1
  O  O325  1  0.99880742  0.99621520  0.88186318  1
  O  O326  1  0.00989492  0.00461508  0.11846811  1
  O  O327  1  0.00910309  0.00774475  0.63397317  1
  O  O328  1  -0.00282035  0.50972073  0.11448893  1
  O  O329  1  -0.01204456  0.49692724  0.61259294  1
  O  O330  1  0.50748176  0.00393832  0.11523112  1
  O  O331  1  0.49125413  0.01152696  0.61126084  1
  O  O332  1  0.52675658  0.49571139  0.14933168  1
  O  O333  1  0.51157789  0.51006052  0.62247639  1
  O  O334  1  0.25018103  0.36749829  0.23440913  1
  O  O335  1  0.25044056  0.38868813  0.74672318  1
  O  O336  1  0.24111898  0.87011059  0.23858907  1
  O  O337  1  0.25005230  0.88037590  0.74128055  1
  O  O338  1  0.79583657  0.38243433  0.21376085  1
  O  O339  1  0.74279712  0.38651173  0.74156286  1
  O  O340  1  0.75153609  0.86313972  0.22857825  1
  O  O341  1  0.74501857  0.87564950  0.74050606  1
  O  O342  1  0.25985415  0.12685268  0.26096650  1
  O  O343  1  0.25681334  0.11984065  0.75371145  1
  O  O344  1  0.20486342  0.57934437  0.24640418  1
  O  O345  1  0.25438021  0.61092506  0.75067520  1
  O  O346  1  0.76828003  0.11974254  0.25013186  1
  O  O347  1  0.76263941  0.12881579  0.74832815  1
  O  O348  1  0.76859823  0.63328327  0.25322902  1
  O  O349  1  0.74769492  0.61757741  0.75727763  1
  O  O350  1  0.37054104  0.12309846  0.36686098  1
  O  O351  1  0.36974435  0.11998540  0.87045164  1
  O  O352  1  0.36076616  0.59346471  0.39716842  1
  O  O353  1  0.36197631  0.62962501  0.86281005  1
  O  O354  1  0.88554587  0.11483531  0.36770918  1
  O  O355  1  0.87836803  0.11704268  0.86326823  1
  O  O356  1  0.88251935  0.61782353  0.36864326  1
  O  O357  1  0.86296696  0.61389434  0.87644390  1
  O  O358  1  0.13903752  0.36617800  0.12790368  1
  O  O359  1  0.13742776  0.36603818  0.62195564  1
  O  O360  1  0.13024499  0.87956681  0.13033514  1
  O  O361  1  0.13543809  0.88236876  0.62809978  1
  O  O362  1  0.64650977  0.39110242  0.07975892  1
  O  O363  1  0.63178885  0.38651353  0.62944725  1
  O  O364  1  0.62917870  0.88976944  0.11197224  1
  O  O365  1  0.64291473  0.87220992  0.63596209  1
  O  O366  1  0.12440812  0.24615395  0.26506879  1
  O  O367  1  0.11546008  0.24227743  0.76060826  1
  O  O368  1  0.11816051  0.76137450  0.24752748  1
  O  O369  1  0.11172443  0.75316986  0.74954503  1
  O  O370  1  0.63172922  0.20374580  0.29067973  1
  O  O371  1  0.62063273  0.25739379  0.75843503  1
  O  O372  1  0.60296928  0.73373640  0.19355535  1
  O  O373  1  0.62079135  0.76049992  0.76079707  1
  O  O374  1  0.36909863  0.23909038  0.23556444  1
  O  O375  1  0.37867444  0.24572218  0.74780113  1
  O  O376  1  0.37315908  0.75131539  0.23465272  1
  O  O377  1  0.38255632  0.73827464  0.73995606  1
  O  O378  1  0.88529739  0.23143035  0.25184908  1
  O  O379  1  0.87903736  0.23919640  0.74651087  1
  O  O380  1  0.88730474  0.73950217  0.25946120  1
  O  O381  1  0.87968900  0.75390546  0.74113764  1
  O  O382  1  0.37141259  0.48338476  0.50631066  1
  O  O383  1  0.37075783  0.48547273  1.00335512  1
  O  O384  1  0.39015811  1.00851688  0.48719656  1
  O  O385  1  0.37864364  0.99236478  0.99393222  1
  O  O386  1  0.89078387  0.51032569  0.48702927  1
  O  O387  1  0.88787160  0.50563575  0.99538695  1
  O  O388  1  0.88066134  1.00123828  0.48945983  1
  O  O389  1  0.88654136  1.01301815  0.98529326  1
  O  O390  1  0.11716279  0.00481273  0.00862009  1
  O  O391  1  0.13288748  0.00104458  0.51481643  1
  O  O392  1  0.10745404  0.50976693  -0.00828660  1
  O  O393  1  0.11400358  0.51129966  0.50288743  1
  O  O394  1  0.61465509  0.00937091  -0.00392784  1
  O  O395  1  0.61017050  0.01224279  0.48863587  1
  O  O396  1  0.53102306  0.54190034  -0.02962906  1
  O  O397  1  0.63535960  0.51071946  0.51257957  1
  O  O398  1  0.36592479  0.36552535  0.11499322  1
  O  O399  1  0.36456782  0.36719873  0.62110454  1
  O  O400  1  0.36267084  0.87600278  0.11482656  1
  O  O401  1  0.36684581  0.86388662  0.62973595  1
  O  O402  1  0.85862905  0.37629065  0.16118061  1
  O  O403  1  0.86444427  0.36322035  0.63444262  1
  O  O404  1  0.86627878  0.89382875  0.12523011  1
  O  O405  1  0.86527448  0.86753392  0.62659395  1
  O  O406  1  0.13373921  0.12946854  0.37781451  1
  O  O407  1  0.13065820  0.13214711  0.88032902  1
  O  O408  1  0.12019036  0.63200594  0.39921287  1
  O  O409  1  0.13038334  0.62674832  0.88218677  1
  O  O410  1  0.62952314  0.14781580  0.33948131  1
  O  O411  1  0.62277034  0.13273736  0.88477640  1
  O  O412  1  0.62876625  0.60541157  0.38564591  1
  O  O413  1  0.64268067  0.63909888  0.87217225  1
