# generated using pymatgen
data_V79Zn79O256
_symmetry_space_group_name_H-M   'P 1'
_cell_length_a   16.94592445
_cell_length_b   16.94591530
_cell_length_c   16.92205569
_cell_angle_alpha   89.93321426
_cell_angle_beta   89.99489887
_cell_angle_gamma   89.87226311
_symmetry_Int_Tables_number   1
_chemical_formula_structural   V79Zn79O256
_chemical_formula_sum   'V79 Zn79 O256'
_cell_volume   4859.39319672
_cell_formula_units_Z   1
loop_
 _symmetry_equiv_pos_site_id
 _symmetry_equiv_pos_as_xyz
  1  'x, y, z'
loop_
 _atom_site_type_symbol
 _atom_site_label
 _atom_site_symmetry_multiplicity
 _atom_site_fract_x
 _atom_site_fract_y
 _atom_site_fract_z
 _atom_site_occupancy
  V  V0  1  0.37313211  0.62246121  0.24285705  1
  V  V1  1  0.37434360  0.50211882  0.87683314  1
  V  V2  1  0.88281097  -0.01577761  0.36072414  1
  V  V3  1  0.74833272  0.62054218  0.87255458  1
  V  V4  1  0.37729077  0.25112603  0.63857882  1
  V  V5  1  0.37904917  0.37411411  0.49876395  1
  V  V6  1  0.37724017  0.87479517  0.00387649  1
  V  V7  1  0.62414097  0.88273862  0.24420262  1
  V  V8  1  0.11861098  0.25769018  0.37596135  1
  V  V9  1  0.24539832  0.63008905  0.87062570  1
  V  V10  1  0.61626244  -0.00183501  0.63929279  1
  V  V11  1  0.24084493  0.50054708  0.74956222  1
  V  V12  1  0.24971697  0.89833102  0.12760470  1
  V  V13  1  0.37798096  0.00381227  0.87558761  1
  V  V14  1  0.64787709  0.62151603  0.49405911  1
  V  V15  1  0.87368093  0.51939016  0.37721345  1
  V  V16  1  0.01873612  0.74499194  0.24663284  1
  V  V17  1  0.00570608  0.25168549  0.74906264  1
  V  V18  1  0.87285683  0.64676751  0.74750613  1
  V  V19  1  0.11331363  0.11425562  0.00847847  1
  V  V20  1  0.37688955  0.62786246  0.74513359  1
  V  V21  1  0.49869535  0.75142338  0.74962102  1
  V  V22  1  0.25058220  0.12454113  0.37210642  1
  V  V23  1  0.50134004  0.50982368  0.50071674  1
  V  V24  1  0.87104751  0.37578572  0.00332730  1
  V  V25  1  0.37104073  0.25432290  0.12407082  1
  V  V26  1  0.87088194  0.12189251  0.24772899  1
  V  V27  1  0.63694056  0.24865220  0.38576982  1
  V  V28  1  0.74445489  0.49990175  0.24285701  1
  V  V29  1  0.37406107  0.49829995  0.37410076  1
  V  V30  1  0.49344463  0.75057578  0.25848338  1
  V  V31  1  0.00021505  0.24863042  0.24905377  1
  V  V32  1  0.62525914  0.11009581  0.00380697  1
  V  V33  1  0.13263390  0.89563711  0.25792436  1
  V  V34  1  0.00164829  0.50134846  0.01032284  1
  V  V35  1  0.63551664  0.74518104  0.37321013  1
  V  V36  1  0.12013312  0.37719681  0.24541872  1
  V  V37  1  -0.00293247  0.49545674  0.49936223  1
  V  V38  1  0.50121177  0.87796552  0.87826345  1
  V  V39  1  0.62352497  0.75046335  0.88024002  1
  V  V40  1  0.51062003  0.25541658  0.25252910  1
  V  V41  1  0.87628654  0.25015582  0.12302614  1
  V  V42  1  0.37438919  -0.00208620  0.37668801  1
  V  V43  1  0.11798074  0.75760686  0.86192306  1
  V  V44  1  0.12353166  0.12210775  0.50307223  1
  V  V45  1  -0.00024746  -0.01215487  0.49088452  1
  V  V46  1  0.50542706  0.63064539  0.12237800  1
  V  V47  1  0.24952013  0.25188713  0.50147479  1
  V  V48  1  0.50658806  0.11224772  0.12576191  1
  V  V49  1  0.87390300  0.12243834  0.74990878  1
  V  V50  1  0.23782445  0.62843874  0.38113261  1
  V  V51  1  0.00504120  0.37690855  0.86988511  1
  V  V52  1  0.11803081  0.49900079  0.62265971  1
  V  V53  1  0.24361752  0.37621632  0.62851241  1
  V  V54  1  0.50358726  0.37046523  0.86213583  1
  V  V55  1  0.00096072  0.11898175  0.62213749  1
  V  V56  1  -0.00405167  0.63691712  0.63175652  1
  V  V57  1  0.86961279  0.36708366  0.48789141  1
  V  V58  1  0.37714280  0.75173329  0.62557957  1
  V  V59  1  0.74735761  0.38250639  0.63753776  1
  V  V60  1  0.62428112  0.49795844  0.63564471  1
  V  V61  1  0.24403090  0.49583986  0.24336467  1
  V  V62  1  0.50267546  0.00969150  0.49917691  1
  V  V63  1  0.88286948  0.62969459  0.22027132  1
  V  V64  1  0.74646115  -0.00420356  0.75262595  1
  V  V65  1  0.87225702  0.49866542  0.86503367  1
  V  V66  1  0.25149096  0.75018965  0.00907188  1
  V  V67  1  0.38343212  0.87684715  0.50033685  1
  V  V68  1  0.76086807  0.75810615  0.01154607  1
  V  V69  1  0.24882353  0.88297420  0.62897935  1
  V  V70  1  0.49373847  0.13282373  0.64170229  1
  V  V71  1  0.25472950  0.13135122  0.88418157  1
  V  V72  1  0.50179626  0.49411698  0.00738529  1
  V  V73  1  0.12837881  0.25253384  0.88312082  1
  V  V74  1  0.88418081  -0.00049415  0.88704789  1
  V  V75  1  0.86430110  0.24702333  0.62235049  1
  V  V76  1  0.37457864  0.12206110  0.25205321  1
  V  V77  1  0.11733179  0.62347861  0.00893827  1
  V  V78  1  0.24811119  0.01104422  0.74922823  1
  Zn  Zn79  1  0.36590000  0.36380257  -0.00678319  1
  Zn  Zn80  1  0.81128849  0.81982762  0.56817017  1
  Zn  Zn81  1  0.24001375  0.37176840  0.11624639  1
  Zn  Zn82  1  0.62666956  0.25222098  0.87218481  1
  Zn  Zn83  1  -0.00701283  0.87441017  0.85912314  1
  Zn  Zn84  1  0.72208703  0.37833467  0.13007535  1
  Zn  Zn85  1  0.64925843  0.12742929  0.51416390  1
  Zn  Zn86  1  0.73954035  0.25354083  0.00380669  1
  Zn  Zn87  1  0.66951493  0.83410212  0.71045877  1
  Zn  Zn88  1  0.11677140  0.88733163  0.73809020  1
  Zn  Zn89  1  0.63310132  0.62027676  0.00816439  1
  Zn  Zn90  1  0.24158481  0.75919773  0.48924808  1
  Zn  Zn91  1  0.74975737  0.12876995  0.88034302  1
  Zn  Zn92  1  0.75562162  0.11601811  0.38889541  1
  Zn  Zn93  1  0.51660126  0.37884184  0.37255849  1
  Zn  Zn94  1  0.18566069  0.18525010  0.18702149  1
  Zn  Zn95  1  0.18787144  0.18788127  0.68996580  1
  Zn  Zn96  1  0.19195823  0.68227542  0.18835598  1
  Zn  Zn97  1  0.16920161  0.70605263  0.65318789  1
  Zn  Zn98  1  0.69190664  0.18781952  0.18698659  1
  Zn  Zn99  1  0.68424298  0.18764532  0.69418498  1
  Zn  Zn100  1  0.69000408  0.68043200  0.19176065  1
  Zn  Zn101  1  0.69008855  0.67294054  0.67939972  1
  Zn  Zn102  1  0.31006902  0.31092949  0.30889871  1
  Zn  Zn103  1  0.31089081  0.31694893  0.81525538  1
  Zn  Zn104  1  0.30894467  0.81375048  0.31102154  1
  Zn  Zn105  1  0.30958543  0.81777736  0.81333774  1
  Zn  Zn106  1  0.80699646  0.31150254  0.30680069  1
  Zn  Zn107  1  0.81194801  0.30788295  0.81617999  1
  Zn  Zn108  1  0.80860283  0.80309354  0.28826506  1
  Zn  Zn109  1  0.81325800  0.81594655  0.83271770  1
  Zn  Zn110  1  0.18643517  0.44125212  0.43723510  1
  Zn  Zn111  1  0.18615995  0.43845250  0.93948485  1
  Zn  Zn112  1  0.19163456  0.93943207  0.44027556  1
  Zn  Zn113  1  0.18957505  0.93959963  0.93754930  1
  Zn  Zn114  1  0.69654234  0.43692403  0.43614593  1
  Zn  Zn115  1  0.68418199  0.43735697  0.93794009  1
  Zn  Zn116  1  0.71187439  0.90999800  0.39120239  1
  Zn  Zn117  1  0.69079243  0.93782385  0.93686861  1
  Zn  Zn118  1  0.31734839  0.06793297  0.05759879  1
  Zn  Zn119  1  0.31527048  0.06732216  0.56379866  1
  Zn  Zn120  1  0.30962930  0.56254020  0.06006853  1
  Zn  Zn121  1  0.31178161  0.56234859  0.56316273  1
  Zn  Zn122  1  0.81351708  0.06455752  0.06938796  1
  Zn  Zn123  1  0.79229153  -0.00825011  0.54340396  1
  Zn  Zn124  1  0.81018538  0.55965410  0.05655769  1
  Zn  Zn125  1  0.86080228  0.64719051  0.51068565  1
  Zn  Zn126  1  0.44269437  0.43562220  0.18771818  1
  Zn  Zn127  1  0.43592796  0.44060579  0.68489440  1
  Zn  Zn128  1  0.43541513  0.93309656  0.19006741  1
  Zn  Zn129  1  0.43601139  0.93816961  0.69239671  1
  Zn  Zn130  1  0.93583875  0.43513734  0.19360154  1
  Zn  Zn131  1  0.93111826  0.43328265  0.68574308  1
  Zn  Zn132  1  0.95081153  0.92644778  0.18336838  1
  Zn  Zn133  1  0.93232629  0.92939946  0.68129981  1
  Zn  Zn134  1  0.06266812  0.06860473  0.31086834  1
  Zn  Zn135  1  0.06483463  0.06628069  0.81823089  1
  Zn  Zn136  1  0.05677961  0.56366735  0.31264667  1
  Zn  Zn137  1  0.05851287  0.56616125  0.81348064  1
  Zn  Zn138  1  0.56443041  0.06922141  0.31792496  1
  Zn  Zn139  1  0.55965721  0.06826933  0.81850708  1
  Zn  Zn140  1  0.56174862  0.56388033  0.31401275  1
  Zn  Zn141  1  0.55940385  0.56398245  0.81702379  1
  Zn  Zn142  1  0.44079567  0.18936875  0.44044335  1
  Zn  Zn143  1  0.44286995  0.18500207  0.94100251  1
  Zn  Zn144  1  0.43128660  0.68824090  0.43806857  1
  Zn  Zn145  1  0.43440280  0.68937201  0.93858479  1
  Zn  Zn146  1  0.93577532  0.18522465  0.43511985  1
  Zn  Zn147  1  0.93938715  0.18762905  0.93827631  1
  Zn  Zn148  1  0.93965571  0.80423039  0.42706301  1
  Zn  Zn149  1  0.93684444  0.68919653  0.93861906  1
  Zn  Zn150  1  0.05760883  0.31048226  0.06169747  1
  Zn  Zn151  1  0.05723739  0.31245211  0.56207917  1
  Zn  Zn152  1  0.07365990  0.80335617  0.07628866  1
  Zn  Zn153  1  0.06974268  0.81145721  0.55623437  1
  Zn  Zn154  1  0.56190693  0.30466522  0.06054218  1
  Zn  Zn155  1  0.56504415  0.31193095  0.56472571  1
  Zn  Zn156  1  0.56529127  0.81163016  0.06337117  1
  Zn  Zn157  1  0.64814710  0.82637184  0.54550120  1
  O  O158  1  0.13058397  0.13211658  0.10728343  1
  O  O159  1  0.11543863  0.13373532  0.61352422  1
  O  O160  1  0.12820747  0.62606465  0.10708774  1
  O  O161  1  0.10413457  0.60922157  0.63740724  1
  O  O162  1  0.61332495  0.12677810  0.12395924  1
  O  O163  1  0.60798972  0.11880212  0.62733003  1
  O  O164  1  0.60802028  0.62101623  0.12659383  1
  O  O165  1  0.62867172  0.60625043  0.60752246  1
  O  O166  1  0.36753806  0.38445510  0.38424544  1
  O  O167  1  0.37941470  0.38902448  0.87459982  1
  O  O168  1  0.36506343  0.88835543  0.38396798  1
  O  O169  1  0.37957266  0.88178251  0.88411164  1
  O  O170  1  0.87347431  0.36288817  0.38736737  1
  O  O171  1  0.88245702  0.37978587  0.88268816  1
  O  O172  1  0.88196475  0.88187977  0.34990325  1
  O  O173  1  0.87850765  0.89337721  0.88118634  1
  O  O174  1  0.26163263  0.01696237  0.38436388  1
  O  O175  1  0.25788758  0.01015423  0.86815251  1
  O  O176  1  0.25688872  0.50651757  0.36698800  1
  O  O177  1  0.25428310  0.50894575  0.86740170  1
  O  O178  1  0.78020953  -0.00064488  0.36243954  1
  O  O179  1  0.75777636  0.00893289  0.86798066  1
  O  O180  1  0.76996906  0.49315221  0.36262603  1
  O  O181  1  0.75752346  0.51090936  0.88307195  1
  O  O182  1  0.25414742  0.50158725  0.14105818  1
  O  O183  1  0.23989588  0.49684205  0.62938252  1
  O  O184  1  0.25440852  0.99708072  0.12482955  1
  O  O185  1  0.26190884  0.99958713  0.64158902  1
  O  O186  1  0.75336909  0.49948854  0.13593986  1
  O  O187  1  0.73636891  0.48628040  0.62889104  1
  O  O188  1  0.78891337  0.96271609  0.13389047  1
  O  O189  1  0.72897801  1.00529975  0.64664546  1
  O  O190  1  0.00765831  0.36373238  0.25160778  1
  O  O191  1  -0.00860013  0.36383726  0.75974606  1
  O  O192  1  0.02873132  0.87489762  0.24656259  1
  O  O193  1  0.00597318  0.88260568  0.74593651  1
  O  O194  1  0.49609957  0.35926536  0.25583934  1
  O  O195  1  0.49487073  0.38365801  0.76317720  1
  O  O196  1  0.49948816  0.85388054  0.24836653  1
  O  O197  1  0.49105293  0.86289295  0.76574907  1
  O  O198  1  0.49392241  0.13278609  0.24449928  1
  O  O199  1  0.49400544  0.12340644  0.74045273  1
  O  O200  1  0.49223128  0.62403697  0.23948312  1
  O  O201  1  0.48461450  0.63475731  0.75978921  1
  O  O202  1  0.99587656  0.14221454  0.25192850  1
  O  O203  1  0.99556399  0.12897406  0.74139013  1
  O  O204  1  0.99480852  0.63374898  0.24464655  1
  O  O205  1  0.98330007  0.62120092  0.74368913  1
  O  O206  1  0.38369402  0.24766256  0.02075675  1
  O  O207  1  0.36953374  0.25951532  0.50553233  1
  O  O208  1  0.36204733  0.76224250  -0.01006573  1
  O  O209  1  0.37302265  0.75897465  0.50854967  1
  O  O210  1  0.87730597  0.25875093  0.00757499  1
  O  O211  1  0.88460854  0.25912953  0.50990922  1
  O  O212  1  0.86051782  0.74959938  -0.00629660  1
  O  O213  1  0.87618560  0.75704281  0.50325178  1
  O  O214  1  0.12800140  0.24540769  0.49404564  1
  O  O215  1  0.11999630  0.24576145  0.98684677  1
  O  O216  1  0.14644240  0.73344403  0.54049815  1
  O  O217  1  0.13080731  0.73935720  0.99248506  1
  O  O218  1  0.62079120  0.24112420  0.49018184  1
  O  O219  1  0.62197484  0.23718181  0.99360419  1
  O  O220  1  0.62174226  0.73098513  0.48606939  1
  O  O221  1  0.62634282  0.74150893  0.99094403  1
  O  O222  1  0.49242194  0.24034440  0.14091958  1
  O  O223  1  0.49267849  0.24022067  0.62110641  1
  O  O224  1  0.49977577  0.73497204  0.13559406  1
  O  O225  1  0.48415781  0.75514582  0.64213948  1
  O  O226  1  0.98670832  0.25499541  0.13492187  1
  O  O227  1  0.99273016  0.24435204  0.63290573  1
  O  O228  1  0.99278597  0.76849894  0.14631810  1
  O  O229  1  1.00489111  0.73443091  0.62409094  1
  O  O230  1  0.01254856  0.24729282  0.36950109  1
  O  O231  1  0.00598661  0.25764418  0.86801109  1
  O  O232  1  -0.00109643  0.75883997  0.34604475  1
  O  O233  1  0.01440525  0.75535543  0.88043929  1
  O  O234  1  0.50854870  0.24720295  0.36510453  1
  O  O235  1  0.48831881  0.27053634  0.88077256  1
  O  O236  1  0.50404926  0.73426513  0.36090270  1
  O  O237  1  0.50505462  0.75399371  0.87080559  1
  O  O238  1  0.24205384  0.13160096  0.49638058  1
  O  O239  1  0.24427999  0.12684362  0.98784074  1
  O  O240  1  0.25736072  0.61922608  0.48208011  1
  O  O241  1  0.24105495  0.62892412  0.98892935  1
  O  O242  1  0.75619746  0.09422407  0.50262357  1
  O  O243  1  0.73388693  0.12653161  1.01249003  1
  O  O244  1  0.74535018  0.61926816  0.49972441  1
  O  O245  1  0.74950855  0.63212483  0.98832785  1
  O  O246  1  0.25720627  0.38751755  0.00659689  1
  O  O247  1  0.25768956  0.37365162  0.50939007  1
  O  O248  1  0.25444469  0.87034811  0.01128494  1
  O  O249  1  0.26271202  0.87988965  0.51083247  1
  O  O250  1  0.76231946  0.37898531  0.00214188  1
  O  O251  1  0.76641033  0.37692103  0.50969294  1
  O  O252  1  0.74248215  0.85662438  -0.00414920  1
  O  O253  1  0.73262648  0.89102808  0.50007167  1
  O  O254  1  0.13083150  0.48766714  0.25993108  1
  O  O255  1  0.13528299  0.50324213  0.74585278  1
  O  O256  1  0.12928855  0.99585197  0.25305443  1
  O  O257  1  0.14362033  1.00329791  0.75849017  1
  O  O258  1  0.64649097  0.50875205  0.25987611  1
  O  O259  1  0.61616802  0.50803500  0.73369102  1
  O  O260  1  0.60561146  0.97946496  0.26324497  1
  O  O261  1  0.63543576  1.00839168  0.75405286  1
  O  O262  1  0.38534048  0.01164334  0.26372342  1
  O  O263  1  0.36393718  -0.00430980  0.76609626  1
  O  O264  1  0.36853145  0.50148773  0.25732657  1
  O  O265  1  0.36709604  0.51029063  0.75495366  1
  O  O266  1  0.90232281  0.01463294  0.25194444  1
  O  O267  1  0.86334125  0.00793604  0.75701818  1
  O  O268  1  0.88571038  0.51615781  0.26225493  1
  O  O269  1  0.87538804  0.49965336  0.76312320  1
  O  O270  1  0.13462410  0.36331749  0.36727841  1
  O  O271  1  0.11329065  0.36980336  0.87816181  1
  O  O272  1  0.15034752  0.87532089  0.35650086  1
  O  O273  1  0.12678562  0.86278396  0.87607824  1
  O  O274  1  0.62992432  0.35649591  0.38320877  1
  O  O275  1  0.60619459  0.37729440  0.88028037  1
  O  O276  1  0.61286805  0.84918353  0.36791517  1
  O  O277  1  0.61374405  0.86356941  0.88063887  1
  O  O278  1  0.38430676  0.13130962  0.13327083  1
  O  O279  1  0.38390151  0.13787913  0.62349342  1
  O  O280  1  0.37958491  0.61993432  0.13750922  1
  O  O281  1  0.36497213  0.63490487  0.63611830  1
  O  O282  1  0.87583660  0.13499197  0.13645043  1
  O  O283  1  0.88694232  0.13336782  0.63430294  1
  O  O284  1  0.88535845  0.61995457  0.12215743  1
  O  O285  1  0.87833382  0.63209255  0.64250768  1
  O  O286  1  0.26886336  0.24924932  0.13633064  1
  O  O287  1  0.25539105  0.25811766  0.62266932  1
  O  O288  1  0.25026845  0.74602767  0.11062630  1
  O  O289  1  0.26865726  0.76716940  0.63793357  1
  O  O290  1  0.76325174  0.25847927  0.12623469  1
  O  O291  1  0.75957892  0.25364504  0.62816942  1
  O  O292  1  0.74294016  0.74068586  0.11011424  1
  O  O293  1  0.72078520  0.76964515  0.62701316  1
  O  O294  1  0.24453402  0.24213130  0.38168273  1
  O  O295  1  0.24025596  0.24376985  0.86510551  1
  O  O296  1  0.25780377  0.73281870  0.37466657  1
  O  O297  1  0.24026866  0.74514302  0.88174967  1
  O  O298  1  0.73909040  0.24286685  0.36974436  1
  O  O299  1  0.74876743  0.24449691  0.88488456  1
  O  O300  1  0.73456517  0.74562767  0.36409446  1
  O  O301  1  0.73974019  0.74111215  0.88189657  1
  O  O302  1  0.01321214  0.12616513  -0.00238910  1
  O  O303  1  0.00749654  0.12304947  0.50385163  1
  O  O304  1  0.01104032  0.61909960  -0.00624307  1
  O  O305  1  -0.02401572  0.60303083  0.52899271  1
  O  O306  1  0.50852528  0.12497220  0.01805938  1
  O  O307  1  0.49406769  0.11570336  0.51256929  1
  O  O308  1  0.49396104  0.62084628  0.01292615  1
  O  O309  1  0.49486768  0.61064842  0.49856655  1
  O  O310  1  0.48902069  0.37911818  0.49558921  1
  O  O311  1  0.48707693  0.39011587  0.99490318  1
  O  O312  1  0.48482931  0.89419184  0.50662629  1
  O  O313  1  0.48919213  0.86423199  0.99125717  1
  O  O314  1  0.98379752  0.38499138  0.50994459  1
  O  O315  1  0.99324563  0.38183472  0.98908547  1
  O  O316  1  1.00954165  0.88484893  0.49375901  1
  O  O317  1  1.00450341  0.89265403  1.02311205  1
  O  O318  1  0.49055912  0.49544921  0.37988677  1
  O  O319  1  0.48993083  0.49660116  0.88264650  1
  O  O320  1  0.48910059  1.01158343  0.39240569  1
  O  O321  1  0.49157532  0.98835798  0.86967004  1
  O  O322  1  0.98888265  0.50649646  0.38752861  1
  O  O323  1  0.99293026  0.49290358  0.87881242  1
  O  O324  1  0.99851657  1.00440712  0.38216923  1
  O  O325  1  0.98761432  1.00095482  0.87225426  1
  O  O326  1  -0.00850888  -0.04826423  0.07040944  1
  O  O327  1  -0.00511391  0.01237833  0.60277435  1
  O  O328  1  -0.00281285  0.49120108  0.10881085  1
  O  O329  1  0.00782177  0.49290934  0.62549472  1
  O  O330  1  0.49505094  0.01418297  0.13343664  1
  O  O331  1  0.49520859  0.01450241  0.62473736  1
  O  O332  1  0.48942470  0.50889530  0.11211468  1
  O  O333  1  0.51511556  0.48643334  0.61210795  1
  O  O334  1  0.24142338  0.38092466  0.24638550  1
  O  O335  1  0.25806387  0.38945312  0.73832094  1
  O  O336  1  0.25092436  0.87476639  0.23355839  1
  O  O337  1  0.24811347  0.88973909  0.74574891  1
  O  O338  1  0.76519986  0.39417141  0.24256501  1
  O  O339  1  0.75460941  0.37080523  0.73677427  1
  O  O340  1  0.72575635  0.87609441  0.26600817  1
  O  O341  1  0.75006497  0.89174442  0.76609410  1
  O  O342  1  0.26100349  0.13226077  0.26204451  1
  O  O343  1  0.25001542  0.11703532  0.75919512  1
  O  O344  1  0.25638015  0.61616462  0.25879407  1
  O  O345  1  0.25649335  0.61876376  0.75862039  1
  O  O346  1  0.76832439  0.12180137  0.24765737  1
  O  O347  1  0.76167960  0.11824557  0.75178110  1
  O  O348  1  0.77298520  0.61236241  0.24149877  1
  O  O349  1  0.76219346  0.62939318  0.75983341  1
  O  O350  1  0.36933788  0.12189331  0.37149832  1
  O  O351  1  0.36983641  0.11596620  0.88632843  1
  O  O352  1  0.37177416  0.61101589  0.36494339  1
  O  O353  1  0.36421733  0.62139142  0.86814783  1
  O  O354  1  0.87661084  0.12243982  0.35905430  1
  O  O355  1  0.87896498  0.12012510  0.86319926  1
  O  O356  1  0.86954241  0.61619210  0.38959585  1
  O  O357  1  0.86985753  0.61902770  0.86520538  1
  O  O358  1  0.12457697  0.36483388  0.13976736  1
  O  O359  1  0.13655181  0.38003747  0.62211900  1
  O  O360  1  0.14573013  0.87776655  0.13160195  1
  O  O361  1  0.14501119  0.87895918  0.62212941  1
  O  O362  1  0.61214170  0.38029921  0.12051942  1
  O  O363  1  0.63757263  0.38252444  0.61734709  1
  O  O364  1  0.61735426  0.86975499  0.14415477  1
  O  O365  1  0.60407488  0.89399227  0.63424919  1
  O  O366  1  0.11948957  0.25489943  0.25761225  1
  O  O367  1  0.11166029  0.24303417  0.75970179  1
  O  O368  1  0.12198185  0.74987615  0.24427937  1
  O  O369  1  0.13133415  0.75194096  0.76064649  1
  O  O370  1  0.61453192  0.24267353  0.25872406  1
  O  O371  1  0.61503097  0.23775049  0.76204924  1
  O  O372  1  0.61261608  0.74095297  0.25850229  1
  O  O373  1  0.61437998  0.74356830  0.76075753  1
  O  O374  1  0.38571216  0.23954947  0.24872071  1
  O  O375  1  0.37201245  0.25900532  0.73708919  1
  O  O376  1  0.38575759  0.73750856  0.25765912  1
  O  O377  1  0.37851731  0.74462783  0.75024224  1
  O  O378  1  0.88076840  0.24220516  0.24479724  1
  O  O379  1  0.88394841  0.24122817  0.74405779  1
  O  O380  1  0.87756170  0.73061354  0.24158064  1
  O  O381  1  0.87361222  0.74494991  0.76070611  1
  O  O382  1  0.38107110  0.49263538  0.49556545  1
  O  O383  1  0.38270969  0.50976692  0.98662796  1
  O  O384  1  0.37974278  0.99824209  0.49562768  1
  O  O385  1  0.36858619  0.98721299  0.98843021  1
  O  O386  1  0.87865968  0.48475399  0.48380425  1
  O  O387  1  0.88351959  0.49411013  0.98851527  1
  O  O388  1  0.89378076  0.99566583  0.47283640  1
  O  O389  1  0.87034638  1.01647506  0.98418237  1
  O  O390  1  0.12852911  0.01501750  -0.00556588  1
  O  O391  1  0.11458509  0.01330807  0.49001914  1
  O  O392  1  0.11674904  0.51650837  -0.01074337  1
  O  O393  1  0.11334415  0.49412371  0.51109096  1
  O  O394  1  0.62876494  0.00981127  0.00404239  1
  O  O395  1  0.60360204  0.00310219  0.51589102  1
  O  O396  1  0.60414611  0.50643962  -0.00790923  1
  O  O397  1  0.62083853  0.50888941  0.49463647  1
  O  O398  1  0.37754418  0.35931162  0.13027312  1
  O  O399  1  0.36737848  0.37231227  0.61580692  1
  O  O400  1  0.36447633  0.88043390  0.11543806  1
  O  O401  1  0.37031986  0.87277823  0.61964345  1
  O  O402  1  0.87938340  0.36958949  0.11303232  1
  O  O403  1  0.86275960  0.36686220  0.62043353  1
  O  O404  1  0.84036455  0.90554379  0.13665334  1
  O  O405  1  0.85352895  0.91465573  0.60898249  1
  O  O406  1  0.13350270  0.13567195  0.38219446  1
  O  O407  1  0.13361850  0.13460620  0.88415016  1
  O  O408  1  0.13947973  0.61917672  0.37206056  1
  O  O409  1  0.13064964  0.63697350  0.87659269  1
  O  O410  1  0.63293789  0.13418344  0.37987166  1
  O  O411  1  0.62155367  0.12266626  0.89585755  1
  O  O412  1  0.62474630  0.62750744  0.38693031  1
  O  O413  1  0.63280685  0.63151742  0.87496887  1
