# generated using pymatgen
data_V79Zn79O256
_symmetry_space_group_name_H-M   'P 1'
_cell_length_a   16.88749837
_cell_length_b   16.87691103
_cell_length_c   16.90360905
_cell_angle_alpha   90.04472745
_cell_angle_beta   90.00507620
_cell_angle_gamma   90.15426719
_symmetry_Int_Tables_number   1
_chemical_formula_structural   V79Zn79O256
_chemical_formula_sum   'V79 Zn79 O256'
_cell_volume   4817.65850594
_cell_formula_units_Z   1
loop_
 _symmetry_equiv_pos_site_id
 _symmetry_equiv_pos_as_xyz
  1  'x, y, z'
loop_
 _atom_site_type_symbol
 _atom_site_label
 _atom_site_symmetry_multiplicity
 _atom_site_fract_x
 _atom_site_fract_y
 _atom_site_fract_z
 _atom_site_occupancy
  V  V0  1  0.23843925  0.12812492  0.87140784  1
  V  V1  1  0.50008545  0.00028212  -0.00127095  1
  V  V2  1  0.87672499  0.00827409  0.86355026  1
  V  V3  1  0.13103053  0.37007864  0.23868365  1
  V  V4  1  0.74606588  0.24408393  0.50055802  1
  V  V5  1  0.10409914  0.00206264  0.61760261  1
  V  V6  1  0.24830019  0.13475637  0.38083991  1
  V  V7  1  0.50971208  0.25367388  0.24772516  1
  V  V8  1  0.51115345  0.50495696  0.50041336  1
  V  V9  1  0.24621145  0.75023501  -0.00321108  1
  V  V10  1  0.74727359  -0.00460139  0.24896509  1
  V  V11  1  0.37417735  0.75354134  0.12443577  1
  V  V12  1  0.00093143  0.50093680  0.02063092  1
  V  V13  1  0.74904765  0.86958359  0.12031897  1
  V  V14  1  0.49870806  0.86682494  0.86620985  1
  V  V15  1  0.37396061  0.25729613  0.11995819  1
  V  V16  1  0.37723439  0.62760580  0.24963102  1
  V  V17  1  0.51700368  0.12566649  0.61994945  1
  V  V18  1  0.26123602  0.75621697  0.49941737  1
  V  V19  1  0.37184417  0.87644284  -0.00287872  1
  V  V20  1  0.02163419  0.36456345  0.37999786  1
  V  V21  1  0.24997364  0.49924163  0.24407501  1
  V  V22  1  0.62910683  0.74973125  0.38187273  1
  V  V23  1  0.25379898  0.62821403  0.37491059  1
  V  V24  1  0.14224568  0.49407986  0.63133789  1
  V  V25  1  0.63499448  0.62638791  0.01038381  1
  V  V26  1  0.88221613  0.12183328  0.24560328  1
  V  V27  1  0.11017400  0.75650617  0.86924667  1
  V  V28  1  0.50124451  0.12444344  0.12303261  1
  V  V29  1  0.37364428  0.00071216  0.38715287  1
  V  V30  1  0.49938563  0.87863238  0.37497795  1
  V  V31  1  0.50542655  0.75891869  0.24880519  1
  V  V32  1  0.63522466  0.89019178  0.74532742  1
  V  V33  1  0.75245457  0.38511564  0.63672498  1
  V  V34  1  0.87705959  -0.00334438  0.38920580  1
  V  V35  1  -0.00868862  0.24054964  0.75317416  1
  V  V36  1  0.11189763  0.12854598  0.50065424  1
  V  V37  1  0.74697719  0.62222239  0.87016274  1
  V  V38  1  0.11955283  0.62079509  0.01097496  1
  V  V39  1  0.25522113  0.61711554  0.86086169  1
  V  V40  1  0.62693293  0.74697243  0.87150629  1
  V  V41  1  0.87766748  0.37153713  0.01422405  1
  V  V42  1  0.74471923  0.24650613  0.00534962  1
  V  V43  1  0.62675775  0.24202803  0.38044454  1
  V  V44  1  0.37432207  0.00054279  0.87016704  1
  V  V45  1  0.50085732  0.61998803  0.12343681  1
  V  V46  1  0.62652741  0.49753647  0.64103125  1
  V  V47  1  0.51670798  0.25845935  0.76228822  1
  V  V48  1  0.88339624  0.24674094  0.12897386  1
  V  V49  1  0.00088416  0.49661988  0.50019953  1
  V  V50  1  0.88170940  0.74612871  0.12861128  1
  V  V51  1  0.24547210  0.88555041  0.12566121  1
  V  V52  1  0.37941148  0.74308135  0.63878718  1
  V  V53  1  0.48593725  0.49544769  -0.01617509  1
  V  V54  1  0.87555043  0.49307404  0.87620734  1
  V  V55  1  0.87299166  0.38028702  0.49140924  1
  V  V56  1  0.74805556  0.12356578  0.86427715  1
  V  V57  1  0.51849822  0.00008496  0.50339599  1
  V  V58  1  0.37723303  0.12733301  0.74788399  1
  V  V59  1  0.87475611  0.87402551  -0.00863708  1
  V  V60  1  0.88591643  0.62531594  0.75347551  1
  V  V61  1  0.37604452  0.37511189  0.50680449  1
  V  V62  1  0.50899273  0.37515353  0.37180727  1
  V  V63  1  0.24778731  0.25379514  -0.00320470  1
  V  V64  1  0.11459611  0.88216772  0.24292442  1
  V  V65  1  0.11958700  0.12493279  0.02096623  1
  V  V66  1  0.12779657  0.36961647  0.74985738  1
  V  V67  1  0.78020884  0.86051275  0.59478110  1
  V  V68  1  0.37201428  0.25310547  0.62518017  1
  V  V69  1  0.38082749  0.50049926  0.37629515  1
  V  V70  1  0.87617922  0.23366535  0.62898522  1
  V  V71  1  -0.00303184  0.87392665  0.39047497  1
  V  V72  1  0.62388989  -0.00603148  0.12662808  1
  V  V73  1  0.77775106  0.58758705  0.36245080  1
  V  V74  1  0.37460423  0.12432611  0.25147461  1
  V  V75  1  0.26014968  0.88371347  0.62322127  1
  V  V76  1  0.00157383  0.00049663  0.01208422  1
  V  V77  1  0.13162352  0.62183836  0.50375554  1
  V  V78  1  0.68523134  0.43207126  0.18063894  1
  Zn  Zn79  1  0.50716073  0.63193104  0.62677788  1
  Zn  Zn80  1  0.10662451  0.87655383  0.74910220  1
  Zn  Zn81  1  -0.02036254  0.63778360  0.60555638  1
  Zn  Zn82  1  0.24400159  0.00357857  0.25177182  1
  Zn  Zn83  1  0.25350140  0.38644791  0.10911649  1
  Zn  Zn84  1  0.00314488  0.73501862  0.24720025  1
  Zn  Zn85  1  0.24161601  0.25881904  0.50194903  1
  Zn  Zn86  1  0.74657953  0.11745862  0.38062914  1
  Zn  Zn87  1  0.62462370  0.12652885  -0.00379275  1
  Zn  Zn88  1  0.64041053  0.63020371  0.50237211  1
  Zn  Zn89  1  0.00045911  0.37392765  0.87374283  1
  Zn  Zn90  1  0.01482773  0.23798134  0.25526589  1
  Zn  Zn91  1  0.12425515  0.75284450  0.37509480  1
  Zn  Zn92  1  -0.04979989  0.78749299  0.68966160  1
  Zn  Zn93  1  0.24093505  0.00145186  0.74741162  1
  Zn  Zn94  1  0.19337988  0.18965316  0.18859789  1
  Zn  Zn95  1  0.18234755  0.18830040  0.68534227  1
  Zn  Zn96  1  0.18517868  0.69396166  0.19060960  1
  Zn  Zn97  1  0.18010309  0.69265690  0.68515078  1
  Zn  Zn98  1  0.69272568  0.18425759  0.18667282  1
  Zn  Zn99  1  0.69305658  0.19192843  0.68708705  1
  Zn  Zn100  1  0.69052883  0.68815099  0.19479356  1
  Zn  Zn101  1  0.69177118  0.69041864  0.68824799  1
  Zn  Zn102  1  0.31883817  0.31473600  0.31370033  1
  Zn  Zn103  1  0.31317334  0.31566238  0.81681443  1
  Zn  Zn104  1  0.31369452  0.81820023  0.31051957  1
  Zn  Zn105  1  0.30221493  0.81128594  0.80830137  1
  Zn  Zn106  1  0.81035393  0.31907060  0.30946641  1
  Zn  Zn107  1  0.70361211  0.31629061  0.82829290  1
  Zn  Zn108  1  0.81499634  0.81183509  0.30915546  1
  Zn  Zn109  1  0.80937265  0.80736954  0.81647200  1
  Zn  Zn110  1  0.19388154  0.44052776  0.43863508  1
  Zn  Zn111  1  0.18481364  0.43901618  0.92983628  1
  Zn  Zn112  1  0.18517032  0.94168143  0.43839788  1
  Zn  Zn113  1  0.18266108  0.94055557  0.93567018  1
  Zn  Zn114  1  0.69126096  0.43357427  0.43693024  1
  Zn  Zn115  1  0.69120741  0.44614129  0.97484068  1
  Zn  Zn116  1  0.69219153  0.92641337  0.43882504  1
  Zn  Zn117  1  0.68854480  0.93961189  0.93378436  1
  Zn  Zn118  1  0.31174710  0.06776163  0.05879624  1
  Zn  Zn119  1  0.31550046  0.07078381  0.56103597  1
  Zn  Zn120  1  0.31295241  0.56841471  0.05705724  1
  Zn  Zn121  1  0.31727353  0.56081494  0.56548702  1
  Zn  Zn122  1  0.81313269  0.06145113  0.06040919  1
  Zn  Zn123  1  0.79503762  0.05278932  0.57274416  1
  Zn  Zn124  1  0.81312662  0.54598600  0.09009004  1
  Zn  Zn125  1  0.82649671  0.59415797  0.54544168  1
  Zn  Zn126  1  0.44008497  0.43795918  0.18686394  1
  Zn  Zn127  1  0.41138905  0.42327870  0.71609946  1
  Zn  Zn128  1  0.43431560  0.93858599  0.18845051  1
  Zn  Zn129  1  0.44294315  0.93744239  0.68357189  1
  Zn  Zn130  1  0.91342256  0.57698067  0.23930819  1
  Zn  Zn131  1  0.94106245  0.43849869  0.68485325  1
  Zn  Zn132  1  0.93312401  0.93683671  0.18539599  1
  Zn  Zn133  1  0.92801396  0.94842819  0.68114158  1
  Zn  Zn134  1  0.06264788  0.05818024  0.32168008  1
  Zn  Zn135  1  0.05413312  0.05562823  0.80808696  1
  Zn  Zn136  1  0.06732681  0.55312268  0.31746357  1
  Zn  Zn137  1  0.06719920  0.56131826  0.82073189  1
  Zn  Zn138  1  0.56285217  0.06253912  0.31082717  1
  Zn  Zn139  1  0.56452087  0.06518376  0.81150151  1
  Zn  Zn140  1  0.57207481  0.56407658  0.30545718  1
  Zn  Zn141  1  0.56548179  0.43688200  0.82763941  1
  Zn  Zn142  1  0.44036996  0.18710034  0.43970343  1
  Zn  Zn143  1  0.43519649  0.18937529  0.93709703  1
  Zn  Zn144  1  0.44250720  0.68969461  0.44037911  1
  Zn  Zn145  1  0.43712250  0.68415875  0.93400882  1
  Zn  Zn146  1  0.92947297  0.18939313  0.43705435  1
  Zn  Zn147  1  0.93792947  0.18580455  0.93527052  1
  Zn  Zn148  1  0.93694926  0.68434566  0.42910926  1
  Zn  Zn149  1  0.93454275  0.68400928  0.94304541  1
  Zn  Zn150  1  0.06043098  0.31006316  0.06418309  1
  Zn  Zn151  1  0.06001435  0.30938020  0.57005216  1
  Zn  Zn152  1  0.05919445  0.81467722  0.05722701  1
  Zn  Zn153  1  0.07241776  0.80958471  0.56293859  1
  Zn  Zn154  1  0.56172260  0.31952657  0.05811325  1
  Zn  Zn155  1  0.56286188  0.31597863  0.56655323  1
  Zn  Zn156  1  0.56245640  0.81049779  0.05604947  1
  Zn  Zn157  1  0.56135869  0.81642113  0.56408958  1
  O  O158  1  0.12873210  0.11988061  0.11968270  1
  O  O159  1  0.13132290  0.11087894  0.61347250  1
  O  O160  1  0.13049515  0.63214281  0.10967299  1
  O  O161  1  0.13624315  0.61078059  0.61303918  1
  O  O162  1  0.61864143  0.11335015  0.12301851  1
  O  O163  1  0.61568097  0.12706854  0.62895277  1
  O  O164  1  0.61500254  0.64134801  0.11722579  1
  O  O165  1  0.62914645  0.61360842  0.62256523  1
  O  O166  1  0.38896708  0.37956994  0.38380112  1
  O  O167  1  0.36713086  0.41090029  0.81732894  1
  O  O168  1  0.38424886  0.88956503  0.37132118  1
  O  O169  1  0.37696560  0.88233492  0.87496884  1
  O  O170  1  0.88240679  0.36890399  0.38809525  1
  O  O171  1  0.87537931  0.39041371  0.89239555  1
  O  O172  1  0.88636229  0.88466297  0.36942631  1
  O  O173  1  0.86528580  0.88771277  0.88725813  1
  O  O174  1  0.25946583  0.00981718  0.37561202  1
  O  O175  1  0.25933529  0.00672962  0.87096746  1
  O  O176  1  0.26078427  0.50959422  0.36915214  1
  O  O177  1  0.24448143  0.51791139  0.87756142  1
  O  O178  1  0.76013583  -0.00637642  0.36700185  1
  O  O179  1  0.76345247  0.01281335  0.88449434  1
  O  O180  1  0.75864603  0.48799816  0.36275292  1
  O  O181  1  0.76689282  0.51521104  0.89733397  1
  O  O182  1  0.25932658  0.50110039  0.13901640  1
  O  O183  1  0.24282304  0.49625915  0.62564290  1
  O  O184  1  0.25562303  0.98939575  0.12535170  1
  O  O185  1  0.25978695  0.98962183  0.62273703  1
  O  O186  1  0.72431050  0.47098022  0.08874634  1
  O  O187  1  0.73928009  0.49066776  0.62333155  1
  O  O188  1  0.74242283  0.99412125  0.12930219  1
  O  O189  1  0.75402932  0.96021353  0.61839543  1
  O  O190  1  0.02599553  0.37739338  0.26998287  1
  O  O191  1  0.00387413  0.36588531  0.74803300  1
  O  O192  1  0.00983767  0.87635692  0.24991709  1
  O  O193  1  -0.00588616  0.87806198  0.74293382  1
  O  O194  1  0.49048360  0.36316281  0.26096909  1
  O  O195  1  0.50968920  0.36138529  0.74952491  1
  O  O196  1  0.49367566  0.86942122  0.25839530  1
  O  O197  1  0.50770139  0.88194082  0.76247098  1
  O  O198  1  0.49264000  0.13313244  0.24482838  1
  O  O199  1  0.49648680  0.13043491  0.73993509  1
  O  O200  1  0.49499176  0.63641705  0.24306852  1
  O  O201  1  0.47366783  0.59701564  0.74626349  1
  O  O202  1  0.98684752  0.12227630  0.26083406  1
  O  O203  1  1.00234798  0.14107712  0.75027991  1
  O  O204  1  1.01200096  0.62140673  0.25045528  1
  O  O205  1  0.98680481  0.61793124  0.75588142  1
  O  O206  1  0.36329400  0.24131954  0.00971526  1
  O  O207  1  0.38435811  0.25934282  0.51021490  1
  O  O208  1  0.36409728  0.75748574  0.00381589  1
  O  O209  1  0.36515618  0.74873164  0.50685836  1
  O  O210  1  0.87977212  0.25203979  0.01141554  1
  O  O211  1  0.86658181  0.25820306  0.50931405  1
  O  O212  1  0.88211104  0.77012324  0.00362586  1
  O  O213  1  0.89772659  0.68394126  0.53267808  1
  O  O214  1  0.12834405  0.23425964  0.51576960  1
  O  O215  1  0.13037463  0.23360793  1.00640146  1
  O  O216  1  0.14122824  0.73878975  0.49470025  1
  O  O217  1  0.12849594  0.74358980  0.99447225  1
  O  O218  1  0.63285842  0.25655386  0.49246497  1
  O  O219  1  0.64118866  0.24863424  1.01065083  1
  O  O220  1  0.61658693  0.75037214  0.48752034  1
  O  O221  1  0.61773856  0.73684873  0.98722077  1
  O  O222  1  0.49296633  0.24520329  0.12958157  1
  O  O223  1  0.49908217  0.23941995  0.63290058  1
  O  O224  1  0.49320136  0.75025709  0.13118944  1
  O  O225  1  0.48399042  0.74968434  0.62044512  1
  O  O226  1  0.98979136  0.25201871  0.13796317  1
  O  O227  1  0.98067235  0.24872066  0.62628661  1
  O  O228  1  0.98644897  0.75836321  0.12561342  1
  O  O229  1  1.03403300  0.73366051  0.63571106  1
  O  O230  1  -0.00407324  0.26198688  0.37307266  1
  O  O231  1  -0.01160085  0.25468633  0.85815168  1
  O  O232  1  -0.00327055  0.76448558  0.36934094  1
  O  O233  1  0.01155122  0.74589567  0.88268263  1
  O  O234  1  0.50666176  0.25426228  0.36851323  1
  O  O235  1  0.49864318  0.24409614  0.86046769  1
  O  O236  1  0.49890814  0.76163716  0.36835044  1
  O  O237  1  0.50486035  0.76088332  0.87913671  1
  O  O238  1  0.24708761  0.13133948  0.49226292  1
  O  O239  1  0.23573791  0.12824788  0.99268471  1
  O  O240  1  0.25064271  0.62957517  0.49165638  1
  O  O241  1  0.23852952  0.63516430  0.99677580  1
  O  O242  1  0.75230068  0.13911055  0.50122721  1
  O  O243  1  0.75117338  0.13388050  0.99713498  1
  O  O244  1  0.74944447  0.61506591  0.46249920  1
  O  O245  1  0.73556082  0.62048494  1.00988022  1
  O  O246  1  0.23586394  0.35994887  -0.00372266  1
  O  O247  1  0.27127943  0.37397231  0.49303390  1
  O  O248  1  0.25035069  0.87058207  0.00587938  1
  O  O249  1  0.24468131  0.86810044  0.51051790  1
  O  O250  1  0.76672433  0.35090230  -0.00530293  1
  O  O251  1  0.75802016  0.36688334  0.50576597  1
  O  O252  1  0.76382483  0.88455468  0.00850769  1
  O  O253  1  0.76491586  0.86019589  0.49383947  1
  O  O254  1  0.14224590  0.48326671  0.26222170  1
  O  O255  1  0.11900404  0.49096281  0.73666703  1
  O  O256  1  0.12546735  0.98702938  0.25411833  1
  O  O257  1  0.12334007  1.00193870  0.73123909  1
  O  O258  1  0.63389115  0.50031355  0.23798859  1
  O  O259  1  0.61813803  0.49813906  0.73864162  1
  O  O260  1  0.63302593  1.00387115  0.23906726  1
  O  O261  1  0.62643612  0.99027775  0.75347386  1
  O  O262  1  0.37732352  0.01410093  0.25912243  1
  O  O263  1  0.37786066  0.01040923  0.75548594  1
  O  O264  1  0.37073454  0.50610890  0.25720431  1
  O  O265  1  0.41333422  0.55241613  0.74447440  1
  O  O266  1  0.86884285  0.00864419  0.25283460  1
  O  O267  1  0.87429585  0.00447743  0.76448929  1
  O  O268  1  0.83221196  0.51949558  0.19976684  1
  O  O269  1  0.87772872  0.50114495  0.77270170  1
  O  O270  1  0.12360246  0.36224998  0.38802825  1
  O  O271  1  0.11784002  0.38232618  0.85527760  1
  O  O272  1  0.11138624  0.87863463  0.36731002  1
  O  O273  1  0.12694634  0.86248582  0.87466623  1
  O  O274  1  0.61396273  0.36383179  0.37686725  1
  O  O275  1  0.64330503  0.38722284  0.88912275  1
  O  O276  1  0.60717557  0.86862605  0.37822063  1
  O  O277  1  0.61797338  0.86856428  0.87130411  1
  O  O278  1  0.37902847  0.13111992  0.13306191  1
  O  O279  1  0.38617402  0.13201895  0.63279064  1
  O  O280  1  0.38076982  0.63541327  0.13046054  1
  O  O281  1  0.37406807  0.63959080  0.62422942  1
  O  O282  1  0.87618697  0.12595281  0.13964213  1
  O  O283  1  0.86223732  0.13473980  0.62174612  1
  O  O284  1  0.86933684  0.64943991  0.10528645  1
  O  O285  1  0.86515215  0.60084244  0.65665645  1
  O  O286  1  0.25829303  0.25074616  0.11453957  1
  O  O287  1  0.26901604  0.24311642  0.62375435  1
  O  O288  1  0.25333125  0.76094439  0.11610515  1
  O  O289  1  0.25726288  0.76045771  0.61862577  1
  O  O290  1  0.76610861  0.23870196  0.11381470  1
  O  O291  1  0.75648465  0.26101236  0.61840058  1
  O  O292  1  0.75677901  0.76382890  0.13267362  1
  O  O293  1  0.74418964  0.76874774  0.62761751  1
  O  O294  1  0.25991209  0.23893382  0.37863724  1
  O  O295  1  0.26110852  0.23836925  0.88463380  1
  O  O296  1  0.25548279  0.74331168  0.38028504  1
  O  O297  1  0.24050726  0.74875533  0.88681135  1
  O  O298  1  0.74166653  0.25113323  0.38286029  1
  O  O299  1  0.75556923  0.23324128  0.89083155  1
  O  O300  1  0.72698783  0.76574671  0.36624910  1
  O  O301  1  0.74504469  0.73291945  0.88228599  1
  O  O302  1  0.01301380  0.11974113  -0.00002719  1
  O  O303  1  0.01302110  0.12874718  0.49118737  1
  O  O304  1  0.01013535  0.61572821  0.00216015  1
  O  O305  1  0.02589466  0.61055155  0.48244124  1
  O  O306  1  0.49982805  0.11892908  0.00535754  1
  O  O307  1  0.50296429  0.11911567  0.51197508  1
  O  O308  1  0.49875896  0.62352228  0.01033299  1
  O  O309  1  0.50143601  0.61342864  0.50360638  1
  O  O310  1  0.49672112  0.38379321  0.49171598  1
  O  O311  1  0.50359363  0.39650001  1.00258894  1
  O  O312  1  0.50030636  0.89424178  0.49513271  1
  O  O313  1  0.49111677  0.88098675  0.98972757  1
  O  O314  1  0.99532886  0.37633922  0.49575603  1
  O  O315  1  0.99859934  0.38482107  0.99927346  1
  O  O316  1  1.00538678  0.87006571  0.48831537  1
  O  O317  1  0.99006293  0.89041173  0.99982137  1
  O  O318  1  0.50071627  0.49406045  0.37742388  1
  O  O319  1  0.49356437  0.50480952  0.88373930  1
  O  O320  1  0.49668142  0.99975697  0.38455859  1
  O  O321  1  0.48946501  0.99530822  0.87859391  1
  O  O322  1  1.01335649  0.47926348  0.39033469  1
  O  O323  1  0.98690637  0.50280194  0.88853829  1
  O  O324  1  0.98682253  0.98797957  0.37582171  1
  O  O325  1  0.98300050  1.00847793  0.88554953  1
  O  O326  1  -0.00298031  0.00199315  0.11167606  1
  O  O327  1  0.00573889  0.00441377  0.61523850  1
  O  O328  1  0.00337412  0.49880323  0.11616487  1
  O  O329  1  0.00852629  0.50950666  0.61139499  1
  O  O330  1  0.50470012  0.00260378  0.12045993  1
  O  O331  1  0.49923859  0.01179536  0.61301827  1
  O  O332  1  0.49612022  0.51780281  0.12763392  1
  O  O333  1  0.51820113  0.49836050  0.61407415  1
  O  O334  1  0.24472017  0.38053508  0.25291496  1
  O  O335  1  0.22598464  0.35430557  0.74536155  1
  O  O336  1  0.24003512  0.87824425  0.24219878  1
  O  O337  1  0.24060526  0.87767320  0.73242406  1
  O  O338  1  0.74680037  0.37177942  0.23546690  1
  O  O339  1  0.75192711  0.36971176  0.73462481  1
  O  O340  1  0.75919818  0.88888453  0.23671818  1
  O  O341  1  0.73492693  0.87263540  0.76034705  1
  O  O342  1  0.25849747  0.12421961  0.25912406  1
  O  O343  1  0.26098150  0.12660111  0.75362574  1
  O  O344  1  0.25512118  0.62118577  0.25646815  1
  O  O345  1  0.24104961  0.63048273  0.76164560  1
  O  O346  1  0.75985932  0.11201050  0.25412729  1
  O  O347  1  0.74927847  0.13051211  0.76483948  1
  O  O348  1  0.73996176  0.63103728  0.27812767  1
  O  O349  1  0.75333697  0.61948391  0.76831467  1
  O  O350  1  0.37120383  0.12132127  0.36937719  1
  O  O351  1  0.36938981  0.11693505  0.86640279  1
  O  O352  1  0.37071316  0.62225021  0.37059390  1
  O  O353  1  0.35416172  0.63674162  0.87681985  1
  O  O354  1  0.87156461  0.11104988  0.36769454  1
  O  O355  1  0.86463404  0.11540537  0.88035374  1
  O  O356  1  0.87995522  0.60781079  0.35955905  1
  O  O357  1  0.86676328  0.61946750  0.87402358  1
  O  O358  1  0.13024632  0.37487561  0.13654271  1
  O  O359  1  0.12073697  0.38867174  0.62887685  1
  O  O360  1  0.13029069  0.87198781  0.13504699  1
  O  O361  1  0.13420772  0.89340637  0.61908643  1
  O  O362  1  0.61471108  0.36869339  0.14469297  1
  O  O363  1  0.63833772  0.38619638  0.61988310  1
  O  O364  1  0.63263385  0.88410676  0.11598995  1
  O  O365  1  0.61568279  0.87012145  0.64710015  1
  O  O366  1  0.13122155  0.26345914  0.25002191  1
  O  O367  1  0.10432473  0.26037272  0.73120395  1
  O  O368  1  0.12331572  0.76528113  0.25650232  1
  O  O369  1  0.12586264  0.75247662  0.76694602  1
  O  O370  1  0.61424517  0.24149512  0.25693420  1
  O  O371  1  0.62080335  0.25064124  0.75685486  1
  O  O372  1  0.60932438  0.75080251  0.25855690  1
  O  O373  1  0.62471495  0.74826218  0.76801186  1
  O  O374  1  0.38313953  0.24027960  0.24375520  1
  O  O375  1  0.38776370  0.24181488  0.74370888  1
  O  O376  1  0.38168047  0.74749359  0.24461892  1
  O  O377  1  0.37158942  0.75277264  0.73813357  1
  O  O378  1  0.87041541  0.23294828  0.24789874  1
  O  O379  1  0.88107917  0.25073306  0.73262779  1
  O  O380  1  0.87869035  0.75102103  0.23460704  1
  O  O381  1  0.87353920  0.73131910  0.75721522  1
  O  O382  1  0.38764557  0.49400537  0.49713497  1
  O  O383  1  0.38560709  0.50395320  1.00362784  1
  O  O384  1  0.38623096  1.01051541  0.48959564  1
  O  O385  1  0.37759954  0.99751561  0.98892301  1
  O  O386  1  0.88957184  0.49235314  0.50498374  1
  O  O387  1  0.88776183  0.49422773  1.00558354  1
  O  O388  1  0.86817699  1.00548368  0.48623350  1
  O  O389  1  0.88629417  0.99492282  0.99819395  1
  O  O390  1  0.11296756  0.01165593  -0.00476458  1
  O  O391  1  0.12730454  0.01218043  0.50932598  1
  O  O392  1  0.11579918  0.51178504  -0.00239077  1
  O  O393  1  0.12659851  0.50148954  0.51128335  1
  O  O394  1  0.61747170  0.00000187  0.00930138  1
  O  O395  1  0.61755355  0.00150266  0.49326587  1
  O  O396  1  0.60394613  0.52569428  -0.00132654  1
  O  O397  1  0.61907408  0.50307273  0.49606324  1
  O  O398  1  0.37152972  0.36118025  0.13179869  1
  O  O399  1  0.38806809  0.36720447  0.61819271  1
  O  O400  1  0.36624443  0.87285793  0.11848874  1
  O  O401  1  0.36508454  0.86753810  0.62741347  1
  O  O402  1  0.87739032  0.36243913  0.11601509  1
  O  O403  1  0.86354250  0.37608513  0.61566182  1
  O  O404  1  0.86747675  0.87072267  0.11413345  1
  O  O405  1  0.88272029  0.86058290  0.61840961  1
  O  O406  1  0.13547141  0.11860926  0.38915217  1
  O  O407  1  0.13793394  0.11853128  0.86797313  1
  O  O408  1  0.14415623  0.62268714  0.38148547  1
  O  O409  1  0.13270842  0.63699291  0.88606232  1
  O  O410  1  0.62667213  0.13633526  0.37416485  1
  O  O411  1  0.64099098  0.11582021  0.88075473  1
  O  O412  1  0.61242250  0.64513816  0.37716901  1
  O  O413  1  0.64012830  0.62827846  0.88688427  1
