# generated using pymatgen
data_V79Zn79O256
_symmetry_space_group_name_H-M   'P 1'
_cell_length_a   16.93470017
_cell_length_b   16.95891530
_cell_length_c   16.91486295
_cell_angle_alpha   89.90111284
_cell_angle_beta   89.86000095
_cell_angle_gamma   90.11410533
_symmetry_Int_Tables_number   1
_chemical_formula_structural   V79Zn79O256
_chemical_formula_sum   'V79 Zn79 O256'
_cell_volume   4857.81820450
_cell_formula_units_Z   1
loop_
 _symmetry_equiv_pos_site_id
 _symmetry_equiv_pos_as_xyz
  1  'x, y, z'
loop_
 _atom_site_type_symbol
 _atom_site_label
 _atom_site_symmetry_multiplicity
 _atom_site_fract_x
 _atom_site_fract_y
 _atom_site_fract_z
 _atom_site_occupancy
  V  V0  1  0.25591676  -0.00509521  0.75367047  1
  V  V1  1  0.12397685  -0.01099569  0.14687439  1
  V  V2  1  0.62472135  0.50222371  0.11852217  1
  V  V3  1  0.24164885  0.62733142  0.87508764  1
  V  V4  1  0.00576476  0.38133580  0.88992421  1
  V  V5  1  0.61953689  -0.00165416  0.61702346  1
  V  V6  1  0.87461677  0.00439184  0.87362344  1
  V  V7  1  0.24275605  0.61851001  0.37611231  1
  V  V8  1  0.49582195  0.12537630  0.12731892  1
  V  V9  1  -0.01486617  0.74645781  0.75025357  1
  V  V10  1  0.24674020  0.38303670  0.12263460  1
  V  V11  1  0.35779458  0.12555114  0.25503740  1
  V  V12  1  0.50191830  0.12467092  0.61720114  1
  V  V13  1  0.35653642  0.00035503  0.36881839  1
  V  V14  1  0.12600605  0.75988858  0.37255277  1
  V  V15  1  0.48558280  0.88305332  0.88572641  1
  V  V16  1  0.75607341  0.86916036  0.62265656  1
  V  V17  1  0.59961622  0.62806317  0.52834872  1
  V  V18  1  0.49526496  0.00117676  0.49459455  1
  V  V19  1  0.62241465  0.88285275  0.75205336  1
  V  V20  1  0.75418625  0.50346946  0.25329493  1
  V  V21  1  0.94145246  -0.04599659  0.43114984  1
  V  V22  1  0.11980195  0.13637025  0.02750528  1
  V  V23  1  0.11677065  0.38025759  0.24804955  1
  V  V24  1  0.25577550  0.11784106  0.87529323  1
  V  V25  1  0.62727980  0.24208374  0.38572307  1
  V  V26  1  0.12509091  0.37548915  0.74722806  1
  V  V27  1  0.25371781  0.49845952  0.25187391  1
  V  V28  1  0.38012199  0.62968242  0.74441569  1
  V  V29  1  0.12951681  0.86555337  0.75263122  1
  V  V30  1  0.62325105  -0.00049093  0.13218667  1
  V  V31  1  0.48425909  -0.00018711  0.00024708  1
  V  V32  1  0.01185829  -0.00428464  -0.00160941  1
  V  V33  1  0.73540384  0.63744116  0.36875670  1
  V  V34  1  0.37837285  0.37571943  -0.00282243  1
  V  V35  1  0.82312894  0.57792784  0.70376518  1
  V  V36  1  0.24979669  0.50260253  0.74733953  1
  V  V37  1  0.62627207  0.12572304  -0.00288667  1
  V  V38  1  0.00786273  0.76355773  0.25060281  1
  V  V39  1  0.23941017  0.24470269  0.49024812  1
  V  V40  1  0.75854337  0.75466455  0.49400333  1
  V  V41  1  0.37221390  0.24150578  0.61918446  1
  V  V42  1  0.62111132  0.25249730  0.87305351  1
  V  V43  1  0.62270016  0.75422377  0.88233839  1
  V  V44  1  0.24399690  0.74192598  0.50180366  1
  V  V45  1  0.75822811  0.37236202  0.11872603  1
  V  V46  1  0.37488238  0.62216371  0.25357889  1
  V  V47  1  0.75579835  0.25040808  -0.00129791  1
  V  V48  1  0.49616985  0.39116165  0.37663250  1
  V  V49  1  0.00873825  0.86714087  0.87593327  1
  V  V50  1  0.75882268  0.01909463  0.25695333  1
  V  V51  1  0.86213790  0.22727238  0.63337486  1
  V  V52  1  0.86270450  0.38519382  0.52610537  1
  V  V53  1  0.50539864  0.50323563  -0.00252291  1
  V  V54  1  0.25086419  0.87268238  0.14802221  1
  V  V55  1  0.75574422  0.63153396  0.87829226  1
  V  V56  1  0.24891319  0.87633001  0.61975910  1
  V  V57  1  0.87893275  0.62503771  0.25754594  1
  V  V58  1  0.50137135  0.25247849  0.74759466  1
  V  V59  1  0.50018723  0.62630659  0.12066807  1
  V  V60  1  -0.01196196  0.37849318  0.37844193  1
  V  V61  1  0.37284704  0.75056308  0.12182735  1
  V  V62  1  0.24328741  0.37501896  0.62072831  1
  V  V63  1  0.11859660  0.24204076  0.36748560  1
  V  V64  1  0.74770096  0.75450488  0.00312577  1
  V  V65  1  0.37720163  0.38567440  0.49219880  1
  V  V66  1  0.37656875  0.50316158  0.87449265  1
  V  V67  1  0.25379687  0.25089964  -0.00301077  1
  V  V68  1  0.51064486  0.87353614  0.36466397  1
  V  V69  1  0.12388457  0.61151952  0.00259949  1
  V  V70  1  0.87960326  0.75436459  0.12413987  1
  V  V71  1  0.24466927  0.75773148  -0.00551284  1
  V  V72  1  0.00590716  0.63044779  0.62083674  1
  V  V73  1  0.74958172  0.87724350  0.13695567  1
  V  V74  1  0.49842031  0.75329233  0.74390827  1
  V  V75  1  0.12655116  0.24629115  0.86633100  1
  V  V76  1  0.00491600  0.61369174  0.12109361  1
  V  V77  1  0.49765103  0.24920145  0.25262182  1
  V  V78  1  0.62257619  0.37757273  0.25290370  1
  Zn  Zn79  1  0.76472506  0.00722202  0.73907702  1
  Zn  Zn80  1  0.13056296  0.51381601  0.61067849  1
  Zn  Zn81  1  0.37746578  0.11658416  0.75435620  1
  Zn  Zn82  1  0.75077210  0.23717066  0.49960806  1
  Zn  Zn83  1  -0.00787870  0.23831419  0.74619356  1
  Zn  Zn84  1  0.80339433  0.16497609  0.82443689  1
  Zn  Zn85  1  0.50612635  0.38187534  0.86373188  1
  Zn  Zn86  1  0.00377727  0.51404036  0.48726093  1
  Zn  Zn87  1  0.37195026  0.24968353  0.12842762  1
  Zn  Zn88  1  0.52326372  0.74541231  0.26413458  1
  Zn  Zn89  1  0.87980682  0.87766266  0.00039009  1
  Zn  Zn90  1  0.86755078  0.48349893  0.87558920  1
  Zn  Zn91  1  0.06351922  0.06378610  0.54741545  1
  Zn  Zn92  1  0.38161719  0.74512232  0.61486360  1
  Zn  Zn93  1  0.37415645  0.87286050  0.49617399  1
  Zn  Zn94  1  0.17103128  0.19232330  0.18434188  1
  Zn  Zn95  1  0.18820518  0.18145792  0.68617097  1
  Zn  Zn96  1  0.18650376  0.68510316  0.18620591  1
  Zn  Zn97  1  0.18587392  0.69190274  0.69078842  1
  Zn  Zn98  1  0.68305951  0.18963641  0.18679370  1
  Zn  Zn99  1  0.68474030  0.18271768  0.68838988  1
  Zn  Zn100  1  0.68779248  0.68756563  0.18705665  1
  Zn  Zn101  1  0.68013770  0.69370399  0.68879856  1
  Zn  Zn102  1  0.30991281  0.31350385  0.31275469  1
  Zn  Zn103  1  0.31544541  0.31019428  0.80917584  1
  Zn  Zn104  1  0.32240506  0.80540413  0.31809283  1
  Zn  Zn105  1  0.31412998  0.81152256  0.81490435  1
  Zn  Zn106  1  0.80446697  0.31202118  0.30997768  1
  Zn  Zn107  1  0.81714503  0.32947623  0.80036010  1
  Zn  Zn108  1  0.82307747  0.82227097  0.31809183  1
  Zn  Zn109  1  0.81249845  0.82287597  0.81455380  1
  Zn  Zn110  1  0.18122579  0.43639388  0.43655670  1
  Zn  Zn111  1  0.18797216  0.43852173  0.93385652  1
  Zn  Zn112  1  0.16253332  0.94437809  0.43993993  1
  Zn  Zn113  1  0.18787186  0.93960661  0.93880426  1
  Zn  Zn114  1  0.68409551  0.45086142  0.44360327  1
  Zn  Zn115  1  0.70340936  0.43006056  0.92103105  1
  Zn  Zn116  1  0.68931640  0.93927642  0.43371870  1
  Zn  Zn117  1  0.68559611  0.93711900  0.94691405  1
  Zn  Zn118  1  0.30177157  0.06325649  0.07350263  1
  Zn  Zn119  1  0.27635713  0.04362619  0.53718769  1
  Zn  Zn120  1  0.31273857  0.56400822  0.06050422  1
  Zn  Zn121  1  0.31459753  0.56418578  0.56113722  1
  Zn  Zn122  1  0.81356614  0.07055655  0.08801711  1
  Zn  Zn123  1  0.79995644  0.05903678  0.55477892  1
  Zn  Zn124  1  0.81787986  0.56461233  0.05726816  1
  Zn  Zn125  1  0.82165726  0.56973500  0.54061170  1
  Zn  Zn126  1  0.43492238  0.43720849  0.18522902  1
  Zn  Zn127  1  0.41581404  0.42412652  0.69443397  1
  Zn  Zn128  1  0.43241867  0.93898781  0.18802068  1
  Zn  Zn129  1  0.43261768  0.93232313  0.68591995  1
  Zn  Zn130  1  0.93408472  0.43798631  0.18434293  1
  Zn  Zn131  1  0.94746795  0.44079682  0.68881590  1
  Zn  Zn132  1  0.93831259  0.94543414  0.18805203  1
  Zn  Zn133  1  0.94311860  0.93759409  0.68747708  1
  Zn  Zn134  1  0.05138602  0.04873770  0.33776490  1
  Zn  Zn135  1  0.07324319  0.05499807  0.81004261  1
  Zn  Zn136  1  0.06456469  0.56080793  0.30827368  1
  Zn  Zn137  1  0.05971444  0.56100748  0.80867483  1
  Zn  Zn138  1  0.56188829  0.06270333  0.31341891  1
  Zn  Zn139  1  0.56167184  0.06647201  0.81090690  1
  Zn  Zn140  1  0.56390155  0.56480915  0.30778307  1
  Zn  Zn141  1  0.56666537  0.56572171  0.80623638  1
  Zn  Zn142  1  0.43242962  0.18917801  0.43452787  1
  Zn  Zn143  1  0.44001425  0.18555461  0.93732136  1
  Zn  Zn144  1  0.43418426  0.68720985  0.43578487  1
  Zn  Zn145  1  0.43407896  0.69175914  0.93710127  1
  Zn  Zn146  1  0.90079349  0.12036583  0.44346737  1
  Zn  Zn147  1  0.92090553  0.15989103  0.98936380  1
  Zn  Zn148  1  0.93641671  0.70094178  0.43742333  1
  Zn  Zn149  1  0.93700860  0.68497005  0.93788105  1
  Zn  Zn150  1  0.06700764  0.30724935  0.06545325  1
  Zn  Zn151  1  0.01197869  0.25052813  0.52731533  1
  Zn  Zn152  1  0.07085632  0.80881722  0.06365933  1
  Zn  Zn153  1  0.06444197  0.81129010  0.56633757  1
  Zn  Zn154  1  0.56420100  0.31379831  0.06312312  1
  Zn  Zn155  1  0.56166320  0.32110920  0.56372040  1
  Zn  Zn156  1  0.57513714  0.80223381  0.08803552  1
  Zn  Zn157  1  0.56916991  0.81282226  0.55130252  1
  O  O158  1  0.15751176  0.08952313  0.12547424  1
  O  O159  1  0.09131868  0.12377607  0.65630051  1
  O  O160  1  0.11179060  0.62476697  0.12152170  1
  O  O161  1  0.11192451  0.63203556  0.62621961  1
  O  O162  1  0.61480857  0.12011304  0.11819529  1
  O  O163  1  0.60999614  0.11276100  0.62550781  1
  O  O164  1  0.61446996  0.61006300  0.12642099  1
  O  O165  1  0.61385531  0.62408766  0.62906957  1
  O  O166  1  0.37968969  0.37289240  0.38535733  1
  O  O167  1  0.37565680  0.38261929  0.88292489  1
  O  O168  1  0.38071966  0.88956566  0.37328266  1
  O  O169  1  0.38703863  0.87412975  0.87839749  1
  O  O170  1  0.89107251  0.36761129  0.35271132  1
  O  O171  1  0.91101660  0.35599492  0.87149798  1
  O  O172  1  0.89904728  0.87536172  0.38279170  1
  O  O173  1  0.89163730  0.88296148  0.87879195  1
  O  O174  1  0.25912029  -0.00675854  0.37630754  1
  O  O175  1  0.24794275  0.00782303  0.86983020  1
  O  O176  1  0.24758370  0.50562001  0.36328716  1
  O  O177  1  0.25701149  0.50878292  0.86809815  1
  O  O178  1  0.74657168  -0.00484194  0.35507128  1
  O  O179  1  0.77442170  -0.01201934  0.88607896  1
  O  O180  1  0.74161345  0.51675895  0.35787217  1
  O  O181  1  0.71544807  0.54235974  0.88892975  1
  O  O182  1  0.25441966  0.49016898  0.13120785  1
  O  O183  1  0.25014490  0.49226983  0.62858706  1
  O  O184  1  0.24773140  0.97646217  0.12984327  1
  O  O185  1  0.25964303  0.97945994  0.63522926  1
  O  O186  1  0.74178871  0.49245442  0.12951746  1
  O  O187  1  0.76451315  0.53010841  0.63945546  1
  O  O188  1  0.74200241  0.99590445  0.13128018  1
  O  O189  1  0.73508287  0.98975016  0.62029440  1
  O  O190  1  0.01383529  0.38023938  0.24509858  1
  O  O191  1  0.01883169  0.37186280  0.75045615  1
  O  O192  1  -0.00091221  0.86142914  0.24555198  1
  O  O193  1  0.00912800  0.86447104  0.75493695  1
  O  O194  1  0.50304494  0.37030956  0.25498148  1
  O  O195  1  0.49010313  0.35952729  0.74781818  1
  O  O196  1  0.49750737  0.87938480  0.26194691  1
  O  O197  1  0.50292532  0.87216721  0.76390647  1
  O  O198  1  0.49362206  0.13516654  0.24726959  1
  O  O199  1  0.49401508  0.13197019  0.73761927  1
  O  O200  1  0.49165500  0.62624836  0.23854281  1
  O  O201  1  0.49019606  0.64015878  0.75983581  1
  O  O202  1  0.91263952  0.18622955  0.27201734  1
  O  O203  1  1.03417816  0.12454458  0.72253305  1
  O  O204  1  0.99536698  0.62907711  0.23884584  1
  O  O205  1  1.00231986  0.64145455  0.74776549  1
  O  O206  1  0.36917779  0.25893472  -0.00104192  1
  O  O207  1  0.36602952  0.26022862  0.50280637  1
  O  O208  1  0.35543348  0.73859258  0.01114638  1
  O  O209  1  0.35740862  0.75333783  0.49595386  1
  O  O210  1  0.85369239  0.25423549  -0.00851836  1
  O  O211  1  0.86728516  0.27192732  0.52436733  1
  O  O212  1  0.87258960  0.75371043  0.01127707  1
  O  O213  1  0.85822113  0.75484828  0.50336217  1
  O  O214  1  0.13247500  0.25234142  0.48563891  1
  O  O215  1  0.14063310  0.24748051  0.98224184  1
  O  O216  1  0.13021825  0.75411142  0.48511547  1
  O  O217  1  0.14050531  0.73486097  1.00634797  1
  O  O218  1  0.62759076  0.26108792  0.48974585  1
  O  O219  1  0.62277478  0.24195850  0.99445677  1
  O  O220  1  0.63519498  0.73030139  0.50520698  1
  O  O221  1  0.63551852  0.76298222  0.99414729  1
  O  O222  1  0.49882295  0.24710800  0.13755631  1
  O  O223  1  0.49487769  0.24386362  0.62578340  1
  O  O224  1  0.48263128  0.73596728  0.10443558  1
  O  O225  1  0.49979714  0.76516269  0.64104559  1
  O  O226  1  1.07903008  0.20348944  0.10601798  1
  O  O227  1  0.96690561  0.25938293  0.63491797  1
  O  O228  1  0.99764232  0.74598785  0.13529352  1
  O  O229  1  1.00228696  0.74397044  0.63933011  1
  O  O230  1  0.01717502  0.26801233  0.37192846  1
  O  O231  1  0.02234165  0.25311815  0.86200024  1
  O  O232  1  0.01406889  0.74548230  0.36335014  1
  O  O233  1  -0.00546384  0.75655357  0.86493358  1
  O  O234  1  0.50721555  0.26214566  0.36882709  1
  O  O235  1  0.50211368  0.24976573  0.86382647  1
  O  O236  1  0.48928541  0.76760454  0.37179026  1
  O  O237  1  0.50417281  0.76525664  0.87488851  1
  O  O238  1  0.25883328  0.14880744  0.49784124  1
  O  O239  1  0.24104994  0.13328357  0.99737061  1
  O  O240  1  0.25411502  0.63078732  0.48967252  1
  O  O241  1  0.24326827  0.62789194  0.99319157  1
  O  O242  1  0.79145762  0.13335973  0.47086885  1
  O  O243  1  0.73664645  0.14134560  1.01400921  1
  O  O244  1  0.75292488  0.64009401  0.48333439  1
  O  O245  1  0.75343517  0.64786199  0.99593114  1
  O  O246  1  0.25780344  0.37174720  0.00259326  1
  O  O247  1  0.25815335  0.36867528  0.50315186  1
  O  O248  1  0.24463066  0.85865925  -0.00079313  1
  O  O249  1  0.24522407  0.86652402  0.51199290  1
  O  O250  1  0.73872079  0.36413096  0.01271507  1
  O  O251  1  0.76506866  0.38596434  0.49174767  1
  O  O252  1  0.75771622  0.86868273  0.01251341  1
  O  O253  1  0.73733353  0.86422063  0.51035726  1
  O  O254  1  0.13817383  0.48760964  0.24894688  1
  O  O255  1  0.13403153  0.49084867  0.74594815  1
  O  O256  1  0.10813427  0.99934029  0.24416547  1
  O  O257  1  0.14286369  0.97985772  0.75266367  1
  O  O258  1  0.63171980  0.49418287  0.24007524  1
  O  O259  1  0.61843685  0.48138848  0.73819762  1
  O  O260  1  0.63271065  1.00923505  0.23730149  1
  O  O261  1  0.61322147  0.99069467  0.73762951  1
  O  O262  1  0.37426760  0.01037351  0.26047654  1
  O  O263  1  0.36305898  -0.00301400  0.75055402  1
  O  O264  1  0.36645249  0.50994068  0.24414428  1
  O  O265  1  0.37232724  0.50960698  0.75317799  1
  O  O266  1  0.85721680  0.00617425  0.23389145  1
  O  O267  1  0.88153053  -0.00252539  0.76650316  1
  O  O268  1  0.86338460  0.51239541  0.24087319  1
  O  O269  1  0.88252778  0.51229876  0.75655085  1
  O  O270  1  0.11727845  0.37322911  0.36070289  1
  O  O271  1  0.12568178  0.36840661  0.86596532  1
  O  O272  1  0.14102454  0.85623669  0.36563441  1
  O  O273  1  0.11662457  0.87592825  0.86989246  1
  O  O274  1  0.61686380  0.37685511  0.36600881  1
  O  O275  1  0.61827370  0.35663564  0.88361831  1
  O  O276  1  0.60946817  0.87701681  0.37675036  1
  O  O277  1  0.62154676  0.87330220  0.86844897  1
  O  O278  1  0.37848326  0.12791925  0.13611925  1
  O  O279  1  0.38227724  0.13582941  0.62160694  1
  O  O280  1  0.38033835  0.62814434  0.13194303  1
  O  O281  1  0.37113989  0.62741035  0.63979898  1
  O  O282  1  0.89852631  0.13433532  0.09618216  1
  O  O283  1  0.86719390  0.12879825  0.62893620  1
  O  O284  1  0.88469841  0.63663186  0.13073140  1
  O  O285  1  0.88499031  0.62775761  0.63548756  1
  O  O286  1  0.24997943  0.26066632  0.10980912  1
  O  O287  1  0.25329887  0.25463665  0.61364040  1
  O  O288  1  0.25242304  0.75704859  0.11877177  1
  O  O289  1  0.25108752  0.75256533  0.61509004  1
  O  O290  1  0.73941813  0.26493796  0.11766836  1
  O  O291  1  0.75468775  0.24429556  0.62285850  1
  O  O292  1  0.76118074  0.75727736  0.12154758  1
  O  O293  1  0.74452884  0.76358999  0.61852077  1
  O  O294  1  0.23816089  0.25934322  0.38391309  1
  O  O295  1  0.24970028  0.24546917  0.88120090  1
  O  O296  1  0.24166528  0.73996649  0.37949206  1
  O  O297  1  0.25526895  0.74096513  0.88728806  1
  O  O298  1  0.72962992  0.25680808  0.37198239  1
  O  O299  1  0.73854651  0.24765379  0.88806952  1
  O  O300  1  0.75373793  0.75415554  0.38475014  1
  O  O301  1  0.74437914  0.75301910  0.88341718  1
  O  O302  1  0.02519536  0.11222573  -0.01541167  1
  O  O303  1  -0.00170407  0.14180121  0.49679995  1
  O  O304  1  0.00807162  0.63358705  0.01312779  1
  O  O305  1  -0.01156778  0.63390379  0.51670475  1
  O  O306  1  0.50473344  0.11902766  0.00737896  1
  O  O307  1  0.49168488  0.11454724  0.50643463  1
  O  O308  1  0.49167307  0.61229149  0.00637212  1
  O  O309  1  0.49918154  0.63598213  0.51145151  1
  O  O310  1  0.48534894  0.37416033  0.49291597  1
  O  O311  1  0.48958137  0.38314649  1.00169689  1
  O  O312  1  0.49528017  0.88405328  0.49058599  1
  O  O313  1  0.50356838  0.88498653  0.99020963  1
  O  O314  1  0.97876062  0.36760611  0.48442103  1
  O  O315  1  1.01697536  0.37004580  0.98999381  1
  O  O316  1  0.99059489  0.89762348  0.53909327  1
  O  O317  1  1.00906076  0.87747827  0.99260651  1
  O  O318  1  0.50082543  0.49047944  0.36661278  1
  O  O319  1  0.49774458  0.50128522  0.88108360  1
  O  O320  1  0.49684887  0.99255324  0.38095794  1
  O  O321  1  0.50281324  0.99063390  0.88326368  1
  O  O322  1  1.00288642  0.48435155  0.36959198  1
  O  O323  1  1.00230137  0.48427662  0.87223365  1
  O  O324  1  1.04924632  0.96708812  0.42095211  1
  O  O325  1  1.00137052  0.98903942  0.87874580  1
  O  O326  1  0.01957268  -0.01238024  0.11620541  1
  O  O327  1  0.00995198  -0.03989585  0.59536275  1
  O  O328  1  -0.00707748  0.51580188  0.12379276  1
  O  O329  1  0.00583845  0.52333416  0.63180819  1
  O  O330  1  0.50512339  0.00344835  0.12004023  1
  O  O331  1  0.49855950  0.00399070  0.61515636  1
  O  O332  1  0.50373286  0.50640371  0.11808385  1
  O  O333  1  0.58191063  0.46061223  0.66854957  1
  O  O334  1  0.25060101  0.38295807  0.24141894  1
  O  O335  1  0.25171276  0.38256553  0.74039484  1
  O  O336  1  0.25048421  0.86383192  0.24585846  1
  O  O337  1  0.24852674  0.87295913  0.74463261  1
  O  O338  1  0.74120120  0.38349191  0.24056682  1
  O  O339  1  0.77478367  0.42184520  0.83273579  1
  O  O340  1  0.75631350  0.87751419  0.23905766  1
  O  O341  1  0.73863580  0.88170282  0.74075351  1
  O  O342  1  0.26064066  0.14189773  0.24579749  1
  O  O343  1  0.25341311  0.11256627  0.75484749  1
  O  O344  1  0.25505525  0.61642683  0.25205455  1
  O  O345  1  0.25597745  0.62385011  0.75749528  1
  O  O346  1  0.74762389  0.11957299  0.24675763  1
  O  O347  1  0.72887583  0.10978580  0.76276911  1
  O  O348  1  0.75945775  0.62405190  0.24979575  1
  O  O349  1  0.75549168  0.64019346  0.76248529  1
  O  O350  1  0.37741564  0.11133221  0.36824281  1
  O  O351  1  0.36051565  0.13125111  0.87478458  1
  O  O352  1  0.36237562  0.63243182  0.36049822  1
  O  O353  1  0.36510833  0.62161973  0.86722689  1
  O  O354  1  0.93675479  0.04006701  0.36411966  1
  O  O355  1  0.88368326  0.11007555  0.88600247  1
  O  O356  1  0.86860720  0.63648752  0.36079088  1
  O  O357  1  0.85808315  0.62193756  0.88030412  1
  O  O358  1  0.13610253  0.36991549  0.13751410  1
  O  O359  1  0.14032375  0.37144735  0.63187691  1
  O  O360  1  0.13958111  0.87824247  0.12874084  1
  O  O361  1  0.14337892  0.86419078  0.63568353  1
  O  O362  1  0.62589836  0.38359245  0.13647569  1
  O  O363  1  0.62216278  0.40128924  0.63117835  1
  O  O364  1  0.63811635  0.89380731  0.11394274  1
  O  O365  1  0.62607705  0.88224577  0.63272476  1
  O  O366  1  0.13686821  0.27020035  0.26058132  1
  O  O367  1  0.14208048  0.26358815  0.75529124  1
  O  O368  1  0.11490285  0.74559866  0.25557966  1
  O  O369  1  0.11992547  0.76043039  0.75563583  1
  O  O370  1  0.61536986  0.26038043  0.25778103  1
  O  O371  1  0.61146356  0.24283283  0.75853125  1
  O  O372  1  0.60778278  0.76134446  0.19588124  1
  O  O373  1  0.61621073  0.76676171  0.75792415  1
  O  O374  1  0.38419738  0.24555409  0.25419012  1
  O  O375  1  0.37949682  0.24685863  0.73524958  1
  O  O376  1  0.37457104  0.73727202  0.23627342  1
  O  O377  1  0.38271487  0.74376377  0.75165294  1
  O  O378  1  0.87208673  0.23571226  0.23474115  1
  O  O379  1  0.86200937  0.24162950  0.74812050  1
  O  O380  1  0.88885776  0.74535249  0.24396325  1
  O  O381  1  0.88613828  0.75829912  0.75080380  1
  O  O382  1  0.37145999  0.48410029  0.50394218  1
  O  O383  1  0.38267084  0.49338294  0.99507048  1
  O  O384  1  0.37686722  0.99892190  0.48574238  1
  O  O385  1  0.38561730  1.00841555  1.00994694  1
  O  O386  1  0.88926342  0.48810958  0.50188495  1
  O  O387  1  0.85456946  0.49032558  0.98712556  1
  O  O388  1  0.87875158  0.99234158  0.50109987  1
  O  O389  1  0.89965672  0.99623792  0.99244897  1
  O  O390  1  0.12279370  0.00584435  0.00782458  1
  O  O391  1  0.16488371  0.02243851  0.51951744  1
  O  O392  1  0.13088490  0.51150430  0.00075220  1
  O  O393  1  0.11469191  0.49648361  0.50112994  1
  O  O394  1  0.61887007  0.01162561  0.00804489  1
  O  O395  1  0.61172859  -0.00627442  0.50871258  1
  O  O396  1  0.61295528  0.48686284  0.00870506  1
  O  O397  1  0.62777160  0.53742126  0.48912092  1
  O  O398  1  0.36649562  0.37262449  0.11416426  1
  O  O399  1  0.36604933  0.36470180  0.61205379  1
  O  O400  1  0.36255895  0.86300405  0.13126651  1
  O  O401  1  0.36259058  0.86427407  0.62160499  1
  O  O402  1  0.85694126  0.37421514  0.13027809  1
  O  O403  1  0.86412762  0.38871313  0.62722229  1
  O  O404  1  0.87117953  0.86641917  0.12542554  1
  O  O405  1  0.85275355  0.88339878  0.63261638  1
  O  O406  1  0.11357825  0.14400638  0.35138202  1
  O  O407  1  0.14201429  0.13354125  0.86916652  1
  O  O408  1  0.13798395  0.63181818  0.36551033  1
  O  O409  1  0.13641077  0.61938311  0.88055320  1
  O  O410  1  0.61385360  0.14371762  0.37711059  1
  O  O411  1  0.61574207  0.13374929  0.88884110  1
  O  O412  1  0.63568472  0.64347135  0.35077922  1
  O  O413  1  0.62568116  0.65265505  0.86325718  1
