# generated using pymatgen
data_V79Zn79O256
_symmetry_space_group_name_H-M   'P 1'
_cell_length_a   16.90340670
_cell_length_b   16.91045253
_cell_length_c   16.99486556
_cell_angle_alpha   90.01346434
_cell_angle_beta   90.20803013
_cell_angle_gamma   90.30698514
_symmetry_Int_Tables_number   1
_chemical_formula_structural   V79Zn79O256
_chemical_formula_sum   'V79 Zn79 O256'
_cell_volume   4857.78280770
_cell_formula_units_Z   1
loop_
 _symmetry_equiv_pos_site_id
 _symmetry_equiv_pos_as_xyz
  1  'x, y, z'
loop_
 _atom_site_type_symbol
 _atom_site_label
 _atom_site_symmetry_multiplicity
 _atom_site_fract_x
 _atom_site_fract_y
 _atom_site_fract_z
 _atom_site_occupancy
  V  V0  1  0.50174330  0.00004576  0.01129212  1
  V  V1  1  0.37885237  0.73955824  0.62178090  1
  V  V2  1  0.74840520  0.12638916  0.88395501  1
  V  V3  1  0.63023866  0.12539423  0.49646978  1
  V  V4  1  0.81867972  0.56407839  0.80811502  1
  V  V5  1  0.37982162  0.38062324  0.00484747  1
  V  V6  1  0.12250038  0.62294659  0.48453566  1
  V  V7  1  0.25656130  0.25164559  0.49813480  1
  V  V8  1  0.24926221  0.87247894  0.62892240  1
  V  V9  1  0.74613649  -0.00160010  0.74014948  1
  V  V10  1  0.00868368  0.12440577  0.61733420  1
  V  V11  1  0.49941561  0.25132192  0.75077506  1
  V  V12  1  0.50273068  0.00020677  0.50434008  1
  V  V13  1  0.62447294  0.62852792  0.02460699  1
  V  V14  1  0.61979021  0.75236011  0.36858853  1
  V  V15  1  0.62660940  0.24792825  0.37525159  1
  V  V16  1  0.25118239  0.50493520  0.25434019  1
  V  V17  1  0.62213535  0.12382386  0.01220308  1
  V  V18  1  0.76255516  0.51013789  0.24795306  1
  V  V19  1  0.11934507  0.49679864  0.61744185  1
  V  V20  1  0.25453627  0.37575096  0.62407720  1
  V  V21  1  0.49225943  0.25116748  0.23071412  1
  V  V22  1  0.86681301  0.25666425  0.62026670  1
  V  V23  1  0.12106986  0.24947414  0.88141513  1
  V  V24  1  0.63743680  0.37735235  0.74484560  1
  V  V25  1  0.49459911  0.51086000  0.50811998  1
  V  V26  1  0.62904767  0.25185521  0.87906841  1
  V  V27  1  0.86619611  0.35267607  0.02750497  1
  V  V28  1  0.24672127  0.00003140  0.74836674  1
  V  V29  1  0.50148437  0.38577942  0.87598457  1
  V  V30  1  0.12675084  0.24764034  0.38292046  1
  V  V31  1  0.50152488  0.87489940  0.37350864  1
  V  V32  1  0.24510544  0.74640362  0.48275659  1
  V  V33  1  0.12588696  0.36946371  0.25620820  1
  V  V34  1  0.24905993  0.85701296  0.11160262  1
  V  V35  1  0.37717141  0.11846837  0.23438399  1
  V  V36  1  0.88585673  0.88666014  0.50502811  1
  V  V37  1  0.13545559  -0.00922047  0.13907771  1
  V  V38  1  0.75009430  0.76351464  0.50744255  1
  V  V39  1  0.38458733  0.63510765  0.23948694  1
  V  V40  1  0.49924008  0.87636458  0.86914053  1
  V  V41  1  0.25397378  0.37072726  0.12632040  1
  V  V42  1  0.87281044  0.76521800  0.14261411  1
  V  V43  1  0.49506157  0.37264264  0.38787077  1
  V  V44  1  0.62801454  0.87998262  0.73525910  1
  V  V45  1  0.72621892  -0.00312835  0.24799394  1
  V  V46  1  0.88229323  0.00797754  0.36470183  1
  V  V47  1  0.25564673  0.12033447  0.36951527  1
  V  V48  1  -0.02110927  0.62133107  0.13135283  1
  V  V49  1  0.87816879  0.12606424  0.75310259  1
  V  V50  1  0.00822187  0.87271833  0.36801321  1
  V  V51  1  0.37417779  0.50555800  0.37365176  1
  V  V52  1  0.13879397  0.38483391  0.76177139  1
  V  V53  1  0.00244711  0.25563419  0.75498812  1
  V  V54  1  0.63912297  0.50688632  0.62510613  1
  V  V55  1  0.37681529  0.61008794  0.75723548  1
  V  V56  1  0.00035989  0.86526824  0.86910672  1
  V  V57  1  0.50272354  0.74091635  0.73968010  1
  V  V58  1  0.37221254  0.87608398  0.49560849  1
  V  V59  1  0.25399995  0.12854817  0.87396734  1
  V  V60  1  0.50709598  0.12170853  0.62516661  1
  V  V61  1  0.88506568  0.75085193  0.63215360  1
  V  V62  1  0.11946902  0.50433979  0.12828536  1
  V  V63  1  0.87345487  -0.00396436  0.88376974  1
  V  V64  1  0.12789538  0.11787866  0.00282364  1
  V  V65  1  0.26032596  0.25032969  0.00564858  1
  V  V66  1  0.37770924  0.12620067  0.74698101  1
  V  V67  1  -0.00012564  0.24174521  0.25121967  1
  V  V68  1  0.62050663  0.39354980  0.24288530  1
  V  V69  1  0.93130272  0.42531999  0.43038325  1
  V  V70  1  0.75849893  0.75544794  -0.00546589  1
  V  V71  1  0.37729322  -0.00358078  0.87453081  1
  V  V72  1  0.38060857  0.25318927  0.61894019  1
  V  V73  1  0.76408067  0.63025725  0.37482309  1
  V  V74  1  0.62764130  0.74187297  0.86752353  1
  V  V75  1  0.50674641  0.50765925  0.01595122  1
  V  V76  1  0.37969755  0.74407914  0.10132527  1
  V  V77  1  -0.00227315  0.12208912  0.13118772  1
  V  V78  1  -0.00119326  -0.00743519  0.00090291  1
  Zn  Zn79  1  0.62312426  0.63185333  0.50655784  1
  Zn  Zn80  1  0.01630234  0.74203876  0.26248375  1
  Zn  Zn81  1  0.11158914  -0.00522229  0.61661056  1
  Zn  Zn82  1  0.80285940  0.40091733  0.55922714  1
  Zn  Zn83  1  0.11927667  0.86463173  0.75157218  1
  Zn  Zn84  1  0.72690059  0.88015885  0.12893168  1
  Zn  Zn85  1  -0.00023833  0.62744959  0.63069261  1
  Zn  Zn86  1  -0.01841885  0.49836849  -0.00207314  1
  Zn  Zn87  1  0.37391419  0.00260279  0.37403393  1
  Zn  Zn88  1  0.20660672  0.55891675  0.81067013  1
  Zn  Zn89  1  0.54673661  0.81780375  0.20424838  1
  Zn  Zn90  1  0.15227972  0.65266458  -0.04377226  1
  Zn  Zn91  1  0.84868124  0.23064766  0.13575344  1
  Zn  Zn92  1  -0.01492327  0.38162533  0.88349056  1
  Zn  Zn93  1  0.76064042  0.12972157  0.37238340  1
  Zn  Zn94  1  0.18761780  0.18368031  0.18921830  1
  Zn  Zn95  1  0.19038115  0.19548052  0.68991559  1
  Zn  Zn96  1  0.19106796  0.68418129  0.18580286  1
  Zn  Zn97  1  0.19391774  0.68328468  0.68641538  1
  Zn  Zn98  1  0.68316022  0.18560195  0.20160159  1
  Zn  Zn99  1  0.68756477  0.18460297  0.69073844  1
  Zn  Zn100  1  0.69485036  0.69390147  0.19112125  1
  Zn  Zn101  1  0.69475393  0.68826678  0.68931496  1
  Zn  Zn102  1  0.31713683  0.31217327  0.31124880  1
  Zn  Zn103  1  0.29216151  0.35640201  0.83763070  1
  Zn  Zn104  1  0.18744075  0.82818161  0.29718551  1
  Zn  Zn105  1  0.31658299  0.80747746  0.80612786  1
  Zn  Zn106  1  0.80156987  0.31303832  0.29286306  1
  Zn  Zn107  1  0.81650404  0.31218553  0.81506933  1
  Zn  Zn108  1  0.81051246  0.82401035  0.31934262  1
  Zn  Zn109  1  0.81241641  0.81506443  0.81320541  1
  Zn  Zn110  1  0.19098699  0.43457730  0.43902726  1
  Zn  Zn111  1  0.15318731  0.48126555  0.93044943  1
  Zn  Zn112  1  0.17819926  0.94318451  0.44389629  1
  Zn  Zn113  1  0.18014742  0.82628730  0.93614274  1
  Zn  Zn114  1  0.68564235  0.44343744  0.42595350  1
  Zn  Zn115  1  0.78869265  0.44425912  0.93210225  1
  Zn  Zn116  1  0.68956848  0.94241901  0.43386575  1
  Zn  Zn117  1  0.68362796  0.93515050  0.93559070  1
  Zn  Zn118  1  0.31317442  0.05289439  0.05720984  1
  Zn  Zn119  1  0.27993553  0.04836534  0.54439633  1
  Zn  Zn120  1  0.30535926  0.56269107  0.04947324  1
  Zn  Zn121  1  0.30758939  0.56228436  0.55955468  1
  Zn  Zn122  1  0.80959432  0.05623875  0.06904010  1
  Zn  Zn123  1  0.81752459  0.06980023  0.56131880  1
  Zn  Zn124  1  0.80337583  0.56038145  0.06479169  1
  Zn  Zn125  1  0.81905308  0.57102504  0.54823355  1
  Zn  Zn126  1  0.43871807  0.43990552  0.19031277  1
  Zn  Zn127  1  0.44483548  0.43408388  0.68519954  1
  Zn  Zn128  1  0.36983604  0.89911800  0.22935484  1
  Zn  Zn129  1  0.43546409  0.93448275  0.68500421  1
  Zn  Zn130  1  0.93788676  0.42945488  0.20004624  1
  Zn  Zn131  1  0.94058712  0.45220677  0.69530991  1
  Zn  Zn132  1  0.94175012  0.94000658  0.18971401  1
  Zn  Zn133  1  0.93440010  0.93974855  0.69076989  1
  Zn  Zn134  1  0.06725817  0.05969116  0.32000609  1
  Zn  Zn135  1  0.06416683  0.05898180  0.81342496  1
  Zn  Zn136  1  0.05058306  0.55600932  0.31076861  1
  Zn  Zn137  1  0.01784208  0.57280610  0.81968704  1
  Zn  Zn138  1  0.55308436  0.06349699  0.31031582  1
  Zn  Zn139  1  0.56592125  0.06323385  0.81463128  1
  Zn  Zn140  1  0.55666917  0.57268722  0.31745849  1
  Zn  Zn141  1  0.62757530  0.52828446  0.85048271  1
  Zn  Zn142  1  0.43862839  0.18602742  0.43754299  1
  Zn  Zn143  1  0.44129090  0.18815100  0.93966636  1
  Zn  Zn144  1  0.43170771  0.68639571  0.43236359  1
  Zn  Zn145  1  0.44460906  0.68145840  0.92773685  1
  Zn  Zn146  1  0.93945252  0.19650438  0.44098996  1
  Zn  Zn147  1  0.93598081  0.18637900  0.94628876  1
  Zn  Zn148  1  0.94220501  0.69309957  0.44776080  1
  Zn  Zn149  1  0.93960834  0.68006398  0.94391276  1
  Zn  Zn150  1  0.06047808  0.31438465  0.06591958  1
  Zn  Zn151  1  0.05673402  0.31588717  0.56332058  1
  Zn  Zn152  1  0.05822029  0.80535319  0.06801372  1
  Zn  Zn153  1  0.06364860  0.81013476  0.56018930  1
  Zn  Zn154  1  0.57522954  0.31709986  0.06069498  1
  Zn  Zn155  1  0.62189230  0.32923164  0.54456133  1
  Zn  Zn156  1  0.55847090  0.81177091  0.04419031  1
  Zn  Zn157  1  0.56266943  0.81510893  0.55985330  1
  O  O158  1  0.12303838  0.11277676  0.12066209  1
  O  O159  1  0.10986762  0.13272193  0.63641749  1
  O  O160  1  0.12610209  0.60546759  0.12506559  1
  O  O161  1  0.12597924  0.60745076  0.62540214  1
  O  O162  1  0.63021335  0.13484149  0.10951254  1
  O  O163  1  0.61387203  0.13250278  0.61592506  1
  O  O164  1  0.61710099  0.64169715  0.12145888  1
  O  O165  1  0.63007182  0.61069865  0.62874955  1
  O  O166  1  0.38937241  0.38626129  0.36964422  1
  O  O167  1  0.38997470  0.37283229  0.89116835  1
  O  O168  1  0.38068248  0.87520417  0.39063902  1
  O  O169  1  0.38621134  0.88347499  0.86267722  1
  O  O170  1  0.87141739  0.36850606  0.37071115  1
  O  O171  1  0.87117686  0.36568451  0.89645520  1
  O  O172  1  0.88633279  0.88754076  0.38552383  1
  O  O173  1  0.88201199  0.88987376  0.87180247  1
  O  O174  1  0.25146395  0.01739326  0.37672705  1
  O  O175  1  0.26524496  0.00942744  0.86173847  1
  O  O176  1  0.26305728  0.48844314  0.36587953  1
  O  O177  1  0.21616996  0.44667291  0.83919899  1
  O  O178  1  0.76473304  -0.00244683  0.36525520  1
  O  O179  1  0.75651072  0.00746710  0.87316559  1
  O  O180  1  0.74108978  0.52615880  0.37170002  1
  O  O181  1  0.74190919  0.52522591  0.87319493  1
  O  O182  1  0.23768043  0.48835433  0.13468940  1
  O  O183  1  0.24817410  0.48179391  0.61795440  1
  O  O184  1  0.23759242  0.99428937  0.11935460  1
  O  O185  1  0.26705045  0.98668124  0.64011721  1
  O  O186  1  0.74040124  0.51838379  0.15112205  1
  O  O187  1  0.73927139  0.49889660  0.61160406  1
  O  O188  1  0.74796594  0.99686939  0.14138712  1
  O  O189  1  0.75775244  1.00940551  0.64290387  1
  O  O190  1  0.01559208  0.35544682  0.24773431  1
  O  O191  1  0.01110362  0.36502423  0.75562936  1
  O  O192  1  -0.00179203  0.87304861  0.26611457  1
  O  O193  1  -0.00135138  0.87917680  0.76342450  1
  O  O194  1  0.50312444  0.36635441  0.25535754  1
  O  O195  1  0.50470748  0.36619261  0.75875386  1
  O  O196  1  0.47715492  0.87529633  0.27111907  1
  O  O197  1  0.50807504  0.86986751  0.75222299  1
  O  O198  1  0.48795045  0.13918955  0.24993938  1
  O  O199  1  0.49855900  0.13026173  0.74471162  1
  O  O200  1  0.48463990  0.62195268  0.24319052  1
  O  O201  1  0.49189014  0.64029498  0.74474832  1
  O  O202  1  1.01530780  0.13153705  0.24308804  1
  O  O203  1  0.99124901  0.13212569  0.75131371  1
  O  O204  1  1.00374164  0.62899459  0.23597236  1
  O  O205  1  0.97363679  0.56342407  0.71862926  1
  O  O206  1  0.36798068  0.25706995  -0.00159509  1
  O  O207  1  0.37450790  0.24912189  0.51184091  1
  O  O208  1  0.37502778  0.73620611  0.00186636  1
  O  O209  1  0.36372755  0.75282901  0.50224382  1
  O  O210  1  0.87266832  0.24523088  0.01938095  1
  O  O211  1  0.87444303  0.24519439  0.52097371  1
  O  O212  1  0.85928582  0.74559535  0.00285617  1
  O  O213  1  0.86662324  0.76613227  0.50457236  1
  O  O214  1  0.13460067  0.25230238  0.48708314  1
  O  O215  1  0.13076906  0.23769107  0.99849376  1
  O  O216  1  0.13823618  0.73881720  0.50567347  1
  O  O217  1  0.12343737  0.74940383  0.99790859  1
  O  O218  1  0.61132290  0.23472145  0.48715089  1
  O  O219  1  0.61758256  0.23747594  0.98839781  1
  O  O220  1  0.63811920  0.75439789  0.49722532  1
  O  O221  1  0.62421363  0.73683002  0.98546734  1
  O  O222  1  0.50099058  0.25687103  0.13298493  1
  O  O223  1  0.49512254  0.24146237  0.63681142  1
  O  O224  1  0.48125788  0.75663234  0.11883545  1
  O  O225  1  0.49077987  0.75689405  0.62801462  1
  O  O226  1  1.01162667  0.23619382  0.14085158  1
  O  O227  1  0.99307055  0.24333537  0.63856581  1
  O  O228  1  0.98270732  0.73916745  0.12644836  1
  O  O229  1  0.99121169  0.75102271  0.62844889  1
  O  O230  1  0.02047244  0.23441848  0.36603061  1
  O  O231  1  0.00565847  0.24072993  0.86882164  1
  O  O232  1  -0.00490996  0.76745296  0.37675489  1
  O  O233  1  -0.01476042  0.76779181  0.88295984  1
  O  O234  1  0.49959832  0.26486347  0.37605400  1
  O  O235  1  0.50887263  0.25553999  0.86790547  1
  O  O236  1  0.51212128  0.75872638  0.38736981  1
  O  O237  1  0.50712834  0.75873983  0.86155842  1
  O  O238  1  0.26306960  0.14231003  0.48104735  1
  O  O239  1  0.24703665  0.13090960  0.99523401  1
  O  O240  1  0.24318590  0.63876793  0.49771304  1
  O  O241  1  0.22789112  0.56971126  0.96933043  1
  O  O242  1  0.73415343  0.11500322  0.49430663  1
  O  O243  1  0.73673820  0.11589676  0.99229578  1
  O  O244  1  0.74705463  0.64298995  0.48815570  1
  O  O245  1  0.73348838  0.64143217  1.01082020  1
  O  O246  1  0.26219046  0.36752096  0.00917331  1
  O  O247  1  0.25017930  0.36121646  0.50913451  1
  O  O248  1  0.24896493  0.87788852  0.01187804  1
  O  O249  1  0.25455852  0.86378572  0.50818757  1
  O  O250  1  0.76524432  0.36411531  0.01241351  1
  O  O251  1  0.71864413  0.36553545  0.49736891  1
  O  O252  1  0.73750955  0.85877067  0.00652515  1
  O  O253  1  0.76124423  0.86805398  0.49253890  1
  O  O254  1  0.13105038  0.48873346  0.24875843  1
  O  O255  1  0.12489945  0.48607798  0.72818514  1
  O  O256  1  0.12528470  1.00038057  0.23736709  1
  O  O257  1  0.13940871  1.00121723  0.74510615  1
  O  O258  1  0.60694408  0.49334796  0.25144941  1
  O  O259  1  0.62724428  0.48699887  0.73917147  1
  O  O260  1  0.62611257  0.99284826  0.25878853  1
  O  O261  1  0.63871819  0.99741933  0.75399504  1
  O  O262  1  0.38067472  0.01598263  0.25464177  1
  O  O263  1  0.37419924  0.01041497  0.75490024  1
  O  O264  1  0.36885818  0.50484891  0.25420301  1
  O  O265  1  0.39071362  0.51137269  0.74662488  1
  O  O266  1  0.88040304  0.00400097  0.26397781  1
  O  O267  1  0.86528492  0.00880514  0.76103383  1
  O  O268  1  0.86102032  0.49686040  0.25113441  1
  O  O269  1  0.84694020  0.48027097  0.75999916  1
  O  O270  1  0.13537911  0.36007017  0.36717828  1
  O  O271  1  0.11556431  0.35286919  0.87628084  1
  O  O272  1  0.11512259  0.88158364  0.37562094  1
  O  O273  1  0.10451307  0.88242558  0.87088185  1
  O  O274  1  0.60800734  0.37012428  0.36419418  1
  O  O275  1  0.61927981  0.36498213  0.86019339  1
  O  O276  1  0.61437790  0.86508993  0.38249314  1
  O  O277  1  0.61799575  0.86673229  0.86180940  1
  O  O278  1  0.36638476  0.12017910  0.13596232  1
  O  O279  1  0.38561934  0.13394710  0.63508936  1
  O  O280  1  0.36355663  0.63228507  0.12646868  1
  O  O281  1  0.37215443  0.63582692  0.62559740  1
  O  O282  1  0.89272702  0.11979021  0.12528666  1
  O  O283  1  0.88458534  0.13299374  0.63734684  1
  O  O284  1  0.87736183  0.63128345  0.13039012  1
  O  O285  1  0.87741485  0.64833904  0.60826263  1
  O  O286  1  0.24279081  0.25863223  0.11575462  1
  O  O287  1  0.26055855  0.24962981  0.61435250  1
  O  O288  1  0.25453966  0.75187468  0.11409224  1
  O  O289  1  0.25957070  0.75926734  0.62211640  1
  O  O290  1  0.76122800  0.26455036  0.19269339  1
  O  O291  1  0.76685000  0.24382205  0.63581880  1
  O  O292  1  0.76378310  0.75462521  0.12019903  1
  O  O293  1  0.75637740  0.75219352  0.60972479  1
  O  O294  1  0.24729420  0.24803002  0.38031363  1
  O  O295  1  0.24255309  0.24932928  0.88823152  1
  O  O296  1  0.24469251  0.76128459  0.38648313  1
  O  O297  1  0.21937390  0.75432644  0.84233734  1
  O  O298  1  0.72931151  0.24603128  0.36454813  1
  O  O299  1  0.73971314  0.23691617  0.86810526  1
  O  O300  1  0.73945618  0.74891221  0.38158294  1
  O  O301  1  0.74419250  0.75639358  0.88687633  1
  O  O302  1  0.00987941  0.11852312  0.01069849  1
  O  O303  1  0.00022694  0.13329688  0.51922069  1
  O  O304  1  -0.00422694  0.61688969  0.02477589  1
  O  O305  1  0.02009294  0.63331059  0.50894486  1
  O  O306  1  0.51175661  0.11461538  -0.00449104  1
  O  O307  1  0.50279391  0.11688287  0.50774278  1
  O  O308  1  0.50909298  0.61571000  -0.00223174  1
  O  O309  1  0.50245681  0.61450473  0.49521164  1
  O  O310  1  0.50745272  0.38618945  0.48830909  1
  O  O311  1  0.50143847  0.38505999  0.99719897  1
  O  O312  1  0.49198351  0.88267643  0.49653170  1
  O  O313  1  0.50758759  0.89068836  0.97866087  1
  O  O314  1  0.99261318  0.36225016  0.48294692  1
  O  O315  1  0.98152433  0.36949097  1.00586222  1
  O  O316  1  0.99190941  0.87461992  0.49196310  1
  O  O317  1  1.00331171  0.88858062  0.99208603  1
  O  O318  1  0.49477225  0.49355779  0.38447016  1
  O  O319  1  0.52118416  0.48730288  0.88470104  1
  O  O320  1  0.49483006  0.99236665  0.38735552  1
  O  O321  1  0.49292729  0.99297141  0.86823213  1
  O  O322  1  0.98804301  0.48819830  0.37445426  1
  O  O323  1  1.03254397  0.48656817  0.89479389  1
  O  O324  1  0.99230790  0.99161363  0.37632403  1
  O  O325  1  0.99074010  1.00007488  0.88340343  1
  O  O326  1  0.01185854  0.00274446  0.11970849  1
  O  O327  1  -0.00152100  0.01789443  0.63394600  1
  O  O328  1  0.00535417  0.50887648  0.14274983  1
  O  O329  1  0.02336453  0.47722073  0.60273608  1
  O  O330  1  0.49440135  -0.00772313  0.10534247  1
  O  O331  1  0.49309461  0.01043012  0.61696405  1
  O  O332  1  0.50474967  0.49772413  0.11374523  1
  O  O333  1  0.50424464  0.49699378  0.60979301  1
  O  O334  1  0.24809952  0.37961550  0.24360080  1
  O  O335  1  0.24075203  0.34875153  0.73325632  1
  O  O336  1  0.25731130  0.87800454  0.22421858  1
  O  O337  1  0.25506939  0.88530487  0.74167064  1
  O  O338  1  0.72759865  0.40580807  0.27058264  1
  O  O339  1  0.73465343  0.36353323  0.75073471  1
  O  O340  1  0.75093649  0.89116394  0.25095735  1
  O  O341  1  0.74432243  0.89161950  0.75487772  1
  O  O342  1  0.26656215  0.13685581  0.26031535  1
  O  O343  1  0.26036235  0.12256562  0.75227309  1
  O  O344  1  0.25825910  0.60838973  0.24535746  1
  O  O345  1  0.27140747  0.61612106  0.73888309  1
  O  O346  1  0.74128480  0.10353092  0.25935082  1
  O  O347  1  0.75611155  0.11568712  0.76174321  1
  O  O348  1  0.74779198  0.62466329  0.26611331  1
  O  O349  1  0.76788055  0.62833669  0.74994975  1
  O  O350  1  0.36813115  0.12748025  0.36660561  1
  O  O351  1  0.37549550  0.12149489  0.86447136  1
  O  O352  1  0.37908512  0.61431259  0.35811758  1
  O  O353  1  0.37737155  0.62585633  0.85598713  1
  O  O354  1  0.87853706  0.11110867  0.38825926  1
  O  O355  1  0.86753314  0.12009559  0.87131104  1
  O  O356  1  0.86317114  0.63729897  0.38208726  1
  O  O357  1  0.89611837  0.60678177  0.86569815  1
  O  O358  1  0.13441686  0.37367889  0.14140078  1
  O  O359  1  0.13619114  0.37618144  0.62888931  1
  O  O360  1  0.13068771  0.88430492  0.12130588  1
  O  O361  1  0.13547068  0.87299663  0.63097357  1
  O  O362  1  0.62468863  0.37397751  0.14520901  1
  O  O363  1  0.61675385  0.38585720  0.63998515  1
  O  O364  1  0.61761433  0.85354800  0.12803624  1
  O  O365  1  0.62268721  0.87784720  0.63611630  1
  O  O366  1  0.12752030  0.25383113  0.26155752  1
  O  O367  1  0.11925806  0.25479852  0.76209139  1
  O  O368  1  0.12606477  0.75366779  0.24054944  1
  O  O369  1  0.16166231  0.75494854  0.77589740  1
  O  O370  1  0.60279452  0.25262371  0.26057473  1
  O  O371  1  0.61627712  0.25499546  0.75451281  1
  O  O372  1  0.62277597  0.75021201  0.26639880  1
  O  O373  1  0.62303080  0.75946209  0.74883145  1
  O  O374  1  0.38689565  0.24518398  0.24816746  1
  O  O375  1  0.38656093  0.23965070  0.74625001  1
  O  O376  1  0.37213012  0.73367501  0.23784062  1
  O  O377  1  0.38486112  0.74488366  0.73801922  1
  O  O378  1  0.90170624  0.24389066  0.26169193  1
  O  O379  1  0.88392878  0.24163953  0.74951554  1
  O  O380  1  0.87219474  0.75782937  0.24292638  1
  O  O381  1  0.86517722  0.76136138  0.72907540  1
  O  O382  1  0.38580018  0.50780821  0.49066872  1
  O  O383  1  0.39350459  0.49208515  1.00264012  1
  O  O384  1  0.37878004  0.99085122  0.50026581  1
  O  O385  1  0.39013684  1.00938559  0.98356048  1
  O  O386  1  0.86985554  0.47978151  0.50049779  1
  O  O387  1  0.86786241  0.48260708  1.01491392  1
  O  O388  1  0.86995224  0.98903032  0.49650665  1
  O  O389  1  0.88427598  1.00903862  0.99286264  1
  O  O390  1  0.11670254  0.01274020  0.00590977  1
  O  O391  1  0.16719264  0.01604848  0.52342809  1
  O  O392  1  0.10766045  0.47236482  0.03425056  1
  O  O393  1  0.14167838  0.51416963  0.50619650  1
  O  O394  1  0.61467608  0.01229471  -0.00582417  1
  O  O395  1  0.61082567  0.00686099  0.49428582  1
  O  O396  1  0.61890063  0.52264435  0.00383935  1
  O  O397  1  0.61423288  0.50478797  0.51158702  1
  O  O398  1  0.36535635  0.38152881  0.11789998  1
  O  O399  1  0.36944605  0.36078634  0.63513003  1
  O  O400  1  0.36187722  0.85500864  0.11787351  1
  O  O401  1  0.36953918  0.86458465  0.61434938  1
  O  O402  1  0.88094219  0.35864198  0.12984157  1
  O  O403  1  0.87986012  0.36143685  0.63550757  1
  O  O404  1  0.88146157  0.86476121  0.12551021  1
  O  O405  1  0.88331445  0.87042538  0.61094984  1
  O  O406  1  0.14502961  0.13654895  0.36673056  1
  O  O407  1  0.13212551  0.13009160  0.88264746  1
  O  O408  1  0.11817731  0.61800056  0.38637103  1
  O  O409  1  0.11791307  0.61604840  0.85233369  1
  O  O410  1  0.61478279  0.13300024  0.38306248  1
  O  O411  1  0.63131949  0.13350062  0.87950228  1
  O  O412  1  0.62486435  0.64361724  0.38189478  1
  O  O413  1  0.62134929  0.64218368  0.86195861  1
