# generated using pymatgen
data_V79Zn79O256
_symmetry_space_group_name_H-M   'P 1'
_cell_length_a   16.86402844
_cell_length_b   16.87003529
_cell_length_c   16.87121565
_cell_angle_alpha   89.92307963
_cell_angle_beta   89.94952591
_cell_angle_gamma   90.04638877
_symmetry_Int_Tables_number   1
_chemical_formula_structural   V79Zn79O256
_chemical_formula_sum   'V79 Zn79 O256'
_cell_volume   4799.79833764
_cell_formula_units_Z   1
loop_
 _symmetry_equiv_pos_site_id
 _symmetry_equiv_pos_as_xyz
  1  'x, y, z'
loop_
 _atom_site_type_symbol
 _atom_site_label
 _atom_site_symmetry_multiplicity
 _atom_site_fract_x
 _atom_site_fract_y
 _atom_site_fract_z
 _atom_site_occupancy
  V  V0  1  0.50905071  0.75188763  0.75606494  1
  V  V1  1  -0.00525560  0.87342194  0.88010538  1
  V  V2  1  0.24220560  0.24615391  0.50360089  1
  V  V3  1  0.11921959  0.86245507  0.26018665  1
  V  V4  1  0.26188473  0.01103801  0.25164114  1
  V  V5  1  0.88528434  0.63234689  0.24793409  1
  V  V6  1  0.87844428  0.13051032  0.73501833  1
  V  V7  1  0.87340954  0.24941131  0.12850322  1
  V  V8  1  0.88377518  -0.02395258  0.37895073  1
  V  V9  1  0.74867213  0.62319281  0.37265053  1
  V  V10  1  0.12483488  0.38685582  0.25099328  1
  V  V11  1  -0.00044414  0.74485301  0.74908943  1
  V  V12  1  0.49908858  0.62672307  0.62139144  1
  V  V13  1  0.13158559  0.88107786  0.75076555  1
  V  V14  1  0.36958769  -0.00118297  0.87102384  1
  V  V15  1  0.63636293  0.86415064  0.25249868  1
  V  V16  1  0.62264357  0.62834477  0.49319071  1
  V  V17  1  0.61963597  0.26166516  0.86865212  1
  V  V18  1  0.25334521  0.88237171  0.12463535  1
  V  V19  1  0.24935080  0.38491738  0.62140719  1
  V  V20  1  0.11970450  0.24325879  0.38084485  1
  V  V21  1  0.88816299  0.74891405  0.11324371  1
  V  V22  1  0.75860822  0.24060528  0.50344415  1
  V  V23  1  0.38373156  0.38371506  -0.00066070  1
  V  V24  1  0.87685003  0.74835829  0.62331983  1
  V  V25  1  0.74448846  0.87406895  0.62904586  1
  V  V26  1  0.37970794  0.23763222  0.12908816  1
  V  V27  1  0.61685475  0.12182746  -0.00143603  1
  V  V28  1  0.12231947  0.13057927  -0.00424160  1
  V  V29  1  0.37059009  0.87342985  -0.00513457  1
  V  V30  1  0.74457945  0.49568740  0.75217485  1
  V  V31  1  0.75752493  0.86536415  0.10365536  1
  V  V32  1  0.12788191  0.37865388  0.76164705  1
  V  V33  1  0.49854168  0.23098465  0.24883929  1
  V  V34  1  0.25039824  0.87786970  0.62071977  1
  V  V35  1  0.24432233  0.60649643  0.86202660  1
  V  V36  1  0.35914248  0.49466686  0.37164256  1
  V  V37  1  0.38060604  0.75272033  0.12776672  1
  V  V38  1  0.60842279  0.11998292  0.50972988  1
  V  V39  1  0.37998518  0.12556637  0.74635025  1
  V  V40  1  0.13314899  0.74861265  0.87549441  1
  V  V41  1  0.38157509  0.89379948  0.50106946  1
  V  V42  1  0.12353534  0.00328902  0.13186788  1
  V  V43  1  0.12021185  0.00534435  0.61941978  1
  V  V44  1  0.62808509  -0.00197824  0.12462585  1
  V  V45  1  0.62927491  0.24362478  0.37602150  1
  V  V46  1  0.23445847  0.71651300  0.02205235  1
  V  V47  1  -0.00750909  0.12492222  0.13066876  1
  V  V48  1  0.62065929  0.50223956  0.11223309  1
  V  V49  1  0.74903936  0.37640744  0.12613763  1
  V  V50  1  0.75208977  0.12457071  0.87444196  1
  V  V51  1  0.74420630  -0.00245793  0.74346154  1
  V  V52  1  0.00570977  0.25819884  0.75895410  1
  V  V53  1  0.88561680  0.50116150  0.87501752  1
  V  V54  1  0.75019721  0.25017928  0.00077338  1
  V  V55  1  0.01195859  0.51227470  0.01773343  1
  V  V56  1  0.74793189  0.75679541  0.49346715  1
  V  V57  1  0.25441439  0.12598465  0.37399699  1
  V  V58  1  0.11999627  0.63584020  0.49887230  1
  V  V59  1  0.37013593  0.61957803  0.25311314  1
  V  V60  1  0.50128027  0.62018884  0.11053400  1
  V  V61  1  0.37882761  0.25084699  0.62096146  1
  V  V62  1  0.39037129  0.49195845  0.86252513  1
  V  V63  1  0.24508640  0.38312208  0.13249338  1
  V  V64  1  0.75232655  0.50227200  0.25216605  1
  V  V65  1  0.62579571  0.49303131  0.62699859  1
  V  V66  1  0.61667546  0.37697400  0.25185737  1
  V  V67  1  0.24683278  0.12513744  0.87081727  1
  V  V68  1  0.10102842  0.50365307  0.61948716  1
  V  V69  1  -0.00707392  0.38663708  0.38111057  1
  V  V70  1  -0.00757404  -0.00446962  0.00188890  1
  V  V71  1  0.87170191  0.39296105  0.50326842  1
  V  V72  1  0.73661606  0.63137412  0.88815910  1
  V  V73  1  0.49559803  0.49388245  0.49227109  1
  V  V74  1  0.50844402  0.87984885  0.37891782  1
  V  V75  1  0.37101938  0.75329777  0.62036812  1
  V  V76  1  0.88367141  0.37658951  -0.00160135  1
  V  V77  1  -0.00555062  0.24825990  0.25338669  1
  V  V78  1  0.24777866  0.25093907  -0.00184708  1
  Zn  Zn79  1  0.00315169  0.01760044  0.49347708  1
  Zn  Zn80  1  0.50243012  0.26172260  0.75158688  1
  Zn  Zn81  1  0.75398296  0.37056514  0.63116924  1
  Zn  Zn82  1  0.49364445  0.36946761  0.37853574  1
  Zn  Zn83  1  0.49822685  0.00118042  -0.00277807  1
  Zn  Zn84  1  0.40436822  0.02015489  0.36988587  1
  Zn  Zn85  1  0.87441255  -0.00444706  0.87380885  1
  Zn  Zn86  1  0.50685140  0.87111802  0.87193166  1
  Zn  Zn87  1  0.50806392  0.74453824  0.26036485  1
  Zn  Zn88  1  0.79487927  0.08768494  0.30726030  1
  Zn  Zn89  1  0.87495063  0.62327114  0.74988527  1
  Zn  Zn90  1  0.00411964  0.14292491  0.61341778  1
  Zn  Zn91  1  0.60224126  -0.00355127  0.62138358  1
  Zn  Zn92  1  0.23625026  0.65929812  0.37959148  1
  Zn  Zn93  1  0.37075827  0.61550197  0.73865064  1
  Zn  Zn94  1  0.18439363  0.19380560  0.18930648  1
  Zn  Zn95  1  0.18529387  0.19186103  0.69095385  1
  Zn  Zn96  1  0.19090654  0.68534180  0.19302071  1
  Zn  Zn97  1  0.18674030  0.68716247  0.68229951  1
  Zn  Zn98  1  0.68437574  0.18749482  0.18496668  1
  Zn  Zn99  1  0.68932710  0.18840874  0.68482980  1
  Zn  Zn100  1  0.69084992  0.68655514  0.17696632  1
  Zn  Zn101  1  0.68988308  0.68049998  0.69074070  1
  Zn  Zn102  1  0.31284631  0.31021729  0.31299351  1
  Zn  Zn103  1  0.30987599  0.31387403  0.80968902  1
  Zn  Zn104  1  0.31538026  0.82872483  0.31225044  1
  Zn  Zn105  1  0.31487229  0.80664267  0.80435441  1
  Zn  Zn106  1  0.81092842  0.31416404  0.31696934  1
  Zn  Zn107  1  0.81414735  0.31184534  0.81458167  1
  Zn  Zn108  1  0.81510930  0.81046776  0.30807970  1
  Zn  Zn109  1  0.80934617  0.81026353  0.81342907  1
  Zn  Zn110  1  0.17969622  0.43519780  0.44336263  1
  Zn  Zn111  1  0.18991729  0.43728913  0.94515995  1
  Zn  Zn112  1  0.19087516  0.93688025  0.43817355  1
  Zn  Zn113  1  0.18204337  0.94183548  0.93798808  1
  Zn  Zn114  1  0.68597314  0.43603468  0.43782544  1
  Zn  Zn115  1  0.69378375  0.44055195  0.93515815  1
  Zn  Zn116  1  0.69012548  0.94295820  0.43647340  1
  Zn  Zn117  1  0.69318978  0.93693165  0.93672237  1
  Zn  Zn118  1  0.31256397  0.06167066  0.05704557  1
  Zn  Zn119  1  0.30519305  0.06349318  0.56482252  1
  Zn  Zn120  1  0.30535959  0.56429937  0.06350398  1
  Zn  Zn121  1  0.30984506  0.56746179  0.55240751  1
  Zn  Zn122  1  0.80821766  0.05907562  0.06575184  1
  Zn  Zn123  1  0.81573836  0.05439573  0.54741068  1
  Zn  Zn124  1  0.81522467  0.56483748  0.06355576  1
  Zn  Zn125  1  0.81139454  0.56650890  0.56558675  1
  Zn  Zn126  1  0.43311546  0.43675701  0.18512411  1
  Zn  Zn127  1  0.44061678  0.43122151  0.68306109  1
  Zn  Zn128  1  0.44907529  0.93958282  0.19053543  1
  Zn  Zn129  1  0.43880205  0.93593248  0.69294660  1
  Zn  Zn130  1  0.93766614  0.43994173  0.19055883  1
  Zn  Zn131  1  0.93490978  0.43085490  0.69090928  1
  Zn  Zn132  1  0.93157707  0.93293166  0.19781913  1
  Zn  Zn133  1  0.93440987  0.93454657  0.68720679  1
  Zn  Zn134  1  0.05623421  0.05834583  0.31785108  1
  Zn  Zn135  1  0.05913235  0.06210349  0.81063901  1
  Zn  Zn136  1  0.06552681  0.56803246  0.31975447  1
  Zn  Zn137  1  0.06490152  0.55867932  0.81122273  1
  Zn  Zn138  1  0.59657000  0.06269298  0.30709229  1
  Zn  Zn139  1  0.55725674  0.06321911  0.80891031  1
  Zn  Zn140  1  0.56009973  0.56645565  0.30690852  1
  Zn  Zn141  1  0.56320274  0.56398288  0.81142050  1
  Zn  Zn142  1  0.43727110  0.19147856  0.43968119  1
  Zn  Zn143  1  0.43502636  0.19253429  0.93685986  1
  Zn  Zn144  1  0.40411746  0.71093814  0.41930144  1
  Zn  Zn145  1  0.42281286  0.68078985  0.93431510  1
  Zn  Zn146  1  0.93143121  0.18126405  0.43703116  1
  Zn  Zn147  1  0.93636401  0.18656015  0.93773987  1
  Zn  Zn148  1  0.93127907  0.67502885  0.44379766  1
  Zn  Zn149  1  0.94020558  0.68280505  0.93724817  1
  Zn  Zn150  1  0.06248889  0.31562461  0.06363346  1
  Zn  Zn151  1  0.05684405  0.31504223  0.56764884  1
  Zn  Zn152  1  0.06536579  0.81289656  0.06718014  1
  Zn  Zn153  1  0.06645712  0.80975694  0.56659393  1
  Zn  Zn154  1  0.56279313  0.31072031  0.06168187  1
  Zn  Zn155  1  0.56512506  0.31052044  0.56346887  1
  Zn  Zn156  1  0.56311526  0.81332435  0.05751768  1
  Zn  Zn157  1  0.56181906  0.81371620  0.56296399  1
  O  O158  1  0.11636225  0.12060773  0.11837654  1
  O  O159  1  0.12507741  0.10762999  0.63751293  1
  O  O160  1  0.20580730  0.63932855  0.09094232  1
  O  O161  1  0.12893879  0.60796061  0.62117833  1
  O  O162  1  0.63258698  0.10672330  0.11195938  1
  O  O163  1  0.62572604  0.12825300  0.61233462  1
  O  O164  1  0.60994817  0.61930142  0.12510523  1
  O  O165  1  0.61818765  0.61581371  0.61454992  1
  O  O166  1  0.37814009  0.38908609  0.36738191  1
  O  O167  1  0.36576731  0.38244106  0.88705379  1
  O  O168  1  0.39220828  0.89389004  0.38228198  1
  O  O169  1  0.36301558  0.88318507  0.87950490  1
  O  O170  1  0.88592477  0.37533848  0.38127030  1
  O  O171  1  0.86741843  0.38833494  0.88747116  1
  O  O172  1  0.87912097  0.87432613  0.37313551  1
  O  O173  1  0.89115169  0.87334063  0.87027612  1
  O  O174  1  0.24704181  0.01351815  0.36629688  1
  O  O175  1  0.25740367  0.01282154  0.88305425  1
  O  O176  1  0.25994953  0.49283503  0.37969146  1
  O  O177  1  0.24800638  0.50506380  0.86871635  1
  O  O178  1  0.77400690  -0.00325413  0.38723601  1
  O  O179  1  0.75190438  0.00562585  0.86312699  1
  O  O180  1  0.74218000  0.50959896  0.36360525  1
  O  O181  1  0.75827923  0.50767707  0.86923609  1
  O  O182  1  0.25415047  0.48131644  0.12571643  1
  O  O183  1  0.25825720  0.48484953  0.62085243  1
  O  O184  1  0.24401808  1.00204997  0.13143918  1
  O  O185  1  0.23597275  0.98983665  0.62579253  1
  O  O186  1  0.74024903  0.49733899  0.13236554  1
  O  O187  1  0.74205521  0.50221688  0.63343381  1
  O  O188  1  0.74036660  0.98181494  0.11701993  1
  O  O189  1  0.75554066  0.99356562  0.63474812  1
  O  O190  1  0.00319975  0.36895535  0.26010915  1
  O  O191  1  0.00855168  0.36626903  0.75404295  1
  O  O192  1  0.02128525  0.87947275  0.24497414  1
  O  O193  1  0.00864979  0.86523004  0.76002915  1
  O  O194  1  0.50945312  0.37258201  0.24833307  1
  O  O195  1  0.51256599  0.37097803  0.73887073  1
  O  O196  1  0.51177853  0.86792593  0.25682640  1
  O  O197  1  0.49903546  0.85784503  0.75415014  1
  O  O198  1  0.50990846  0.13283879  0.25277066  1
  O  O199  1  0.48241257  0.13841290  0.75821543  1
  O  O200  1  0.48892270  0.63060740  0.24122795  1
  O  O201  1  0.49620231  0.62672423  0.73340293  1
  O  O202  1  1.00908972  0.13516842  0.23867005  1
  O  O203  1  0.98858425  0.13015474  0.74713430  1
  O  O204  1  0.98332378  0.61873433  0.25720003  1
  O  O205  1  1.00079280  0.64110465  0.75753615  1
  O  O206  1  0.36883181  0.25937926  0.00954977  1
  O  O207  1  0.36263319  0.24568921  0.51438619  1
  O  O208  1  0.35486382  0.75263486  0.00955222  1
  O  O209  1  0.39250290  0.77268623  0.51811997  1
  O  O210  1  0.87100179  0.25701921  0.00598873  1
  O  O211  1  0.86019413  0.25595111  0.49339771  1
  O  O212  1  0.88010157  0.74403881  0.01328903  1
  O  O213  1  0.85949628  0.74254995  0.51286430  1
  O  O214  1  0.12982855  0.25789708  0.49166196  1
  O  O215  1  0.13272209  0.24038128  1.00813742  1
  O  O216  1  0.13389373  0.73438664  0.51792454  1
  O  O217  1  0.13705851  0.75475051  0.99343603  1
  O  O218  1  0.63049037  0.24494785  0.49363877  1
  O  O219  1  0.63078320  0.24182853  0.99451476  1
  O  O220  1  0.63802623  0.73919523  0.50927846  1
  O  O221  1  0.62397802  0.78653844  0.95971018  1
  O  O222  1  0.48771156  0.25282351  0.13183135  1
  O  O223  1  0.48096950  0.25378350  0.62089962  1
  O  O224  1  0.49350433  0.73998565  0.11884238  1
  O  O225  1  0.49652220  0.74325253  0.63222438  1
  O  O226  1  0.99499153  0.24395745  0.13280568  1
  O  O227  1  1.00289599  0.25249035  0.64651176  1
  O  O228  1  0.98828181  0.75538956  0.12656133  1
  O  O229  1  0.98465470  0.76146053  0.63303504  1
  O  O230  1  0.00395358  0.25548807  0.36774825  1
  O  O231  1  -0.00290591  0.24276521  0.86011157  1
  O  O232  1  -0.00079047  0.78224310  0.41199327  1
  O  O233  1  0.01247307  0.75507479  0.87300199  1
  O  O234  1  0.50539140  0.25285330  0.36651032  1
  O  O235  1  0.51583427  0.24981954  0.87767390  1
  O  O236  1  0.49529873  0.77112142  0.37546845  1
  O  O237  1  0.48568461  0.74072494  0.85814619  1
  O  O238  1  0.24689746  0.13585821  0.49121490  1
  O  O239  1  0.24136345  0.13201398  0.99485384  1
  O  O240  1  0.23070001  0.61378800  0.49140033  1
  O  O241  1  0.26991350  0.62682874  0.96669574  1
  O  O242  1  0.74685511  0.13831244  0.50299133  1
  O  O243  1  0.74406420  0.12873782  0.99230478  1
  O  O244  1  0.74261166  0.63010869  0.49159199  1
  O  O245  1  0.75077621  0.61932816  0.98856304  1
  O  O246  1  0.25258032  0.36624752  0.01281586  1
  O  O247  1  0.24477702  0.36412385  0.51385624  1
  O  O248  1  0.25672219  0.88689519  0.01283437  1
  O  O249  1  0.26499171  0.88187191  0.51058189  1
  O  O250  1  0.75977837  0.37028916  0.00802691  1
  O  O251  1  0.76230088  0.37110981  0.49609807  1
  O  O252  1  0.76286820  0.87366299  0.00427718  1
  O  O253  1  0.74391567  0.85986190  0.50641409  1
  O  O254  1  0.12171296  0.48658630  0.25702299  1
  O  O255  1  0.11751844  0.48641402  0.73788610  1
  O  O256  1  0.13369763  0.99915242  0.24020922  1
  O  O257  1  0.11754514  0.98661240  0.74293117  1
  O  O258  1  0.63037403  0.49388517  0.24194087  1
  O  O259  1  0.63230348  0.50441903  0.73841750  1
  O  O260  1  0.62233994  0.97805112  0.22850909  1
  O  O261  1  0.64251184  1.01288931  0.74606667  1
  O  O262  1  0.36558625  -0.00114353  0.24834497  1
  O  O263  1  0.37091879  0.01603281  0.75968460  1
  O  O264  1  0.37820034  0.50616658  0.26102211  1
  O  O265  1  0.37475369  0.49086752  0.75900968  1
  O  O266  1  0.87473034  -0.00290583  0.26907845  1
  O  O267  1  0.86903919  0.01269723  0.75213644  1
  O  O268  1  0.85931654  0.51288521  0.24085937  1
  O  O269  1  0.87275873  0.49897678  0.76346644  1
  O  O270  1  0.11347716  0.36605752  0.37141018  1
  O  O271  1  0.13471628  0.38092401  0.86012756  1
  O  O272  1  0.13848071  0.87555679  0.35862474  1
  O  O273  1  0.12117900  0.86865138  0.86945547  1
  O  O274  1  0.62179132  0.36680415  0.36606229  1
  O  O275  1  0.63414437  0.35989298  0.88028801  1
  O  O276  1  0.62320155  0.87729058  0.36191428  1
  O  O277  1  0.62104263  0.84823877  0.90481161  1
  O  O278  1  0.37389203  0.13882774  0.11722095  1
  O  O279  1  0.36150889  0.13602516  0.63968227  1
  O  O280  1  0.38232196  0.63000658  0.13066801  1
  O  O281  1  0.38154884  0.63325301  0.61720574  1
  O  O282  1  0.88387183  0.13118474  0.12128334  1
  O  O283  1  0.87382520  0.12165475  0.63462910  1
  O  O284  1  0.86905101  0.63714262  0.13679438  1
  O  O285  1  0.86925929  0.64196663  0.63051914  1
  O  O286  1  0.26112943  0.25386279  0.11865137  1
  O  O287  1  0.24984994  0.25443614  0.61738839  1
  O  O288  1  0.25939194  0.77028438  0.12512420  1
  O  O289  1  0.26022773  0.76186487  0.62854488  1
  O  O290  1  0.75314588  0.25448910  0.12160244  1
  O  O291  1  0.74318627  0.25702831  0.60846778  1
  O  O292  1  0.75675031  0.76009729  0.11899976  1
  O  O293  1  0.75520240  0.75478287  0.62261455  1
  O  O294  1  0.24186924  0.24688324  0.38214926  1
  O  O295  1  0.25700025  0.24287483  0.89069344  1
  O  O296  1  0.29923143  0.75044651  0.38761783  1
  O  O297  1  0.23980676  0.74701398  0.87633054  1
  O  O298  1  0.73838967  0.25534383  0.38547842  1
  O  O299  1  0.74351125  0.24191179  0.88056649  1
  O  O300  1  0.75204994  0.74431926  0.38911787  1
  O  O301  1  0.75570922  0.72969508  0.86782180  1
  O  O302  1  0.00558602  0.11988991  0.00908941  1
  O  O303  1  0.00675824  0.13209037  0.50346028  1
  O  O304  1  0.00380415  0.61167485  0.00034459  1
  O  O305  1  0.01567332  0.62728514  0.49821838  1
  O  O306  1  0.51271643  0.12450285  -0.00683127  1
  O  O307  1  0.50815195  0.12804530  0.50326215  1
  O  O308  1  0.48878680  0.62422012  0.01179108  1
  O  O309  1  0.50772114  0.61853776  0.50672996  1
  O  O310  1  0.50309105  0.39065152  0.50076250  1
  O  O311  1  0.48260013  0.37375334  1.00596417  1
  O  O312  1  0.50323053  0.88185202  0.48773616  1
  O  O313  1  0.47795517  0.86650528  0.99216842  1
  O  O314  1  0.98648737  0.36902918  0.48925526  1
  O  O315  1  0.98822378  0.38152902  1.00632331  1
  O  O316  1  1.00315404  0.83579879  0.46577228  1
  O  O317  1  1.01146259  0.88538350  0.99263600  1
  O  O318  1  0.50410014  0.49818357  0.38594039  1
  O  O319  1  0.48890698  0.49784402  0.87158963  1
  O  O320  1  0.51508078  0.98864302  0.35970100  1
  O  O321  1  0.48723371  0.99263069  0.87333784  1
  O  O322  1  1.00308010  0.48464526  0.37575171  1
  O  O323  1  0.98812863  0.50169322  0.88030747  1
  O  O324  1  0.99690868  0.98842726  0.38054240  1
  O  O325  1  1.00136358  0.99148310  0.88455585  1
  O  O326  1  0.00477558  0.00627542  0.12227383  1
  O  O327  1  0.01301306  -0.00803631  0.62301954  1
  O  O328  1  -0.00094095  0.50144867  0.11802858  1
  O  O329  1  0.00190120  0.50179845  0.62744565  1
  O  O330  1  0.52121390  -0.01605960  0.11237390  1
  O  O331  1  0.49705945  0.01493658  0.64670829  1
  O  O332  1  0.50380199  0.51271229  0.12913367  1
  O  O333  1  0.50247773  0.50724767  0.61224014  1
  O  O334  1  0.24148356  0.36591777  0.23935001  1
  O  O335  1  0.23451737  0.36534483  0.73569204  1
  O  O336  1  0.24690567  0.88948145  0.23978963  1
  O  O337  1  0.23964247  0.87103871  0.74076917  1
  O  O338  1  0.74120044  0.38238144  0.24687689  1
  O  O339  1  0.75928804  0.38927095  0.74870618  1
  O  O340  1  0.73845419  0.86976581  0.24413948  1
  O  O341  1  0.75248943  0.89054464  0.74832027  1
  O  O342  1  0.24553214  0.12213378  0.25804144  1
  O  O343  1  0.25674407  0.13673098  0.76574535  1
  O  O344  1  0.26608922  0.63077278  0.26001365  1
  O  O345  1  0.25442582  0.62985288  0.75893154  1
  O  O346  1  0.69975343  0.11091456  0.26195924  1
  O  O347  1  0.76131843  0.11938548  0.75326561  1
  O  O348  1  0.74884310  0.62019949  0.25614618  1
  O  O349  1  0.75399267  0.61050266  0.75853666  1
  O  O350  1  0.36190083  0.12788919  0.37793852  1
  O  O351  1  0.36731998  0.12075594  0.87012223  1
  O  O352  1  0.38240851  0.60716227  0.36721707  1
  O  O353  1  0.36895795  0.60369766  0.86363926  1
  O  O354  1  0.88447817  0.10806535  0.36856662  1
  O  O355  1  0.86207077  0.12322043  0.87065958  1
  O  O356  1  0.86099754  0.63115952  0.36257263  1
  O  O357  1  0.86970969  0.61011171  0.87567794  1
  O  O358  1  0.13717126  0.36770644  0.13458582  1
  O  O359  1  0.13141187  0.38789449  0.62893150  1
  O  O360  1  0.13597956  0.88636103  0.12948450  1
  O  O361  1  0.13146642  0.87953196  0.63154710  1
  O  O362  1  0.62845184  0.38006489  0.13306476  1
  O  O363  1  0.63148403  0.39012403  0.61371745  1
  O  O364  1  0.63988453  0.87400276  0.12322113  1
  O  O365  1  0.63846973  0.88049509  0.62168873  1
  O  O366  1  0.11317429  0.26050059  0.25823246  1
  O  O367  1  0.11566433  0.26151328  0.75326623  1
  O  O368  1  0.13037003  0.76209012  0.24393913  1
  O  O369  1  0.11920600  0.75767549  0.75546596  1
  O  O370  1  0.61602311  0.25915270  0.25424428  1
  O  O371  1  0.62798916  0.24227612  0.76581178  1
  O  O372  1  0.62512711  0.75995248  0.24085191  1
  O  O373  1  0.60865732  0.73957117  0.74701628  1
  O  O374  1  0.38193054  0.25216027  0.23714079  1
  O  O375  1  0.37288506  0.24268954  0.74157241  1
  O  O376  1  0.37784385  0.74893919  0.23414310  1
  O  O377  1  0.38467264  0.74526937  0.73446844  1
  O  O378  1  0.88497161  0.25673718  0.24549094  1
  O  O379  1  0.88024032  0.23777464  0.75238624  1
  O  O380  1  0.87289040  0.73698092  0.24225097  1
  O  O381  1  0.88244372  0.74924418  0.74191324  1
  O  O382  1  0.38784906  0.50530108  0.48568784  1
  O  O383  1  0.36788834  0.48760149  0.99214846  1
  O  O384  1  0.37794722  0.99742077  0.50172846  1
  O  O385  1  0.37730431  0.99304735  0.99062671  1
  O  O386  1  0.86814103  0.49281177  0.49651817  1
  O  O387  1  0.88377986  0.49498303  0.99428324  1
  O  O388  1  0.88866435  0.99006033  0.49239092  1
  O  O389  1  0.88901736  1.00541982  0.99853197  1
  O  O390  1  0.11740605  0.00989808  0.01252415  1
  O  O391  1  0.12235070  -0.00769298  0.51472969  1
  O  O392  1  0.10988734  0.49176266  0.00044465  1
  O  O393  1  0.11790070  0.49911570  0.51582454  1
  O  O394  1  0.62475174  0.00485169  0.00147756  1
  O  O395  1  0.63048803  0.01625334  0.50324513  1
  O  O396  1  0.62529176  0.48971305  0.01376548  1
  O  O397  1  0.61712983  0.50929088  0.50386939  1
  O  O398  1  0.36415541  0.36889070  0.11665567  1
  O  O399  1  0.35831118  0.35968475  0.63279874  1
  O  O400  1  0.37252691  0.87254303  0.11747053  1
  O  O401  1  0.36805678  0.87511305  0.62304104  1
  O  O402  1  0.86876570  0.36980984  0.12031680  1
  O  O403  1  0.87465902  0.37905323  0.60778224  1
  O  O404  1  0.86512657  0.86224598  0.13179560  1
  O  O405  1  0.85943583  0.86161617  0.63060648  1
  O  O406  1  0.13182715  0.13817759  0.36854943  1
  O  O407  1  0.13060979  0.11686238  0.88712264  1
  O  O408  1  0.12435182  0.63360176  0.38678809  1
  O  O409  1  0.13798139  0.63072656  0.86837704  1
  O  O410  1  0.61996394  0.13800538  0.39396007  1
  O  O411  1  0.63598249  0.12783690  0.88071860  1
  O  O412  1  0.63217669  0.62498676  0.38244652  1
  O  O413  1  0.63619069  0.61830380  0.87735356  1
