# generated using pymatgen
data_V79Zn79O256
_symmetry_space_group_name_H-M   'P 1'
_cell_length_a   16.90674173
_cell_length_b   16.89929489
_cell_length_c   16.90873121
_cell_angle_alpha   90.13107284
_cell_angle_beta   90.00104129
_cell_angle_gamma   89.96500367
_symmetry_Int_Tables_number   1
_chemical_formula_structural   V79Zn79O256
_chemical_formula_sum   'V79 Zn79 O256'
_cell_volume   4831.01410571
_cell_formula_units_Z   1
loop_
 _symmetry_equiv_pos_site_id
 _symmetry_equiv_pos_as_xyz
  1  'x, y, z'
loop_
 _atom_site_type_symbol
 _atom_site_label
 _atom_site_symmetry_multiplicity
 _atom_site_fract_x
 _atom_site_fract_y
 _atom_site_fract_z
 _atom_site_occupancy
  V  V0  1  0.37623162  0.62748526  0.73434575  1
  V  V1  1  0.86795666  0.37837566  0.01148982  1
  V  V2  1  0.60028470  0.24483779  0.36862401  1
  V  V3  1  0.87507392  0.22857890  0.12879565  1
  V  V4  1  0.38066498  0.49161900  0.87031123  1
  V  V5  1  0.49898758  0.48749638  -0.00298849  1
  V  V6  1  0.87762908  0.74632749  0.62599807  1
  V  V7  1  0.50503680  0.00073844  0.00963077  1
  V  V8  1  0.12041103  0.36774556  0.25163756  1
  V  V9  1  0.74477056  0.75033924  0.49708867  1
  V  V10  1  0.74368390  0.88867195  0.62894412  1
  V  V11  1  0.12964863  0.00397782  0.62549970  1
  V  V12  1  0.37918466  -0.00354369  0.87806260  1
  V  V13  1  0.52570400  0.62314795  0.61498026  1
  V  V14  1  0.75772973  0.75756694  0.01632956  1
  V  V15  1  0.12753685  0.87370186  0.74804055  1
  V  V16  1  0.00393466  0.12935278  0.63698528  1
  V  V17  1  0.87043393  0.50285531  0.87299874  1
  V  V18  1  0.49503793  -0.00764116  0.48826743  1
  V  V19  1  0.86026401  0.12301566  0.75410852  1
  V  V20  1  0.63328118  0.11859331  -0.00592993  1
  V  V21  1  0.11465462  0.49981627  0.62500154  1
  V  V22  1  0.50590153  0.74796832  0.74574864  1
  V  V23  1  0.74097852  0.25559219  -0.00760192  1
  V  V24  1  0.87932990  0.62480520  0.74492474  1
  V  V25  1  0.74639094  -0.00051963  0.24047491  1
  V  V26  1  0.38393740  0.12622576  0.25136366  1
  V  V27  1  0.11947786  0.63300380  0.49952175  1
  V  V28  1  0.87454232  0.00323155  0.37271252  1
  V  V29  1  0.85966863  -0.00244412  0.87366928  1
  V  V30  1  0.24763678  0.63697997  0.37696243  1
  V  V31  1  0.25466086  0.74588202  0.00898764  1
  V  V32  1  0.37967202  0.12840236  0.75333757  1
  V  V33  1  0.62466949  0.11542885  0.50530562  1
  V  V34  1  0.12827163  0.25186603  0.88485854  1
  V  V35  1  0.37559053  0.26105079  0.12471787  1
  V  V36  1  0.87312293  0.37250657  0.49051876  1
  V  V37  1  0.37659683  0.49205784  0.38536539  1
  V  V38  1  0.24985968  0.00602312  0.26223511  1
  V  V39  1  0.37385544  0.86694452  0.49679290  1
  V  V40  1  0.24940033  0.49637288  0.74570349  1
  V  V41  1  0.62397133  0.88900211  0.74691565  1
  V  V42  1  -0.00170445  0.64068905  0.12750230  1
  V  V43  1  0.12380112  0.62735536  -0.00008448  1
  V  V44  1  0.37108398  0.25531931  0.61556826  1
  V  V45  1  0.50521582  0.11870355  0.62855683  1
  V  V46  1  0.00381130  0.00795607  0.50528175  1
  V  V47  1  -0.00488320  0.36930197  0.87438662  1
  V  V48  1  0.12606674  0.49668143  0.12496925  1
  V  V49  1  -0.00329914  0.50476924  0.00263243  1
  V  V50  1  0.62451279  0.76027174  0.37254697  1
  V  V51  1  0.62015119  0.63426997  -0.00732573  1
  V  V52  1  0.25319870  0.13013407  0.88457365  1
  V  V53  1  0.11523442  0.11399389  0.00272682  1
  V  V54  1  0.13271525  0.87005158  0.26004394  1
  V  V55  1  0.74581399  0.63700676  0.87336638  1
  V  V56  1  0.12217125  0.75120468  0.87519273  1
  V  V57  1  0.49549023  0.63072839  0.11966994  1
  V  V58  1  0.88093199  0.25350085  0.63133243  1
  V  V59  1  0.37664731  0.86966528  0.00500019  1
  V  V60  1  0.50618632  0.86744315  0.87440171  1
  V  V61  1  0.49749095  0.75521619  0.24989685  1
  V  V62  1  0.24867515  0.88339906  0.12560662  1
  V  V63  1  0.52288263  0.48836531  0.49946918  1
  V  V64  1  0.87555616  0.87769973  0.49993494  1
  V  V65  1  0.37329653  0.63153254  0.24325809  1
  V  V66  1  0.51085910  0.26612780  0.76133548  1
  V  V67  1  0.75266900  0.62028786  0.37509279  1
  V  V68  1  -0.00527806  0.49944890  0.49059174  1
  V  V69  1  0.25159845  0.49587641  0.24813242  1
  V  V70  1  0.11871874  0.36840469  0.75140614  1
  V  V71  1  0.25294414  -0.00680151  0.74969846  1
  V  V72  1  0.62266274  0.87867106  0.23315402  1
  V  V73  1  0.75066909  0.12564932  0.37497555  1
  V  V74  1  0.00828534  0.75020822  0.27210153  1
  V  V75  1  0.24566512  0.14055798  0.39128580  1
  V  V76  1  0.25160538  0.62853707  0.87129559  1
  V  V77  1  0.74023642  0.37860281  0.62807181  1
  V  V78  1  0.87922498  0.61602279  0.25834597  1
  Zn  Zn79  1  0.01331564  0.87646826  0.38501236  1
  Zn  Zn80  1  0.64264118  0.35629327  0.23725976  1
  Zn  Zn81  1  0.74175681  0.50100639  0.74184506  1
  Zn  Zn82  1  0.24829649  0.36736697  0.61434424  1
  Zn  Zn83  1  0.51071546  0.12816577  0.13226660  1
  Zn  Zn84  1  -0.00459426  0.22319455  0.24815623  1
  Zn  Zn85  1  -0.00639569  0.87856039  0.87419795  1
  Zn  Zn86  1  0.64642677  0.48378678  0.12325800  1
  Zn  Zn87  1  0.00124977  0.74753590  0.74640704  1
  Zn  Zn88  1  0.74271491  0.24991789  0.49985140  1
  Zn  Zn89  1  0.06198928  0.04661813  0.16432393  1
  Zn  Zn90  1  0.25551988  0.75288780  0.51274688  1
  Zn  Zn91  1  0.33362046  0.34880552  -0.01281616  1
  Zn  Zn92  1  0.00525864  0.35700550  0.37402506  1
  Zn  Zn93  1  -0.01408245  -0.01391404  0.00240298  1
  Zn  Zn94  1  0.19519348  0.18981620  0.17935175  1
  Zn  Zn95  1  0.19005414  0.18465968  0.69302438  1
  Zn  Zn96  1  0.18618165  0.68664274  0.18798953  1
  Zn  Zn97  1  0.18160073  0.68228332  0.68483396  1
  Zn  Zn98  1  0.69052980  0.18518255  0.18074107  1
  Zn  Zn99  1  0.68749504  0.19683093  0.68580280  1
  Zn  Zn100  1  0.70394766  0.64895176  0.17089750  1
  Zn  Zn101  1  0.69201788  0.69471065  0.68927913  1
  Zn  Zn102  1  0.31534748  0.31068147  0.30785132  1
  Zn  Zn103  1  0.31210882  0.31011820  0.80538321  1
  Zn  Zn104  1  0.31849950  0.81804686  0.32064004  1
  Zn  Zn105  1  0.31948111  0.80937710  0.67889539  1
  Zn  Zn106  1  0.80885319  0.31206028  0.30373781  1
  Zn  Zn107  1  0.80859238  0.31066696  0.81101389  1
  Zn  Zn108  1  0.81369490  0.81180143  0.29827189  1
  Zn  Zn109  1  0.80829644  0.81443116  0.81076794  1
  Zn  Zn110  1  0.18437433  0.44360983  0.43030292  1
  Zn  Zn111  1  0.18386331  0.44042856  0.93457016  1
  Zn  Zn112  1  0.19555091  0.94043916  0.44349909  1
  Zn  Zn113  1  0.18984766  0.93562210  0.93642561  1
  Zn  Zn114  1  0.69439040  0.42214260  0.40488938  1
  Zn  Zn115  1  0.68414095  0.44195426  0.93505410  1
  Zn  Zn116  1  0.68577615  0.93678076  0.43632987  1
  Zn  Zn117  1  0.68877478  0.93379903  0.93771324  1
  Zn  Zn118  1  0.31523108  0.06572828  0.06691801  1
  Zn  Zn119  1  0.31881738  0.05900976  0.56612204  1
  Zn  Zn120  1  0.29946387  0.52829511  0.04720379  1
  Zn  Zn121  1  0.30382352  0.56036360  0.56072139  1
  Zn  Zn122  1  0.80835665  0.06163247  0.05782417  1
  Zn  Zn123  1  0.81534801  0.06739503  0.56415330  1
  Zn  Zn124  1  0.81504777  0.57035890  0.06287945  1
  Zn  Zn125  1  0.80652388  0.56049511  0.55871773  1
  Zn  Zn126  1  0.44583604  0.44444205  0.19150502  1
  Zn  Zn127  1  0.44225196  0.43848921  0.67526593  1
  Zn  Zn128  1  0.43359403  0.93818102  0.19169569  1
  Zn  Zn129  1  0.44192080  0.93937500  0.68411438  1
  Zn  Zn130  1  0.94089474  0.44119772  0.18957484  1
  Zn  Zn131  1  0.93403792  0.43825210  0.68616788  1
  Zn  Zn132  1  0.92466162  0.92129395  0.18646748  1
  Zn  Zn133  1  0.93759423  0.93793697  0.69331959  1
  Zn  Zn134  1  0.06547118  0.07371804  0.33280457  1
  Zn  Zn135  1  0.05709850  0.06192705  0.81789205  1
  Zn  Zn136  1  0.06532281  0.55851028  0.31498312  1
  Zn  Zn137  1  0.05934270  0.56114603  0.81309735  1
  Zn  Zn138  1  0.56584242  0.05783411  0.31592516  1
  Zn  Zn139  1  0.56601519  0.06798369  0.81831306  1
  Zn  Zn140  1  0.55886802  0.57474668  0.32211994  1
  Zn  Zn141  1  0.56100925  0.56195721  0.81139347  1
  Zn  Zn142  1  0.42712794  0.17337742  0.43830142  1
  Zn  Zn143  1  0.44751784  0.19224857  0.94266563  1
  Zn  Zn144  1  0.43963654  0.68377323  0.43732720  1
  Zn  Zn145  1  0.43330740  0.68520059  0.92829938  1
  Zn  Zn146  1  0.93996800  0.18901517  0.43675993  1
  Zn  Zn147  1  0.93250731  0.18708489  0.93898547  1
  Zn  Zn148  1  0.93573459  0.68787775  0.44180866  1
  Zn  Zn149  1  0.93448433  0.69448763  0.93957130  1
  Zn  Zn150  1  0.05595719  0.31011012  0.06402565  1
  Zn  Zn151  1  0.06297191  0.31450618  0.56144538  1
  Zn  Zn152  1  0.04937379  0.84138463  0.07933710  1
  Zn  Zn153  1  0.06356523  0.81740774  0.56893630  1
  Zn  Zn154  1  0.55887058  0.30706566  0.07115645  1
  Zn  Zn155  1  0.55628569  0.30320297  0.55891683  1
  Zn  Zn156  1  0.56476462  0.80852635  0.06304512  1
  Zn  Zn157  1  0.56080652  0.81139607  0.56340898  1
  O  O158  1  0.13225718  0.12380796  0.10589287  1
  O  O159  1  0.11772234  0.11500197  0.63561820  1
  O  O160  1  0.11720115  0.61979746  0.11935016  1
  O  O161  1  0.12632572  0.61102134  0.61088520  1
  O  O162  1  0.62315061  0.13037958  0.10561421  1
  O  O163  1  0.61684440  0.13415490  0.61523558  1
  O  O164  1  0.60465865  0.62248415  0.11174706  1
  O  O165  1  0.62482496  0.61984329  0.62756242  1
  O  O166  1  0.37475465  0.39467340  0.36129191  1
  O  O167  1  0.36274800  0.38863338  0.87492764  1
  O  O168  1  0.38119061  0.87633322  0.39478070  1
  O  O169  1  0.38574293  0.88700802  0.88627710  1
  O  O170  1  0.87750636  0.36807261  0.38996758  1
  O  O171  1  0.87935290  0.38388894  0.87966597  1
  O  O172  1  0.87406342  0.88312987  0.38998798  1
  O  O173  1  0.87448788  0.89292191  0.85767819  1
  O  O174  1  0.25202935  0.00661465  0.36428916  1
  O  O175  1  0.26119423  0.00568859  0.86925241  1
  O  O176  1  0.25743197  0.51050750  0.36691976  1
  O  O177  1  0.25340746  0.51152717  0.86277061  1
  O  O178  1  0.75603548  0.00650362  0.37503595  1
  O  O179  1  0.75885467  -0.00111969  0.87203033  1
  O  O180  1  0.74949345  0.52345658  0.38477682  1
  O  O181  1  0.76295199  0.51058141  0.87669024  1
  O  O182  1  0.23633882  0.51876087  0.14073168  1
  O  O183  1  0.23855939  0.49229648  0.63202643  1
  O  O184  1  0.25032937  0.98758637  0.12763712  1
  O  O185  1  0.24151204  1.01244849  0.63890557  1
  O  O186  1  0.73945210  0.54200039  0.13850052  1
  O  O187  1  0.74993022  0.48515477  0.62273191  1
  O  O188  1  0.75741352  1.00209162  0.14214941  1
  O  O189  1  0.75363469  0.98693613  0.62159873  1
  O  O190  1  0.01379165  0.37818719  0.25057060  1
  O  O191  1  0.00787315  0.38448604  0.76263753  1
  O  O192  1  0.01271079  0.86050909  0.25896022  1
  O  O193  1  0.01358995  0.87159558  0.75378455  1
  O  O194  1  0.54097388  0.42825063  0.25718842  1
  O  O195  1  0.49629339  0.36423107  0.74190574  1
  O  O196  1  0.50787702  0.86918169  0.24534501  1
  O  O197  1  0.50459357  0.86872450  0.75396456  1
  O  O198  1  0.48574738  0.10676533  0.24940122  1
  O  O199  1  0.49318795  0.12774553  0.74753432  1
  O  O200  1  0.49204729  0.63382067  0.24049417  1
  O  O201  1  0.49771609  0.62628000  0.73708459  1
  O  O202  1  1.01577230  0.11167193  0.24268398  1
  O  O203  1  0.99329685  0.12538551  0.74025641  1
  O  O204  1  1.00304370  0.63318577  0.25058844  1
  O  O205  1  0.98465385  0.62536740  0.75200944  1
  O  O206  1  0.37991756  0.25205302  0.01255481  1
  O  O207  1  0.38236734  0.24350340  0.51742921  1
  O  O208  1  0.36493233  0.75911224  -0.01136193  1
  O  O209  1  0.38144304  0.76086092  0.50133990  1
  O  O210  1  0.86907054  0.25965686  0.00924739  1
  O  O211  1  0.87787548  0.26177872  0.50955430  1
  O  O212  1  0.85833096  0.74234084  0.00535922  1
  O  O213  1  0.86906235  0.76034606  0.50595160  1
  O  O214  1  0.15707413  0.29276813  0.49479586  1
  O  O215  1  0.12242337  0.24412680  0.98993359  1
  O  O216  1  0.11592108  0.73416573  0.50683725  1
  O  O217  1  0.13832810  0.74401418  0.98995342  1
  O  O218  1  0.62114206  0.23107014  0.48909865  1
  O  O219  1  0.63730328  0.24819834  0.99952173  1
  O  O220  1  0.63699965  0.75668336  0.49111443  1
  O  O221  1  0.63004529  0.73884101  0.99755197  1
  O  O222  1  0.48647883  0.24113054  0.12587987  1
  O  O223  1  0.48864264  0.23973665  0.63504184  1
  O  O224  1  0.49982507  0.74299576  0.13621479  1
  O  O225  1  0.50756032  0.73137701  0.62885488  1
  O  O226  1  0.98039910  0.25456959  0.12748701  1
  O  O227  1  0.99489845  0.24072669  0.61711464  1
  O  O228  1  1.01139461  0.74317124  0.13732449  1
  O  O229  1  0.98227299  0.75503453  0.62536965  1
  O  O230  1  -0.00172283  0.24442482  0.36150306  1
  O  O231  1  0.00616873  0.26388201  0.88092005  1
  O  O232  1  0.00887954  0.75203849  0.37589544  1
  O  O233  1  0.01455279  0.74605018  0.87224122  1
  O  O234  1  0.50192962  0.23009356  0.37135227  1
  O  O235  1  0.49322788  0.25394169  0.86070966  1
  O  O236  1  0.51415501  0.73503021  0.36143698  1
  O  O237  1  0.49432375  0.75969901  0.86267875  1
  O  O238  1  0.27011035  0.12398647  0.48812529  1
  O  O239  1  0.24375837  0.11715284  0.98800139  1
  O  O240  1  0.23600811  0.62702923  0.49477167  1
  O  O241  1  0.24698765  0.62635159  0.99092358  1
  O  O242  1  0.74066130  0.12212448  0.49541359  1
  O  O243  1  0.73927455  0.13470719  0.99923361  1
  O  O244  1  0.76253299  0.64061391  0.48665682  1
  O  O245  1  0.74008848  0.63295389  0.99030325  1
  O  O246  1  0.25680234  0.42070094  0.01476409  1
  O  O247  1  0.21413840  0.35196337  0.50030568  1
  O  O248  1  0.25591364  0.86757918  0.00610109  1
  O  O249  1  0.26648707  0.87433107  0.50177198  1
  O  O250  1  0.75448784  0.36858822  -0.00607338  1
  O  O251  1  0.76486878  0.37582328  0.50375599  1
  O  O252  1  0.74129218  0.85636495  -0.00097005  1
  O  O253  1  0.75629497  0.87125197  0.51009765  1
  O  O254  1  0.13139980  0.49579951  0.24263688  1
  O  O255  1  0.12987182  0.49553761  0.74476954  1
  O  O256  1  0.14099313  0.98967629  0.24772121  1
  O  O257  1  0.13388524  0.99403704  0.74931237  1
  O  O258  1  0.59222210  0.49695085  0.24203099  1
  O  O259  1  0.63053606  0.47191132  0.77795026  1
  O  O260  1  0.63088916  0.98958893  0.25115363  1
  O  O261  1  0.61691977  0.98867227  0.75113301  1
  O  O262  1  0.35774721  0.00842734  0.24179060  1
  O  O263  1  0.37295842  0.00714549  0.75882648  1
  O  O264  1  0.36867495  0.51236847  0.25722493  1
  O  O265  1  0.36736262  0.50321728  0.75029805  1
  O  O266  1  0.85948430  -0.00953241  0.26584518  1
  O  O267  1  0.87485220  0.01592908  0.75321308  1
  O  O268  1  0.88939318  0.51647309  0.25949492  1
  O  O269  1  0.87157685  0.50731482  0.75719955  1
  O  O270  1  0.12506348  0.37888573  0.35513116  1
  O  O271  1  0.11641834  0.37145468  0.87245918  1
  O  O272  1  0.13235472  0.88025998  0.36553879  1
  O  O273  1  0.13392416  0.86416963  0.86355121  1
  O  O274  1  0.61019554  0.34304506  0.38874062  1
  O  O275  1  0.62971830  0.41191919  0.83440808  1
  O  O276  1  0.62299926  0.86490654  0.37136226  1
  O  O277  1  0.61164859  0.87932497  0.86591548  1
  O  O278  1  0.37727734  0.12960459  0.13710469  1
  O  O279  1  0.38321221  0.12979206  0.63812857  1
  O  O280  1  0.37989977  0.62236593  0.13791254  1
  O  O281  1  0.37530067  0.61500945  0.63292993  1
  O  O282  1  0.87958052  0.12937844  0.11932789  1
  O  O283  1  0.88211687  0.13276681  0.63359865  1
  O  O284  1  0.89028790  0.62377371  0.14323027  1
  O  O285  1  0.86267968  0.63368745  0.63315240  1
  O  O286  1  0.27326505  0.25064443  0.12663131  1
  O  O287  1  0.26608816  0.24586939  0.63407250  1
  O  O288  1  0.24937383  0.75305405  0.11286071  1
  O  O289  1  0.24122116  0.75213632  0.62452479  1
  O  O290  1  0.76510971  0.24536314  0.11056202  1
  O  O291  1  0.76326574  0.25899143  0.61789037  1
  O  O292  1  0.73955332  0.74165530  0.11435815  1
  O  O293  1  0.75780038  0.75817773  0.61476696  1
  O  O294  1  0.25537373  0.23936467  0.37197315  1
  O  O295  1  0.24373870  0.24258466  0.87422943  1
  O  O296  1  0.25356261  0.73961052  0.38230110  1
  O  O297  1  0.24248321  0.73432812  0.88032134  1
  O  O298  1  0.75326255  0.23180217  0.37962029  1
  O  O299  1  0.75867945  0.25030155  0.89288045  1
  O  O300  1  0.74721616  0.75454762  0.38151515  1
  O  O301  1  0.75271914  0.73980379  0.87914063  1
  O  O302  1  0.01320441  0.12308746  -0.00457948  1
  O  O303  1  -0.00662672  0.11255700  0.51351063  1
  O  O304  1  0.00247158  0.62559214  0.00868575  1
  O  O305  1  0.00814056  0.61142567  0.49499766  1
  O  O306  1  0.50828811  0.11331440  0.00086820  1
  O  O307  1  0.50356141  0.11264526  0.50823700  1
  O  O308  1  0.50350677  0.63083876  0.00148281  1
  O  O309  1  0.50677970  0.61987969  0.51176127  1
  O  O310  1  0.49925463  0.39148857  0.51030936  1
  O  O311  1  0.50087938  0.38904165  1.00068754  1
  O  O312  1  0.49824249  0.88718019  0.50569496  1
  O  O313  1  0.49627246  0.87680370  0.99386389  1
  O  O314  1  0.99194185  0.38283487  0.49768516  1
  O  O315  1  0.98923099  0.38382408  0.99239444  1
  O  O316  1  0.99171544  0.88521985  0.50460501  1
  O  O317  1  1.00243012  0.87037144  0.98594812  1
  O  O318  1  0.48506049  0.51535406  0.39463628  1
  O  O319  1  0.49037826  0.50467583  0.88236121  1
  O  O320  1  0.49841544  1.00098087  0.38942893  1
  O  O321  1  0.49361264  0.99266783  0.88353747  1
  O  O322  1  1.00420245  0.49205555  0.38918399  1
  O  O323  1  0.98922513  0.49556695  0.88186994  1
  O  O324  1  0.99313064  0.99840861  0.38879894  1
  O  O325  1  0.98578650  0.99925792  0.87762193  1
  O  O326  1  0.00037121  -0.03558120  0.11743245  1
  O  O327  1  0.00759683  0.00777048  0.62379974  1
  O  O328  1  0.00843733  0.51366692  0.12064897  1
  O  O329  1  0.00862810  0.49393066  0.61542821  1
  O  O330  1  0.49510199  -0.00244572  0.11137318  1
  O  O331  1  0.50194399  0.01476611  0.62177884  1
  O  O332  1  0.48962590  0.51271259  0.10346214  1
  O  O333  1  0.50434972  0.51195174  0.61156959  1
  O  O334  1  0.24106462  0.39003202  0.25110968  1
  O  O335  1  0.23735719  0.38550462  0.75313882  1
  O  O336  1  0.25301914  0.88239177  0.24660445  1
  O  O337  1  0.24711304  0.88785478  0.74879413  1
  O  O338  1  0.73140160  0.39028675  0.29821799  1
  O  O339  1  0.75693910  0.37483839  0.73207026  1
  O  O340  1  0.72996718  0.88855729  0.25866689  1
  O  O341  1  0.73941313  0.87016184  0.73578515  1
  O  O342  1  0.24987405  0.11357529  0.25267541  1
  O  O343  1  0.26071262  0.11718080  0.76397826  1
  O  O344  1  0.25476550  0.62280134  0.25896105  1
  O  O345  1  0.25485313  0.61587450  0.75214374  1
  O  O346  1  0.74008224  0.10733453  0.26177414  1
  O  O347  1  0.76134783  0.12918372  0.74266665  1
  O  O348  1  0.77282595  0.63932632  0.26412080  1
  O  O349  1  0.75515224  0.62167632  0.75697173  1
  O  O350  1  0.36234558  0.12295418  0.35636217  1
  O  O351  1  0.37297539  0.11752281  0.87245960  1
  O  O352  1  0.36598736  0.61794508  0.36836873  1
  O  O353  1  0.36807584  0.61632523  0.85836769  1
  O  O354  1  0.86536696  0.11082397  0.38707356  1
  O  O355  1  0.87633657  0.12311161  0.85916536  1
  O  O356  1  0.86989541  0.62878509  0.36909653  1
  O  O357  1  0.86816901  0.62061910  0.86684993  1
  O  O358  1  0.11632704  0.39155885  0.12890047  1
  O  O359  1  0.12406360  0.38037777  0.63866441  1
  O  O360  1  0.14137364  0.86586296  0.14377148  1
  O  O361  1  0.12233780  0.88871069  0.63834559  1
  O  O362  1  0.62867472  0.37378753  0.12685287  1
  O  O363  1  0.64344306  0.36047342  0.61388450  1
  O  O364  1  0.62502404  0.87676146  0.13423955  1
  O  O365  1  0.63723903  0.87359685  0.62866441  1
  O  O366  1  0.12780037  0.26799082  0.23263949  1
  O  O367  1  0.12929457  0.26157855  0.76324457  1
  O  O368  1  0.12007589  0.75356266  0.25556343  1
  O  O369  1  0.12523500  0.75532689  0.75721388  1
  O  O370  1  0.62850176  0.23983327  0.26533858  1
  O  O371  1  0.60977187  0.24786506  0.74889425  1
  O  O372  1  0.61724376  0.76680441  0.25383038  1
  O  O373  1  0.61235937  0.76027922  0.74549074  1
  O  O374  1  0.37592299  0.23338235  0.24346635  1
  O  O375  1  0.38271895  0.23978721  0.74609483  1
  O  O376  1  0.38504359  0.74334073  0.25994935  1
  O  O377  1  0.39123300  0.73819939  0.74254952  1
  O  O378  1  0.86847092  0.24895732  0.23225478  1
  O  O379  1  0.87467477  0.24145674  0.73970108  1
  O  O380  1  0.90341249  0.73684419  0.26261720  1
  O  O381  1  0.87272259  0.74219280  0.74240887  1
  O  O382  1  0.36106986  0.49421144  0.48662541  1
  O  O383  1  0.39043291  0.51074393  0.98319692  1
  O  O384  1  0.39017338  0.99198981  0.50560943  1
  O  O385  1  0.38216891  0.99319599  0.99455049  1
  O  O386  1  0.88771664  0.48926540  0.50659961  1
  O  O387  1  0.87689896  0.49909103  0.99212110  1
  O  O388  1  0.88292706  0.99326841  0.49927445  1
  O  O389  1  0.87137116  1.01040731  0.97923166  1
  O  O390  1  0.12225040  0.01206326  -0.00999019  1
  O  O391  1  0.11672068  -0.00865298  0.51456902  1
  O  O392  1  0.11535157  0.50961079  0.00460457  1
  O  O393  1  0.11379372  0.50187263  0.50669280  1
  O  O394  1  0.62023456  0.00896495  -0.00440367  1
  O  O395  1  0.61430350  0.00750051  0.49720676  1
  O  O396  1  0.60990272  0.50992814  -0.00367474  1
  O  O397  1  0.61953915  0.48917064  0.48010950  1
  O  O398  1  0.38592858  0.36270758  0.14057192  1
  O  O399  1  0.36873390  0.36073739  0.62720815  1
  O  O400  1  0.36814598  0.87633728  0.11110100  1
  O  O401  1  0.38146322  0.87744298  0.61370387  1
  O  O402  1  0.87417514  0.38779972  0.11186574  1
  O  O403  1  0.87294315  0.36780010  0.61735188  1
  O  O404  1  0.84854429  0.84127810  0.19048536  1
  O  O405  1  0.86439644  0.87028795  0.62100902  1
  O  O406  1  0.14553178  0.12242722  0.39025908  1
  O  O407  1  0.13257722  0.13365777  0.88104516  1
  O  O408  1  0.13350865  0.61659579  0.39051889  1
  O  O409  1  0.13125336  0.62885312  0.87737416  1
  O  O410  1  0.63192069  0.12655641  0.38411562  1
  O  O411  1  0.61999349  0.13100127  0.89355627  1
  O  O412  1  0.64598503  0.64217236  0.36021965  1
  O  O413  1  0.63434009  0.62009359  0.87998762  1
