# generated using pymatgen
data_V79Zn79O256
_symmetry_space_group_name_H-M   'P 1'
_cell_length_a   16.87637514
_cell_length_b   16.89625113
_cell_length_c   16.91492775
_cell_angle_alpha   89.86309336
_cell_angle_beta   90.20328468
_cell_angle_gamma   89.92868166
_symmetry_Int_Tables_number   1
_chemical_formula_structural   V79Zn79O256
_chemical_formula_sum   'V79 Zn79 O256'
_cell_volume   4823.20098110
_cell_formula_units_Z   1
loop_
 _symmetry_equiv_pos_site_id
 _symmetry_equiv_pos_as_xyz
  1  'x, y, z'
loop_
 _atom_site_type_symbol
 _atom_site_label
 _atom_site_symmetry_multiplicity
 _atom_site_fract_x
 _atom_site_fract_y
 _atom_site_fract_z
 _atom_site_occupancy
  V  V0  1  0.48526738  0.25590237  0.74889612  1
  V  V1  1  0.38241238  0.62879880  0.25159232  1
  V  V2  1  0.12654991  0.50092747  0.62101806  1
  V  V3  1  0.87500424  0.88422494  0.50451439  1
  V  V4  1  0.61300180  0.00444515  0.11494017  1
  V  V5  1  0.00182218  0.62970165  0.12612445  1
  V  V6  1  0.00022889  0.12254621  0.62253561  1
  V  V7  1  0.49950912  0.87265738  0.37511067  1
  V  V8  1  0.25906467  0.13078982  0.36596522  1
  V  V9  1  0.87308784  0.37695463  0.49956827  1
  V  V10  1  0.13031198  0.36861715  0.75042926  1
  V  V11  1  0.62175664  0.37933000  0.24330861  1
  V  V12  1  -0.00159965  0.62992698  0.63353804  1
  V  V13  1  0.12409732  0.13711787  0.49427566  1
  V  V14  1  0.62085067  0.87140676  0.25006642  1
  V  V15  1  0.87627641  0.87892759  -0.01973821  1
  V  V16  1  0.13142566  0.74977404  0.38833801  1
  V  V17  1  0.62421850  0.74812620  0.37276093  1
  V  V18  1  0.49846169  0.60485417  0.12542804  1
  V  V19  1  0.10965127  0.74707726  0.86662560  1
  V  V20  1  0.24868697  0.63061024  0.39208265  1
  V  V21  1  0.87162780  0.36892319  -0.00581932  1
  V  V22  1  0.13116021  0.88497484  0.24752274  1
  V  V23  1  0.87170132  0.25018748  0.62552137  1
  V  V24  1  0.75206389  0.00659795  0.25257486  1
  V  V25  1  0.00182941  0.88431502  0.37814113  1
  V  V26  1  0.39309518  0.63027512  0.74673146  1
  V  V27  1  0.75434172  0.37083762  0.12421953  1
  V  V28  1  0.36856399  0.86834737  0.49891141  1
  V  V29  1  0.12370128  -0.00052285  0.61929353  1
  V  V30  1  0.62376503  0.87036001  0.74473518  1
  V  V31  1  0.75828463  0.49917265  0.25121924  1
  V  V32  1  0.37073989  0.37323786  0.51394173  1
  V  V33  1  0.75313676  0.75207857  0.50822833  1
  V  V34  1  0.76096302  0.49725544  0.75192720  1
  V  V35  1  0.11581806  0.86956133  0.75376228  1
  V  V36  1  0.87335039  0.74897337  0.13077370  1
  V  V37  1  0.75488007  0.61854871  0.87770426  1
  V  V38  1  0.39051534  0.74694233  0.62611501  1
  V  V39  1  0.25088902  0.50047671  0.74511819  1
  V  V40  1  0.12525119  0.62998671  -0.00078960  1
  V  V41  1  0.26081735  0.00387386  0.75231831  1
  V  V42  1  -0.00500064  0.37427015  0.37667716  1
  V  V43  1  0.74997346  -0.00048657  0.75900024  1
  V  V44  1  0.63211052  -0.00178525  0.62528301  1
  V  V45  1  0.00269832  0.75232995  0.25156955  1
  V  V46  1  0.12420676  0.49435511  0.12516600  1
  V  V47  1  0.61480281  0.61982533  0.50555210  1
  V  V48  1  0.24621700  0.50682974  0.25462581  1
  V  V49  1  0.38859479  0.49637983  0.88267540  1
  V  V50  1  0.24930522  0.88646301  0.12576076  1
  V  V51  1  0.38015978  0.74705883  0.12560216  1
  V  V52  1  0.24526407  0.13610710  0.88908301  1
  V  V53  1  0.00005316  0.51011256  0.49498477  1
  V  V54  1  -0.01016308  0.23631944  0.24855315  1
  V  V55  1  0.74289141  0.74708474  0.00301413  1
  V  V56  1  0.50176959  0.37812472  0.38528376  1
  V  V57  1  0.87333050  0.12055225  0.75781963  1
  V  V58  1  0.49638522  0.00043762  0.50512790  1
  V  V59  1  0.62208091  0.26408818  0.86566412  1
  V  V60  1  0.74775675  0.37443811  0.62504426  1
  V  V61  1  0.11970880  0.36885016  0.26090167  1
  V  V62  1  0.75893668  0.61976908  0.37763831  1
  V  V63  1  -0.01060728  0.50244383  -0.00594481  1
  V  V64  1  0.61449713  0.50044485  0.62911571  1
  V  V65  1  0.61760978  0.60785598  0.00629801  1
  V  V66  1  0.74959076  0.87524293  0.12671102  1
  V  V67  1  0.24993556  0.86390489  0.62326160  1
  V  V68  1  0.24958252  0.62689482  0.87147730  1
  V  V69  1  0.62411517  0.12963161  0.50372310  1
  V  V70  1  0.38090725  0.50033776  0.38070876  1
  V  V71  1  0.61696504  0.74630362  0.87048717  1
  V  V72  1  0.00133072  0.37040296  0.87619819  1
  V  V73  1  0.49980538  0.87948032  0.87469845  1
  V  V74  1  0.75478281  0.13005378  0.37410632  1
  V  V75  1  0.37959972  0.87721814  -0.00562097  1
  V  V76  1  0.62016239  0.25121028  0.37693292  1
  V  V77  1  0.61385358  0.12925134  -0.01100592  1
  V  V78  1  0.24722054  0.27795125  0.00306712  1
  Zn  Zn79  1  0.00786858  0.24330114  0.75720705  1
  Zn  Zn80  1  0.38772467  0.01541220  0.87037239  1
  Zn  Zn81  1  0.88245526  0.00870473  0.37473721  1
  Zn  Zn82  1  0.88095761  0.61880663  0.25767901  1
  Zn  Zn83  1  0.36879627  0.00179414  0.36319301  1
  Zn  Zn84  1  0.05657690  0.05763153  0.08168198  1
  Zn  Zn85  1  0.24773347  0.75126966  -0.00008855  1
  Zn  Zn86  1  0.39423720  0.23212274  0.12544763  1
  Zn  Zn87  1  0.47091509  0.13574144  0.62864861  1
  Zn  Zn88  1  0.25832779  0.25237362  0.49909395  1
  Zn  Zn89  1  0.87726562  0.75657129  0.63274121  1
  Zn  Zn90  1  0.87354991  0.23906324  0.12397674  1
  Zn  Zn91  1  0.26611282  0.37133446  0.13818285  1
  Zn  Zn92  1  0.75547992  0.13258560  0.88783154  1
  Zn  Zn93  1  0.88398421  0.63201538  0.76378046  1
  Zn  Zn94  1  0.23100838  0.14471660  0.15664101  1
  Zn  Zn95  1  0.19952917  0.18501390  0.68260456  1
  Zn  Zn96  1  0.19005844  0.69406757  0.18979094  1
  Zn  Zn97  1  0.18640054  0.68468849  0.68200264  1
  Zn  Zn98  1  0.58396303  0.19331901  0.18694614  1
  Zn  Zn99  1  0.68315467  0.18763385  0.69127351  1
  Zn  Zn100  1  0.68374249  0.68112453  0.18940761  1
  Zn  Zn101  1  0.68954796  0.68285246  0.68999417  1
  Zn  Zn102  1  0.31613675  0.31300890  0.30609511  1
  Zn  Zn103  1  0.31434799  0.31474882  0.81777202  1
  Zn  Zn104  1  0.31215645  0.81087513  0.31078217  1
  Zn  Zn105  1  0.31017850  0.81080047  0.80851166  1
  Zn  Zn106  1  0.81000255  0.30878228  0.31294116  1
  Zn  Zn107  1  0.81045244  0.30886923  0.81259009  1
  Zn  Zn108  1  0.81257935  0.81357692  0.31820260  1
  Zn  Zn109  1  0.80325319  0.80674832  0.80529917  1
  Zn  Zn110  1  0.18917944  0.43717882  0.43967476  1
  Zn  Zn111  1  0.18597704  0.44103476  0.93398015  1
  Zn  Zn112  1  0.18739731  0.94338814  0.43323867  1
  Zn  Zn113  1  0.18872341  0.93677758  0.93459054  1
  Zn  Zn114  1  0.68891201  0.44010384  0.43980135  1
  Zn  Zn115  1  0.68804923  0.43365708  0.93503876  1
  Zn  Zn116  1  0.68957380  0.93958308  0.44012091  1
  Zn  Zn117  1  0.68640469  0.93675592  0.93537121  1
  Zn  Zn118  1  0.32939955  0.06695218  0.05037185  1
  Zn  Zn119  1  0.29999666  0.05316711  0.55056313  1
  Zn  Zn120  1  0.31001191  0.55870871  0.06382643  1
  Zn  Zn121  1  0.32052099  0.55929296  0.56685288  1
  Zn  Zn122  1  0.80605121  0.05871106  0.05380383  1
  Zn  Zn123  1  0.80863573  0.06459235  0.56330885  1
  Zn  Zn124  1  0.80953423  0.55995830  0.07013412  1
  Zn  Zn125  1  0.81344357  0.56247492  0.56281668  1
  Zn  Zn126  1  0.43206687  0.42119119  0.19308813  1
  Zn  Zn127  1  0.43928448  0.43534244  0.69955091  1
  Zn  Zn128  1  0.43607080  0.93624285  0.18419613  1
  Zn  Zn129  1  0.44292053  0.93231021  0.68631933  1
  Zn  Zn130  1  0.93747693  0.43761122  0.18236127  1
  Zn  Zn131  1  0.94097370  0.43977641  0.68817465  1
  Zn  Zn132  1  0.93377698  0.94452162  0.19030883  1
  Zn  Zn133  1  0.93607378  0.94074822  0.68919477  1
  Zn  Zn134  1  0.07324868  0.06679620  0.30786546  1
  Zn  Zn135  1  0.07139029  0.06181642  0.81117569  1
  Zn  Zn136  1  0.06455518  0.56700373  0.31858141  1
  Zn  Zn137  1  0.06432517  0.55584733  0.81240098  1
  Zn  Zn138  1  0.56421779  0.05554045  0.31506699  1
  Zn  Zn139  1  0.55741050  0.06964853  0.80469303  1
  Zn  Zn140  1  0.56651975  0.56015646  0.31346923  1
  Zn  Zn141  1  0.57018176  0.55470267  0.81295844  1
  Zn  Zn142  1  0.43766192  0.19084995  0.43512045  1
  Zn  Zn143  1  0.43072930  0.19529363  0.93519209  1
  Zn  Zn144  1  0.43590283  0.68873922  0.43792034  1
  Zn  Zn145  1  0.43597126  0.68528776  0.93990972  1
  Zn  Zn146  1  0.93929090  0.19447304  0.43930509  1
  Zn  Zn147  1  0.94020662  0.18803958  0.94173881  1
  Zn  Zn148  1  0.93986398  0.69647051  0.44071720  1
  Zn  Zn149  1  0.93613347  0.69768178  0.94456015  1
  Zn  Zn150  1  0.09423450  0.23677272  0.08640125  1
  Zn  Zn151  1  0.05984792  0.31337706  0.56771866  1
  Zn  Zn152  1  0.04649322  0.86481749  0.07102625  1
  Zn  Zn153  1  0.05915422  0.81569303  0.56324863  1
  Zn  Zn154  1  0.56998826  0.30628621  0.05997091  1
  Zn  Zn155  1  0.55835170  0.31403772  0.56773282  1
  Zn  Zn156  1  0.55884653  0.80792573  0.06266979  1
  Zn  Zn157  1  0.56565068  0.81183745  0.55949023  1
  O  O158  1  0.12441851  0.13331942  0.12380009  1
  O  O159  1  0.11977173  0.11914894  0.62074174  1
  O  O160  1  0.12352717  0.61968747  0.11763486  1
  O  O161  1  0.11359564  0.61265728  0.62729381  1
  O  O162  1  0.62115398  0.10961321  0.11974403  1
  O  O163  1  0.62850665  0.11615457  0.61412915  1
  O  O164  1  0.61487704  0.62512193  0.11506904  1
  O  O165  1  0.62886170  0.61660300  0.61361592  1
  O  O166  1  0.38511907  0.38433394  0.37575878  1
  O  O167  1  0.36850543  0.39840274  0.87263865  1
  O  O168  1  0.38166373  0.87616403  0.37939713  1
  O  O169  1  0.38464736  0.86527973  0.87958952  1
  O  O170  1  0.87960864  0.37023725  0.38875418  1
  O  O171  1  0.87924841  0.37344553  0.88560541  1
  O  O172  1  0.88496886  0.87668464  0.38373227  1
  O  O173  1  0.85743751  0.86968113  0.88261478  1
  O  O174  1  0.25414791  0.01730997  0.38059769  1
  O  O175  1  0.25040023  0.00124585  0.85992380  1
  O  O176  1  0.25451873  0.51088932  0.37053888  1
  O  O177  1  0.25264648  0.51252134  0.86398554  1
  O  O178  1  0.74585444  0.00999415  0.36826006  1
  O  O179  1  0.74269380  0.00588820  0.86180081  1
  O  O180  1  0.74802584  0.51119757  0.37022249  1
  O  O181  1  0.74187890  0.50434085  0.86031859  1
  O  O182  1  0.24555667  0.49364299  0.13694513  1
  O  O183  1  0.24218264  0.50705318  0.63519875  1
  O  O184  1  0.25307561  0.98405039  0.11842772  1
  O  O185  1  0.24359733  0.98772494  0.63307037  1
  O  O186  1  0.75070600  0.49095149  0.14016865  1
  O  O187  1  0.74801506  0.49553037  0.63534771  1
  O  O188  1  0.74137688  0.99004351  0.13301856  1
  O  O189  1  0.73804403  1.00091697  0.63238015  1
  O  O190  1  0.00590148  0.38504102  0.26167898  1
  O  O191  1  0.00956430  0.37519739  0.75818215  1
  O  O192  1  0.00810451  0.86664227  0.25868642  1
  O  O193  1  0.01687530  0.88089911  0.74555997  1
  O  O194  1  0.51913752  0.38414179  0.26355720  1
  O  O195  1  0.50208950  0.35812748  0.74970181  1
  O  O196  1  0.51069709  0.88008867  0.26098035  1
  O  O197  1  0.51353827  0.87284787  0.75825776  1
  O  O198  1  0.47001877  0.08685550  0.25221635  1
  O  O199  1  0.49402748  0.13571855  0.74190391  1
  O  O200  1  0.49032999  0.61812290  0.24434207  1
  O  O201  1  0.49122079  0.62426652  0.75315237  1
  O  O202  1  0.99921181  0.13718027  0.25778206  1
  O  O203  1  0.99303870  0.12244649  0.74357011  1
  O  O204  1  1.00147899  0.63595056  0.24727001  1
  O  O205  1  0.99894225  0.61523799  0.73791120  1
  O  O206  1  0.35633388  0.24643527  0.01016407  1
  O  O207  1  0.38304169  0.27082875  0.49878994  1
  O  O208  1  0.37123980  0.75681574  0.00654467  1
  O  O209  1  0.37835676  0.76099326  0.50715884  1
  O  O210  1  0.87573368  0.26697880  0.00295086  1
  O  O211  1  0.88029021  0.26120897  0.51590568  1
  O  O212  1  0.85653451  0.75323447  0.00932187  1
  O  O213  1  0.86838723  0.76010126  0.50503007  1
  O  O214  1  0.13275275  0.24067235  0.51384240  1
  O  O215  1  0.14443054  0.26489834  0.98942270  1
  O  O216  1  0.12420180  0.75861444  0.48712798  1
  O  O217  1  0.12422113  0.73601570  0.98729877  1
  O  O218  1  0.61769026  0.23935730  0.49285712  1
  O  O219  1  0.62050812  0.23840343  0.98451353  1
  O  O220  1  0.63240284  0.74166665  0.49338522  1
  O  O221  1  0.63131397  0.74265949  0.99507064  1
  O  O222  1  0.50551047  0.25223233  0.13405638  1
  O  O223  1  0.50259364  0.24833741  0.63838511  1
  O  O224  1  0.48608798  0.73919671  0.12254717  1
  O  O225  1  0.49019485  0.75281509  0.62393911  1
  O  O226  1  0.99911358  0.25810939  0.14600898  1
  O  O227  1  0.99203398  0.23994587  0.63275277  1
  O  O228  1  0.99475984  0.74997872  0.13677210  1
  O  O229  1  1.00400228  0.73238041  0.61936188  1
  O  O230  1  -0.00504388  0.26422459  0.36361269  1
  O  O231  1  -0.00007591  0.26324298  0.87519599  1
  O  O232  1  0.00990960  0.75736873  0.36874073  1
  O  O233  1  0.01034405  0.73592925  0.86660661  1
  O  O234  1  0.50923775  0.26199198  0.37435232  1
  O  O235  1  0.50982031  0.24350791  0.86404475  1
  O  O236  1  0.51139869  0.76126447  0.38220231  1
  O  O237  1  0.51237194  0.75221361  0.87844292  1
  O  O238  1  0.23547531  0.12948401  0.49008643  1
  O  O239  1  0.23690821  0.11313701  0.98710351  1
  O  O240  1  0.25919808  0.62282075  0.49066948  1
  O  O241  1  0.23963642  0.62247221  0.99044233  1
  O  O242  1  0.73413748  0.11506837  0.48639979  1
  O  O243  1  0.72917323  0.11988713  0.99977242  1
  O  O244  1  0.74501685  0.63103735  0.49351765  1
  O  O245  1  0.73727357  0.62735939  1.00052308  1
  O  O246  1  0.25583024  0.38178306  0.00502162  1
  O  O247  1  0.26403524  0.37264943  0.49788054  1
  O  O248  1  0.25474348  0.87136685  0.00845644  1
  O  O249  1  0.26018945  0.88366698  0.50879048  1
  O  O250  1  0.76522863  0.38943940  0.00756629  1
  O  O251  1  0.76248509  0.38638763  0.51244886  1
  O  O252  1  0.74942194  0.86439219  0.00841649  1
  O  O253  1  0.76378190  0.86602322  0.49131407  1
  O  O254  1  0.13096785  0.50641661  0.24387300  1
  O  O255  1  0.13334997  0.49305247  0.74195905  1
  O  O256  1  0.12575522  0.98436657  0.25003732  1
  O  O257  1  0.13541977  0.98703092  0.74061755  1
  O  O258  1  0.63829050  0.48581877  0.25949179  1
  O  O259  1  0.63817522  0.50681688  0.73405408  1
  O  O260  1  0.63167421  0.99044138  0.24048240  1
  O  O261  1  0.62934823  0.99475814  0.74151435  1
  O  O262  1  0.41087679  0.02740170  0.25256364  1
  O  O263  1  0.36412902  -0.01261597  0.75039663  1
  O  O264  1  0.36426398  0.50653217  0.26060627  1
  O  O265  1  0.36930612  0.51389761  0.75463717  1
  O  O266  1  0.85823673  -0.00447683  0.25549605  1
  O  O267  1  0.86348627  0.00873181  0.74319845  1
  O  O268  1  0.86554726  0.50029016  0.25124409  1
  O  O269  1  0.86425106  0.50782466  0.74719913  1
  O  O270  1  0.11184709  0.38317113  0.36852275  1
  O  O271  1  0.11769324  0.38187236  0.85911583  1
  O  O272  1  0.12283455  0.87032228  0.36835381  1
  O  O273  1  0.13084170  0.86300138  0.86044946  1
  O  O274  1  0.62169926  0.36921788  0.37781729  1
  O  O275  1  0.62011100  0.36369466  0.87969896  1
  O  O276  1  0.62067889  0.86818438  0.37066272  1
  O  O277  1  0.61831059  0.86530626  0.87002102  1
  O  O278  1  0.34270930  0.13117656  0.13835535  1
  O  O279  1  0.34589320  0.14219524  0.61243119  1
  O  O280  1  0.37983872  0.62703766  0.13208331  1
  O  O281  1  0.37442584  0.63109041  0.63796654  1
  O  O282  1  0.89596488  0.12549031  0.09277480  1
  O  O283  1  0.88050549  0.13072804  0.62800128  1
  O  O284  1  0.88178785  0.63353143  0.12926019  1
  O  O285  1  0.89171113  0.62426633  0.62261506  1
  O  O286  1  0.23519670  0.26176610  0.11025258  1
  O  O287  1  0.29466181  0.20963980  0.61682268  1
  O  O288  1  0.26494730  0.75135910  0.12171621  1
  O  O289  1  0.25692522  0.75976805  0.62656832  1
  O  O290  1  0.75590768  0.27042325  0.12890050  1
  O  O291  1  0.75673151  0.26349281  0.63368206  1
  O  O292  1  0.74924968  0.75413552  0.12197425  1
  O  O293  1  0.74756716  0.74428913  0.61049809  1
  O  O294  1  0.26158768  0.24015503  0.37661815  1
  O  O295  1  0.25812005  0.24463700  0.89094498  1
  O  O296  1  0.24358019  0.74207905  0.37031438  1
  O  O297  1  0.24179214  0.73736319  0.87362934  1
  O  O298  1  0.73997339  0.23676617  0.37527952  1
  O  O299  1  0.73135543  0.24714179  0.86698140  1
  O  O300  1  0.74058252  0.74298913  0.38340224  1
  O  O301  1  0.73694159  0.73852517  0.88597914  1
  O  O302  1  -0.03800944  0.12320497  0.03569022  1
  O  O303  1  0.01128442  0.13308324  0.51000299  1
  O  O304  1  0.00617762  0.62179022  0.00466066  1
  O  O305  1  -0.00208697  0.61329495  0.50384324  1
  O  O306  1  0.51273437  0.12273564  -0.00504506  1
  O  O307  1  0.50418658  0.11574568  0.50263310  1
  O  O308  1  0.51156396  0.62419434  0.00746692  1
  O  O309  1  0.51574936  0.62835378  0.49644244  1
  O  O310  1  0.49314881  0.37913159  0.49080973  1
  O  O311  1  0.49348278  0.38427672  1.00302943  1
  O  O312  1  0.49199710  0.88001988  0.49458962  1
  O  O313  1  0.49183652  0.86680440  0.98873904  1
  O  O314  1  0.99404602  0.38008144  0.49408483  1
  O  O315  1  0.98588900  0.38613349  0.99186992  1
  O  O316  1  0.98812466  0.87113239  0.48942426  1
  O  O317  1  0.97491330  0.84940561  0.98781584  1
  O  O318  1  0.49026122  0.49479506  0.37221078  1
  O  O319  1  0.48894744  0.50317171  0.87025704  1
  O  O320  1  0.50333100  0.98632684  0.38963012  1
  O  O321  1  0.50124923  0.98433952  0.86813983  1
  O  O322  1  1.00198742  0.49638656  0.38938644  1
  O  O323  1  1.00377565  0.49123336  0.88556980  1
  O  O324  1  1.00177244  0.98847051  0.36713893  1
  O  O325  1  1.03557867  1.00746798  0.91084860  1
  O  O326  1  0.01133516  -0.03655271  0.11666359  1
  O  O327  1  0.00982498  0.01231124  0.62935551  1
  O  O328  1  0.00735671  0.50923780  0.11747332  1
  O  O329  1  0.00664067  0.50790108  0.61577181  1
  O  O330  1  0.51561187  -0.01369372  0.12011641  1
  O  O331  1  0.50556962  0.00352547  0.61657891  1
  O  O332  1  0.48727999  0.50535919  0.13190856  1
  O  O333  1  0.51600926  0.49736819  0.63303436  1
  O  O334  1  0.22940937  0.39010428  0.26335647  1
  O  O335  1  0.23875663  0.38579683  0.75587607  1
  O  O336  1  0.24839042  0.87272993  0.23604884  1
  O  O337  1  0.24288585  0.88007075  0.74016618  1
  O  O338  1  0.74433149  0.38132373  0.24844928  1
  O  O339  1  0.75677132  0.38923835  0.74157379  1
  O  O340  1  0.73963344  0.87971422  0.24626314  1
  O  O341  1  0.73348672  0.88506684  0.75369607  1
  O  O342  1  0.23187557  0.12869525  0.27081213  1
  O  O343  1  0.25367249  0.10484877  0.74621205  1
  O  O344  1  0.25897778  0.61840012  0.25522544  1
  O  O345  1  0.25076864  0.61760694  0.75592048  1
  O  O346  1  0.74240446  0.11591093  0.26814814  1
  O  O347  1  0.75883868  0.11675668  0.74852682  1
  O  O348  1  0.74990251  0.61675682  0.25901553  1
  O  O349  1  0.74990549  0.61365910  0.76139089  1
  O  O350  1  0.36516026  0.12286734  0.37878176  1
  O  O351  1  0.35595387  0.12299150  0.88019229  1
  O  O352  1  0.37089986  0.62106480  0.36963246  1
  O  O353  1  0.36901244  0.62438466  0.86109208  1
  O  O354  1  0.85908833  0.12641486  0.38790623  1
  O  O355  1  0.87581844  0.13195513  0.86190251  1
  O  O356  1  0.86335782  0.63529469  0.37585416  1
  O  O357  1  0.85809362  0.62989937  0.88473388  1
  O  O358  1  0.11950665  0.39171488  0.14448855  1
  O  O359  1  0.11582545  0.38846818  0.63928649  1
  O  O360  1  0.14398507  0.86242315  0.13076178  1
  O  O361  1  0.13040873  0.87893411  0.63026586  1
  O  O362  1  0.63081453  0.37344204  0.13940720  1
  O  O363  1  0.63603668  0.39132398  0.61206215  1
  O  O364  1  0.63165756  0.87553775  0.13095881  1
  O  O365  1  0.61756046  0.88450733  0.63233008  1
  O  O366  1  0.11071869  0.27004106  0.25394912  1
  O  O367  1  0.13293464  0.26559833  0.73628721  1
  O  O368  1  0.11799262  0.75878326  0.25729766  1
  O  O369  1  0.12904828  0.76133975  0.75116912  1
  O  O370  1  0.62892568  0.26595445  0.26466598  1
  O  O371  1  0.61662458  0.24802581  0.76092335  1
  O  O372  1  0.63100981  0.75814755  0.26147221  1
  O  O373  1  0.63477066  0.75622029  0.76007330  1
  O  O374  1  0.36147825  0.33090765  0.19696511  1
  O  O375  1  0.38393119  0.25256210  0.75610767  1
  O  O376  1  0.37212310  0.73652040  0.24308653  1
  O  O377  1  0.37316393  0.73680993  0.74258985  1
  O  O378  1  0.88475119  0.25158275  0.24646247  1
  O  O379  1  0.87661817  0.24039639  0.74004247  1
  O  O380  1  0.88561181  0.75173930  0.24866063  1
  O  O381  1  0.86388177  0.74145705  0.74234463  1
  O  O382  1  0.37047195  0.49100675  0.48728660  1
  O  O383  1  0.37419575  0.51909005  0.98085668  1
  O  O384  1  0.38406405  0.98755936  0.50226448  1
  O  O385  1  0.37231974  0.98148864  0.99018786  1
  O  O386  1  0.89132696  0.48969767  0.50885436  1
  O  O387  1  0.88478265  0.49953160  1.00494262  1
  O  O388  1  0.86788961  0.98800978  0.49670060  1
  O  O389  1  0.86690943  0.97685888  1.00014676  1
  O  O390  1  0.09411916  0.00252452  -0.03151586  1
  O  O391  1  0.13074308  0.01191930  0.51361522  1
  O  O392  1  0.11752261  0.50869185  0.00710667  1
  O  O393  1  0.11142969  0.49108008  0.50904527  1
  O  O394  1  0.62706870  0.00168423  0.01076311  1
  O  O395  1  0.61649272  0.00333563  0.50724469  1
  O  O396  1  0.62651261  0.50965950  -0.00078417  1
  O  O397  1  0.62911042  0.51379924  0.50907328  1
  O  O398  1  0.42892639  0.38535794  0.04092334  1
  O  O399  1  0.37884174  0.38979010  0.61154865  1
  O  O400  1  0.36866143  0.86800552  0.11948992  1
  O  O401  1  0.36997802  0.86564850  0.61906781  1
  O  O402  1  0.87191851  0.37623464  0.11171371  1
  O  O403  1  0.87107142  0.36918979  0.62205348  1
  O  O404  1  0.85917910  0.86668526  0.12549531  1
  O  O405  1  0.88565557  0.87512070  0.60857664  1
  O  O406  1  0.12294066  0.12756011  0.39190008  1
  O  O407  1  0.14860652  0.13336568  0.85384273  1
  O  O408  1  0.13673950  0.63641251  0.37370975  1
  O  O409  1  0.13078967  0.62723791  0.87830281  1
  O  O410  1  0.62487157  0.13232339  0.38072954  1
  O  O411  1  0.62513964  0.12349964  0.88310751  1
  O  O412  1  0.63173339  0.63061410  0.38466803  1
  O  O413  1  0.63040711  0.62708648  0.88781631  1
