# generated using pymatgen
data_V79Zn79O256
_symmetry_space_group_name_H-M   'P 1'
_cell_length_a   16.92704881
_cell_length_b   16.92182138
_cell_length_c   16.88418782
_cell_angle_alpha   89.93844838
_cell_angle_beta   89.88198306
_cell_angle_gamma   90.07366850
_symmetry_Int_Tables_number   1
_chemical_formula_structural   V79Zn79O256
_chemical_formula_sum   'V79 Zn79 O256'
_cell_volume   4836.23054306
_cell_formula_units_Z   1
loop_
 _symmetry_equiv_pos_site_id
 _symmetry_equiv_pos_as_xyz
  1  'x, y, z'
loop_
 _atom_site_type_symbol
 _atom_site_label
 _atom_site_symmetry_multiplicity
 _atom_site_fract_x
 _atom_site_fract_y
 _atom_site_fract_z
 _atom_site_occupancy
  V  V0  1  0.24021523  0.74936282  0.00219529  1
  V  V1  1  0.75801741  0.75127000  0.02622998  1
  V  V2  1  0.11922160  0.36634289  0.73673654  1
  V  V3  1  0.75148775  0.62232684  0.37423656  1
  V  V4  1  0.37434014  0.37675390  0.00810879  1
  V  V5  1  0.74796367  0.37092101  0.12159663  1
  V  V6  1  0.37558427  0.49490871  0.87584169  1
  V  V7  1  0.87465505  0.49842424  0.87816660  1
  V  V8  1  0.13094906  0.37319910  0.23962310  1
  V  V9  1  0.11521280  0.25465539  0.87475519  1
  V  V10  1  0.62823615  0.49170532  0.62358124  1
  V  V11  1  0.25371011  0.27426907  0.50113538  1
  V  V12  1  0.75129470  0.63690664  0.87326566  1
  V  V13  1  0.36999226  0.24504881  0.12837929  1
  V  V14  1  0.12695387  0.72720691  0.38241468  1
  V  V15  1  0.49862717  0.89123903  0.36972618  1
  V  V16  1  0.24887395  0.49887237  0.24934415  1
  V  V17  1  0.75176262  -0.01786537  0.22386868  1
  V  V18  1  0.00387157  -0.00615960  -0.00173920  1
  V  V19  1  0.61165756  0.74632467  0.37296405  1
  V  V20  1  0.62633061  0.62179268  0.50788874  1
  V  V21  1  0.12794308  0.12618028  0.00358388  1
  V  V22  1  0.50005922  0.24997170  0.75077399  1
  V  V23  1  0.00159111  0.74212299  0.24698752  1
  V  V24  1  0.37048626  0.62737551  0.26092932  1
  V  V25  1  0.49898415  0.49687058  -0.00650084  1
  V  V26  1  0.36934190  0.12169108  0.27100640  1
  V  V27  1  0.62292550  0.37426066  0.25944998  1
  V  V28  1  0.00917356  0.73926450  0.74731332  1
  V  V29  1  0.13282309  0.24676776  0.37477080  1
  V  V30  1  0.72374071  0.11026449  0.36870357  1
  V  V31  1  0.37872270  0.88512958  -0.00065786  1
  V  V32  1  0.62394262  0.86301294  0.22788407  1
  V  V33  1  0.74566351  0.87903549  0.63238753  1
  V  V34  1  0.25340964  0.00131750  0.26466691  1
  V  V35  1  0.00242862  0.24752160  0.25601584  1
  V  V36  1  0.62498119  0.62925724  -0.00451862  1
  V  V37  1  0.74077970  0.15124101  0.87393799  1
  V  V38  1  0.24452527  0.49349932  0.74678526  1
  V  V39  1  0.88069721  -0.00317051  0.36935094  1
  V  V40  1  0.37762651  0.74995832  0.12660954  1
  V  V41  1  0.74566454  0.50078088  0.74750799  1
  V  V42  1  0.00126727  -0.00056806  0.50126967  1
  V  V43  1  0.72864111  0.25073438  0.51064090  1
  V  V44  1  0.88059991  0.62285882  0.23949013  1
  V  V45  1  0.51276739  0.01127465  0.51194712  1
  V  V46  1  0.14137106  0.11391612  0.49870041  1
  V  V47  1  0.75067126  0.49649919  0.25109377  1
  V  V48  1  0.88380008  0.86734109  0.48970860  1
  V  V49  1  0.12233315  0.87243233  0.26593494  1
  V  V50  1  0.87334707  0.25029800  0.12872480  1
  V  V51  1  0.88237542  0.37778996  0.00250604  1
  V  V52  1  0.87801720  0.00369332  0.85639257  1
  V  V53  1  0.24049982  -0.00228227  0.74460948  1
  V  V54  1  0.12781917  -0.00009400  0.12962573  1
  V  V55  1  0.38035167  0.00657817  0.87867018  1
  V  V56  1  0.60945767  0.38560548  0.76277314  1
  V  V57  1  0.75450197  0.74911436  0.49940778  1
  V  V58  1  0.12142835  0.51714837  0.62436502  1
  V  V59  1  0.11518356  0.51395810  0.11480267  1
  V  V60  1  0.49170407  0.50056918  0.50288080  1
  V  V61  1  0.01583246  0.88233194  0.85992669  1
  V  V62  1  0.87501892  0.48789400  0.38041730  1
  V  V63  1  0.24073454  0.87697763  0.62741289  1
  V  V64  1  0.62261793  0.49867150  0.12595602  1
  V  V65  1  0.37518288  0.12607393  0.73603834  1
  V  V66  1  0.25376438  0.73812926  0.49847600  1
  V  V67  1  0.49665105  0.62675631  0.12893567  1
  V  V68  1  0.37350814  0.27222258  0.62035788  1
  V  V69  1  0.49646809  0.24955558  0.25371940  1
  V  V70  1  0.13646301  0.76167583  0.86760747  1
  V  V71  1  0.24648841  0.12782009  0.87160949  1
  V  V72  1  0.24580224  0.87538539  0.13050510  1
  V  V73  1  0.37289803  0.62801089  0.73580849  1
  V  V74  1  0.48891490  0.37557120  0.37973508  1
  V  V75  1  -0.00427971  0.50724154  0.50885512  1
  V  V76  1  0.24856706  0.62667533  0.88202524  1
  V  V77  1  0.24839540  0.25749444  0.00486913  1
  V  V78  1  0.37960742  0.88143522  0.50689228  1
  Zn  Zn79  1  0.36247892  0.50451709  0.38209416  1
  Zn  Zn80  1  -0.00173870  0.12359117  0.12682933  1
  Zn  Zn81  1  0.49656026  0.74548505  0.69864274  1
  Zn  Zn82  1  0.88779863  0.74090303  0.62127660  1
  Zn  Zn83  1  0.61008442  0.25946297  0.89126069  1
  Zn  Zn84  1  0.56434983  0.82057713  0.82987278  1
  Zn  Zn85  1  0.00214508  0.37199513  0.38284533  1
  Zn  Zn86  1  -0.00318850  0.37280185  0.87273603  1
  Zn  Zn87  1  -0.07538497  0.19135856  0.67661131  1
  Zn  Zn88  1  0.88591090  0.33398755  0.53798838  1
  Zn  Zn89  1  0.88768202  0.61907738  0.74669914  1
  Zn  Zn90  1  0.59904019  0.06885141  0.06661913  1
  Zn  Zn91  1  0.06059366  0.06079692  0.66966454  1
  Zn  Zn92  1  0.87483786  0.87323852  0.00386894  1
  Zn  Zn93  1  0.87582498  0.12036643  0.24760102  1
  Zn  Zn94  1  0.19305420  0.18471155  0.18884947  1
  Zn  Zn95  1  0.18918036  0.19116962  0.68163469  1
  Zn  Zn96  1  0.18732619  0.68547608  0.19128993  1
  Zn  Zn97  1  0.19782043  0.69067100  0.68827117  1
  Zn  Zn98  1  0.69798460  0.19344876  0.21393418  1
  Zn  Zn99  1  0.70079290  0.19653874  0.71110355  1
  Zn  Zn100  1  0.68522485  0.68308760  0.18972975  1
  Zn  Zn101  1  0.68751943  0.70132297  0.69033690  1
  Zn  Zn102  1  0.30979759  0.31567475  0.31514525  1
  Zn  Zn103  1  0.31084282  0.31420076  0.81359754  1
  Zn  Zn104  1  0.31501748  0.80843373  0.31851808  1
  Zn  Zn105  1  0.35437913  0.82821648  0.79508807  1
  Zn  Zn106  1  0.83096272  0.27675591  0.35088718  1
  Zn  Zn107  1  0.80156387  0.32069694  0.81085096  1
  Zn  Zn108  1  0.81286262  0.80796765  0.30676494  1
  Zn  Zn109  1  0.82807330  0.81747826  0.81497468  1
  Zn  Zn110  1  0.17927954  0.44441809  0.43335244  1
  Zn  Zn111  1  0.18524484  0.43715948  0.93560054  1
  Zn  Zn112  1  0.19046020  0.93135350  0.44255870  1
  Zn  Zn113  1  0.19430982  0.93990055  0.93865300  1
  Zn  Zn114  1  0.68998774  0.42906108  0.44248403  1
  Zn  Zn115  1  0.68843617  0.44071204  0.93678669  1
  Zn  Zn116  1  0.68566425  0.93268858  0.43569856  1
  Zn  Zn117  1  0.70003626  0.92418881  0.93742577  1
  Zn  Zn118  1  0.41810161  0.05516654  0.07633222  1
  Zn  Zn119  1  0.32040481  0.05669314  0.55856607  1
  Zn  Zn120  1  0.30463755  0.56081616  0.06828819  1
  Zn  Zn121  1  0.30439293  0.55223436  0.56278034  1
  Zn  Zn122  1  0.80835770  0.06649157  0.05124363  1
  Zn  Zn123  1  0.78645740  0.06944653  0.55794180  1
  Zn  Zn124  1  0.81150321  0.55998604  0.06102788  1
  Zn  Zn125  1  0.81592169  0.56394826  0.56783214  1
  Zn  Zn126  1  0.43431136  0.43945873  0.18763757  1
  Zn  Zn127  1  0.43719731  0.44499860  0.68698455  1
  Zn  Zn128  1  0.44224476  0.93675961  0.18917768  1
  Zn  Zn129  1  0.44558483  0.93647288  0.69202238  1
  Zn  Zn130  1  0.94190671  0.43599901  0.19188745  1
  Zn  Zn131  1  0.93884189  0.43670690  0.69467411  1
  Zn  Zn132  1  0.93983590  0.92190001  0.18480869  1
  Zn  Zn133  1  0.93114639  0.92443392  0.67725280  1
  Zn  Zn134  1  0.06214548  0.06371305  0.31793427  1
  Zn  Zn135  1  0.02387227  0.10121463  0.82910275  1
  Zn  Zn136  1  0.06240980  0.55508575  0.31377343  1
  Zn  Zn137  1  0.04478862  0.58386805  0.87509280  1
  Zn  Zn138  1  0.56730398  0.06813277  0.22988922  1
  Zn  Zn139  1  0.59379331  0.02073764  0.88333552  1
  Zn  Zn140  1  0.55834984  0.56115455  0.31564734  1
  Zn  Zn141  1  0.57952327  0.61102301  0.78960865  1
  Zn  Zn142  1  0.43949853  0.18800994  0.44189211  1
  Zn  Zn143  1  0.43513716  0.19160634  0.93367706  1
  Zn  Zn144  1  0.45167201  0.70183872  0.49272304  1
  Zn  Zn145  1  0.43454685  0.68769388  0.92942168  1
  Zn  Zn146  1  0.91847697  0.17284882  0.50803192  1
  Zn  Zn147  1  0.91884018  0.18094884  0.95086998  1
  Zn  Zn148  1  0.94181997  0.68182368  0.42890944  1
  Zn  Zn149  1  0.93465639  0.68207308  0.95021434  1
  Zn  Zn150  1  0.05858763  0.31584235  0.06455417  1
  Zn  Zn151  1  0.05979603  0.30820345  0.55578079  1
  Zn  Zn152  1  0.04076486  0.81462856  0.07022150  1
  Zn  Zn153  1  0.06681886  0.81168112  0.55979753  1
  Zn  Zn154  1  0.55514127  0.31047892  0.07157450  1
  Zn  Zn155  1  0.56134412  0.31182978  0.56389151  1
  Zn  Zn156  1  0.55016440  0.80030612  0.02383406  1
  Zn  Zn157  1  0.57051287  0.82132775  0.55674511  1
  O  O158  1  0.12908346  0.11693142  0.11902574  1
  O  O159  1  0.13140088  0.12710726  0.60308669  1
  O  O160  1  0.12818390  0.61317221  0.12825777  1
  O  O161  1  0.12500047  0.61510352  0.62980966  1
  O  O162  1  0.62643389  0.13153874  0.15387578  1
  O  O163  1  0.63784703  0.08979767  0.66626869  1
  O  O164  1  0.61662916  0.61902280  0.11962975  1
  O  O165  1  0.62945608  0.61636692  0.61126098  1
  O  O166  1  0.38578833  0.38364885  0.37251378  1
  O  O167  1  0.36992282  0.38776057  0.88549703  1
  O  O168  1  0.39436782  0.86917661  0.37552925  1
  O  O169  1  0.36353474  0.89004591  0.89273485  1
  O  O170  1  0.87237975  0.38613719  0.36711644  1
  O  O171  1  0.87028405  0.37820107  0.88579150  1
  O  O172  1  0.86571723  0.87968813  0.38234290  1
  O  O173  1  0.89504958  0.88832298  0.88178171  1
  O  O174  1  0.25036187  -0.00883979  0.36344174  1
  O  O175  1  0.25473337  0.01246981  0.86728262  1
  O  O176  1  0.24852914  0.49849993  0.36064277  1
  O  O177  1  0.25525378  0.50771414  0.87103102  1
  O  O178  1  0.75859895  -0.00028706  0.37495679  1
  O  O179  1  0.77922425  0.00413659  0.87529446  1
  O  O180  1  0.75472780  0.50424754  0.37308177  1
  O  O181  1  0.75564460  0.50868141  0.86942664  1
  O  O182  1  0.23831709  0.50124449  0.14035810  1
  O  O183  1  0.23129993  0.49802383  0.63066524  1
  O  O184  1  0.23864968  0.98871811  0.13949326  1
  O  O185  1  0.25997209  0.98686798  0.63039224  1
  O  O186  1  0.74284603  0.49216459  0.13165598  1
  O  O187  1  0.73912085  0.50427764  0.63454999  1
  O  O188  1  0.76865329  0.98761501  0.12563716  1
  O  O189  1  0.75829821  0.97741702  0.61348699  1
  O  O190  1  0.01209622  0.36392683  0.25494464  1
  O  O191  1  0.01633291  0.37095345  0.75234140  1
  O  O192  1  0.01227903  0.85435934  0.25198251  1
  O  O193  1  0.00528901  0.87168889  0.75654294  1
  O  O194  1  0.50155187  0.37513361  0.26142394  1
  O  O195  1  0.50142770  0.36911109  0.74530528  1
  O  O196  1  0.51460315  0.87791911  0.25889882  1
  O  O197  1  0.46740911  0.84548553  0.75639238  1
  O  O198  1  0.47971543  0.13951562  0.26110820  1
  O  O199  1  0.48557208  0.14670581  0.74443466  1
  O  O200  1  0.48874852  0.61752013  0.23687880  1
  O  O201  1  0.47452880  0.62725009  0.75117985  1
  O  O202  1  1.00039034  0.13249363  0.24705500  1
  O  O203  1  1.01521725  0.14495151  0.72805516  1
  O  O204  1  0.99154516  0.63089066  0.26403059  1
  O  O205  1  1.00973812  0.63810008  0.76626264  1
  O  O206  1  0.36872958  0.25716509  0.00694939  1
  O  O207  1  0.36440786  0.25253797  0.50891923  1
  O  O208  1  0.36278107  0.76623033  0.00939259  1
  O  O209  1  0.35850636  0.76543886  0.48763254  1
  O  O210  1  0.87987893  0.26272269  0.01888484  1
  O  O211  1  0.84188487  0.24749544  0.46451514  1
  O  O212  1  0.85755589  0.74564890  -0.00665360  1
  O  O213  1  0.86995137  0.75018797  0.49046465  1
  O  O214  1  0.14191708  0.24164862  0.49525964  1
  O  O215  1  0.12999287  0.24724685  0.99671319  1
  O  O216  1  0.13666788  0.75107683  0.48963777  1
  O  O217  1  0.13761471  0.76116328  0.99301576  1
  O  O218  1  0.62894884  0.25589303  0.49077132  1
  O  O219  1  0.58289195  0.22291812  1.00028005  1
  O  O220  1  0.63817293  0.73910681  0.48886520  1
  O  O221  1  0.64601114  0.73634301  1.01097354  1
  O  O222  1  0.48137611  0.26244223  0.14566083  1
  O  O223  1  0.48099153  0.25812587  0.62899099  1
  O  O224  1  0.48625267  0.73900476  0.11253569  1
  O  O225  1  0.49989003  0.74060568  0.58798994  1
  O  O226  1  0.99267243  0.25007610  0.13708116  1
  O  O227  1  0.96699153  0.25198371  0.58169619  1
  O  O228  1  1.02363095  0.73212076  0.15039546  1
  O  O229  1  1.01232020  0.75348979  0.64294517  1
  O  O230  1  0.01377136  0.25052820  0.36463228  1
  O  O231  1  0.01284127  0.24594537  0.88375494  1
  O  O232  1  0.02077190  0.74305362  0.37151072  1
  O  O233  1  0.01980498  0.76458171  0.86600081  1
  O  O234  1  0.48972688  0.26678536  0.36977516  1
  O  O235  1  0.49264745  0.25529907  0.85518001  1
  O  O236  1  0.51210464  0.74444480  0.38832643  1
  O  O237  1  0.51528861  0.76115671  0.91695251  1
  O  O238  1  0.24159448  0.11212113  0.49338540  1
  O  O239  1  0.23852623  0.13741366  0.98820850  1
  O  O240  1  0.25898574  0.63950690  0.50292545  1
  O  O241  1  0.25977319  0.63779165  0.99382070  1
  O  O242  1  0.73344835  0.13293506  0.47417753  1
  O  O243  1  0.78769862  0.13722888  0.96636850  1
  O  O244  1  0.74527712  0.62723775  0.49099429  1
  O  O245  1  0.74534281  0.63189371  0.99559152  1
  O  O246  1  0.25870174  0.36364235  -0.00728399  1
  O  O247  1  0.24720448  0.37226653  0.50027443  1
  O  O248  1  0.25363305  0.87220151  0.01553118  1
  O  O249  1  0.26312747  0.87650123  0.50965032  1
  O  O250  1  0.75178395  0.37734167  0.01619684  1
  O  O251  1  0.75044188  0.35571281  0.50322973  1
  O  O252  1  0.75487860  0.85514579  0.00656922  1
  O  O253  1  0.75771874  0.86080340  0.49959365  1
  O  O254  1  0.12971884  0.49050002  0.24572037  1
  O  O255  1  0.12739178  0.48535982  0.73402862  1
  O  O256  1  0.12989797  0.99322403  0.24879727  1
  O  O257  1  0.14137124  1.00877058  0.74266320  1
  O  O258  1  0.62756732  0.49499569  0.24469141  1
  O  O259  1  0.62099259  0.50359043  0.74184119  1
  O  O260  1  0.64227921  0.97490904  0.23519564  1
  O  O261  1  0.62510900  1.03114635  0.70928225  1
  O  O262  1  0.36917724  0.01517188  0.24637307  1
  O  O263  1  0.36801722  0.01040107  0.75751687  1
  O  O264  1  0.36736391  0.51161820  0.24811750  1
  O  O265  1  0.36507402  0.50308675  0.75756049  1
  O  O266  1  0.86889731  -0.02174484  0.25655148  1
  O  O267  1  0.88797362  -0.00639794  0.75702096  1
  O  O268  1  0.87141972  0.50439333  0.25974752  1
  O  O269  1  0.86015622  0.49850108  0.75681128  1
  O  O270  1  0.12481141  0.36147855  0.36821026  1
  O  O271  1  0.12117597  0.36790253  0.86909781  1
  O  O272  1  0.12812910  0.87017818  0.36754792  1
  O  O273  1  0.13309670  0.87100518  0.86869577  1
  O  O274  1  0.61341251  0.38426758  0.36458909  1
  O  O275  1  0.61588799  0.37972577  0.86901873  1
  O  O276  1  0.61243304  0.86318778  0.37344332  1
  O  O277  1  0.62479045  0.91234248  0.85410119  1
  O  O278  1  0.37261016  0.14214748  0.13071270  1
  O  O279  1  0.36548566  0.13211736  0.63372664  1
  O  O280  1  0.37974012  0.63243089  0.12716969  1
  O  O281  1  0.36732803  0.61280949  0.63656173  1
  O  O282  1  0.87525427  0.13645196  0.12604741  1
  O  O283  1  0.87356486  0.12029366  0.60162101  1
  O  O284  1  0.87336729  0.61514386  0.14014989  1
  O  O285  1  0.87536427  0.62981237  0.63464606  1
  O  O286  1  0.25467396  0.24872080  0.11361544  1
  O  O287  1  0.25968454  0.25156626  0.61030964  1
  O  O288  1  0.25461166  0.75710486  0.12209128  1
  O  O289  1  0.24558616  0.76307004  0.60940278  1
  O  O290  1  0.76335023  0.26152029  0.14218408  1
  O  O291  1  0.73413056  0.23099031  0.60865592  1
  O  O292  1  0.76135125  0.74202637  0.12549012  1
  O  O293  1  0.75247540  0.75041387  0.60861275  1
  O  O294  1  0.24702248  0.25417415  0.39153579  1
  O  O295  1  0.24305567  0.24419077  0.88217728  1
  O  O296  1  0.23890026  0.75356400  0.38671523  1
  O  O297  1  0.25015169  0.74640475  0.88488978  1
  O  O298  1  0.73998727  0.21011749  0.33010829  1
  O  O299  1  0.72930430  0.25733876  0.87829704  1
  O  O300  1  0.74639108  0.73709241  0.37887076  1
  O  O301  1  0.75584254  0.73773831  0.86648418  1
  O  O302  1  0.01570823  0.11709992  0.00322980  1
  O  O303  1  0.00988759  0.10262166  0.49307586  1
  O  O304  1  0.01792305  0.62160333  -0.02326424  1
  O  O305  1  -0.00356646  0.60695396  0.49884102  1
  O  O306  1  0.52511267  0.15618713  0.00001872  1
  O  O307  1  0.49643917  0.11018580  0.49758351  1
  O  O308  1  0.50633233  0.61639455  0.00946520  1
  O  O309  1  0.51467042  0.60545883  0.48622808  1
  O  O310  1  0.50577362  0.38669445  0.48762900  1
  O  O311  1  0.48967239  0.38668577  1.00545171  1
  O  O312  1  0.49322754  0.88172295  0.48860311  1
  O  O313  1  0.47628708  0.88824050  1.01503693  1
  O  O314  1  0.99020967  0.38686356  0.49983723  1
  O  O315  1  0.98620128  0.37645411  0.99777398  1
  O  O316  1  0.99313612  0.87801175  0.49727276  1
  O  O317  1  1.02457937  0.88854010  0.97967068  1
  O  O318  1  0.49603271  0.49076452  0.38347069  1
  O  O319  1  0.48613094  0.51150006  0.88896209  1
  O  O320  1  0.50261560  0.98856376  0.38043114  1
  O  O321  1  0.47852011  1.01895669  0.87829696  1
  O  O322  1  0.99272463  0.49606445  0.38783355  1
  O  O323  1  0.97816813  0.49227943  0.86099837  1
  O  O324  1  0.98784181  0.99403897  0.37664323  1
  O  O325  1  1.00961516  0.99529159  0.88041299  1
  O  O326  1  0.01694646  -0.00085881  0.12066154  1
  O  O327  1  0.00191079  -0.01344696  0.60590861  1
  O  O328  1  0.01571775  0.49753795  0.13146916  1
  O  O329  1  0.00693030  0.49653116  0.61946122  1
  O  O330  1  0.50531538  0.01552841  0.13371095  1
  O  O331  1  0.49709975  -0.00374479  0.61214216  1
  O  O332  1  0.50187577  0.50697525  0.11608095  1
  O  O333  1  0.50693459  0.49657953  0.60815508  1
  O  O334  1  0.24076986  0.38153489  0.25244734  1
  O  O335  1  0.23883330  0.38722018  0.75830829  1
  O  O336  1  0.24497512  0.87767384  0.24661452  1
  O  O337  1  0.26300383  0.88181778  0.73430518  1
  O  O338  1  0.73649598  0.38187607  0.24218352  1
  O  O339  1  0.72631834  0.39495223  0.75828984  1
  O  O340  1  0.73934025  0.87243199  0.24572483  1
  O  O341  1  0.76598911  0.86256622  0.73051381  1
  O  O342  1  0.26064079  0.11699481  0.25128722  1
  O  O343  1  0.25486606  0.12185394  0.75499845  1
  O  O344  1  0.26438336  0.61890129  0.24907866  1
  O  O345  1  0.25360229  0.60929197  0.75671736  1
  O  O346  1  0.75867094  0.08692705  0.25047786  1
  O  O347  1  0.78088586  0.14957846  0.77767588  1
  O  O348  1  0.75687778  0.61719170  0.25772344  1
  O  O349  1  0.73987622  0.61457992  0.75908463  1
  O  O350  1  0.36778592  0.12880430  0.36933288  1
  O  O351  1  0.36119284  0.12664479  0.86847596  1
  O  O352  1  0.38305182  0.62601201  0.35942812  1
  O  O353  1  0.36461149  0.61591495  0.87034511  1
  O  O354  1  0.86912330  0.09945087  0.36703180  1
  O  O355  1  0.90940627  0.10597521  0.86734144  1
  O  O356  1  0.86451011  0.61235283  0.36982224  1
  O  O357  1  0.86522242  0.61485892  0.86982592  1
  O  O358  1  0.12456358  0.37781163  0.13613480  1
  O  O359  1  0.12411606  0.36271250  0.63559280  1
  O  O360  1  0.13121050  0.87903204  0.13725227  1
  O  O361  1  0.14203170  0.88032216  0.61887732  1
  O  O362  1  0.62842185  0.37873114  0.13137161  1
  O  O363  1  0.61809703  0.38791625  0.63612755  1
  O  O364  1  0.61220092  0.85186036  0.13185603  1
  O  O365  1  0.64424718  0.86691183  0.62569911  1
  O  O366  1  0.12558183  0.25275334  0.25513601  1
  O  O367  1  0.13915413  0.26152134  0.76027416  1
  O  O368  1  0.12562909  0.75152610  0.26646002  1
  O  O369  1  0.12586985  0.74979819  0.75876302  1
  O  O370  1  0.60630117  0.26618094  0.24820458  1
  O  O371  1  0.60846369  0.26300947  0.74544070  1
  O  O372  1  0.62924981  0.75607590  0.25932812  1
  O  O373  1  0.59939006  0.72673275  0.75634589  1
  O  O374  1  0.37101354  0.24163884  0.24849883  1
  O  O375  1  0.37424275  0.25002890  0.73715598  1
  O  O376  1  0.36863814  0.73836558  0.23883419  1
  O  O377  1  0.35125831  0.72677570  0.74564176  1
  O  O378  1  0.88802540  0.24762103  0.24830884  1
  O  O379  1  0.86338388  0.29099856  0.71427804  1
  O  O380  1  0.89309668  0.74009073  0.25820838  1
  O  O381  1  0.90185313  0.74877004  0.75475746  1
  O  O382  1  0.38818223  0.50585404  0.49948047  1
  O  O383  1  0.37715108  0.49473197  0.99752376  1
  O  O384  1  0.38519410  0.98594074  0.49462685  1
  O  O385  1  0.36291038  0.99537790  0.99716367  1
  O  O386  1  0.88208441  0.49787307  0.49629221  1
  O  O387  1  0.86537108  0.48966927  0.98998556  1
  O  O388  1  0.88753116  0.98801292  0.48573098  1
  O  O389  1  0.89754797  1.00015740  0.99737735  1
  O  O390  1  0.12732902  0.00864930  0.00920680  1
  O  O391  1  0.11553392  0.00611391  0.48675374  1
  O  O392  1  0.13239927  0.49496100  0.01567841  1
  O  O393  1  0.11215766  0.49396272  0.51495689  1
  O  O394  1  0.64811027  0.01392704  -0.01310194  1
  O  O395  1  0.61198845  -0.00624546  0.49934465  1
  O  O396  1  0.61761176  0.50682224  0.00626278  1
  O  O397  1  0.62317004  0.50335055  0.50605201  1
  O  O398  1  0.37214739  0.36921525  0.11492815  1
  O  O399  1  0.36865493  0.37084881  0.62583917  1
  O  O400  1  0.36471020  0.87097335  0.12517889  1
  O  O401  1  0.37555461  0.87238985  0.60818006  1
  O  O402  1  0.86776070  0.37308897  0.12255195  1
  O  O403  1  0.86043943  0.35679801  0.65744558  1
  O  O404  1  0.93130266  0.85340913  0.09889800  1
  O  O405  1  0.86924204  0.85918510  0.60587706  1
  O  O406  1  0.12441115  0.13733948  0.38545804  1
  O  O407  1  0.13027389  0.13410877  0.88222141  1
  O  O408  1  0.13165536  0.62844728  0.37516391  1
  O  O409  1  0.14537728  0.63887573  0.87116667  1
  O  O410  1  0.62920521  0.09778883  0.34701039  1
  O  O411  1  0.64176546  0.12653869  0.86278230  1
  O  O412  1  0.63550717  0.62598380  0.37806423  1
  O  O413  1  0.63614043  0.61636072  0.89036410  1
