# generated using pymatgen
data_V79Zn79O256
_symmetry_space_group_name_H-M   'P 1'
_cell_length_a   16.91555374
_cell_length_b   16.89525386
_cell_length_c   16.96180787
_cell_angle_alpha   90.43525844
_cell_angle_beta   89.99564905
_cell_angle_gamma   90.14605761
_symmetry_Int_Tables_number   1
_chemical_formula_structural   V79Zn79O256
_chemical_formula_sum   'V79 Zn79 O256'
_cell_volume   4847.40310812
_cell_formula_units_Z   1
loop_
 _symmetry_equiv_pos_site_id
 _symmetry_equiv_pos_as_xyz
  1  'x, y, z'
loop_
 _atom_site_type_symbol
 _atom_site_label
 _atom_site_symmetry_multiplicity
 _atom_site_fract_x
 _atom_site_fract_y
 _atom_site_fract_z
 _atom_site_occupancy
  V  V0  1  0.24981008  0.02270147  0.25495218  1
  V  V1  1  0.62694124  0.11878578  0.51553310  1
  V  V2  1  0.63347749  0.74108184  0.87472823  1
  V  V3  1  0.64019513  0.49456940  0.61502715  1
  V  V4  1  0.12583378  0.00312603  0.61610731  1
  V  V5  1  0.24635059  0.13512488  0.87835987  1
  V  V6  1  0.87463828  0.49333349  0.37507468  1
  V  V7  1  0.36223382  0.38368729  0.51758880  1
  V  V8  1  0.49669405  0.12086024  0.13704755  1
  V  V9  1  0.75877705  0.86502867  0.12457019  1
  V  V10  1  0.49994711  0.87583123  0.88400013  1
  V  V11  1  0.87239314  0.00883418  0.38316802  1
  V  V12  1  0.88094268  0.38504912  -0.01301488  1
  V  V13  1  0.62632901  0.88006107  0.74757024  1
  V  V14  1  0.87979664  0.86722543  -0.00463507  1
  V  V15  1  0.75048823  0.00135430  0.75578157  1
  V  V16  1  0.87525074  0.74966317  0.62976470  1
  V  V17  1  0.50098230  0.74931331  0.75101596  1
  V  V18  1  0.75922864  0.24044349  -0.00256067  1
  V  V19  1  -0.00635486  0.25754350  0.75718876  1
  V  V20  1  0.12691941  0.75420092  0.37563644  1
  V  V21  1  0.89001483  -0.00434221  0.86954542  1
  V  V22  1  0.37512547  0.61241303  0.75091077  1
  V  V23  1  0.24584736  0.49756864  0.74575890  1
  V  V24  1  0.00507753  0.37347621  0.36479530  1
  V  V25  1  0.12569512  0.63439492  0.01042616  1
  V  V26  1  0.74965191  0.87498601  0.62256457  1
  V  V27  1  0.62781796  0.63401940  0.49733764  1
  V  V28  1  0.61598224  0.25204709  0.87807623  1
  V  V29  1  0.63329046  0.87832572  0.25154980  1
  V  V30  1  0.25546994  0.62409572  0.37247703  1
  V  V31  1  0.24533346  0.25353526  0.51379748  1
  V  V32  1  0.26909255  0.60974187  0.89592275  1
  V  V33  1  -0.00193392  0.62815666  0.62645214  1
  V  V34  1  0.62362288  0.37284863  0.25413389  1
  V  V35  1  0.87111764  0.12188615  0.23284444  1
  V  V36  1  0.50285486  -0.00188917  0.51711599  1
  V  V37  1  0.12143958  0.87456343  0.75837740  1
  V  V38  1  0.00533460  0.88744644  0.38242561  1
  V  V39  1  0.75088017  0.63275057  0.37665099  1
  V  V40  1  0.36689786  -0.00970702  0.87955871  1
  V  V41  1  0.75061841  0.26341255  0.50366586  1
  V  V42  1  0.62787616  0.11476571  -0.00842717  1
  V  V43  1  0.25033952  0.49087981  0.25012572  1
  V  V44  1  0.75968422  0.36693930  0.12588747  1
  V  V45  1  0.49900385  0.75841825  0.24890092  1
  V  V46  1  0.35188652  0.28422819  0.11775672  1
  V  V47  1  0.87419617  0.63049855  0.24642093  1
  V  V48  1  0.74657459  0.49884872  0.24549129  1
  V  V49  1  0.00304216  -0.00021837  0.02103879  1
  V  V50  1  0.13147935  0.24607460  0.36264232  1
  V  V51  1  0.12144551  0.48501448  0.62079107  1
  V  V52  1  0.62819628  0.62116732  -0.00143021  1
  V  V53  1  0.12676936  0.48911824  0.12917538  1
  V  V54  1  0.00086951  0.62342482  0.12738239  1
  V  V55  1  0.27033137  0.75872575  0.00943314  1
  V  V56  1  0.75738747  0.50848415  0.76707279  1
  V  V57  1  0.25340384  0.87465664  0.62661427  1
  V  V58  1  0.48880255  0.37874587  0.37764066  1
  V  V59  1  0.62365382  0.75678654  0.37455217  1
  V  V60  1  0.50265588  0.61972436  0.62166957  1
  V  V61  1  -0.00306568  0.49078515  0.49490888  1
  V  V62  1  0.87612829  0.87227086  0.50022942  1
  V  V63  1  0.37601914  0.75283541  0.62453938  1
  V  V64  1  0.86712699  0.26710265  0.62512773  1
  V  V65  1  0.63705986  -0.00203180  0.13075464  1
  V  V66  1  0.62371215  0.24584795  0.37836900  1
  V  V67  1  0.27296838  0.88145710  0.12928003  1
  V  V68  1  0.38145438  0.02017334  0.37375831  1
  V  V69  1  -0.00800349  0.24718200  0.23583706  1
  V  V70  1  0.12053802  0.12615923  0.01149591  1
  V  V71  1  0.57334082  0.44775818  0.07521256  1
  V  V72  1  0.11288832  0.38027236  0.77152823  1
  V  V73  1  0.12460296  0.62586700  0.49908010  1
  V  V74  1  0.12625050  0.88282713  0.24121116  1
  V  V75  1  0.87175692  0.12488938  0.75070639  1
  V  V76  1  0.37541579  0.63068159  0.24803405  1
  V  V77  1  -0.00327009  0.75394424  0.24825219  1
  V  V78  1  0.50442342  0.62811174  0.12344820  1
  Zn  Zn79  1  0.48886316  0.50895572  0.48949421  1
  Zn  Zn80  1  0.48578493  0.23776467  0.25723208  1
  Zn  Zn81  1  0.25835581  0.00250157  0.74769041  1
  Zn  Zn82  1  0.49315868  -0.00883357  0.01016932  1
  Zn  Zn83  1  0.25499223  0.74929594  0.49960153  1
  Zn  Zn84  1  0.61083266  0.38932992  0.76857915  1
  Zn  Zn85  1  0.13014628  0.75269627  0.87931732  1
  Zn  Zn86  1  -0.00383481  0.12229574  0.62076223  1
  Zn  Zn87  1  0.11666677  0.25067572  0.88163590  1
  Zn  Zn88  1  0.43291253  0.20367551  0.68484654  1
  Zn  Zn89  1  0.74759962  0.12111828  0.37203159  1
  Zn  Zn90  1  0.76017476  0.73964995  -0.00196896  1
  Zn  Zn91  1  -0.00191013  0.75223070  0.75683719  1
  Zn  Zn92  1  0.12860059  0.11481438  0.48686662  1
  Zn  Zn93  1  0.38593243  0.87336327  0.48904906  1
  Zn  Zn94  1  0.18362705  0.20252011  0.17893434  1
  Zn  Zn95  1  0.23679744  0.16817937  0.67357192  1
  Zn  Zn96  1  0.19060417  0.69628099  0.18787672  1
  Zn  Zn97  1  0.19006977  0.68490314  0.68968833  1
  Zn  Zn98  1  0.68865048  0.18626442  0.18707138  1
  Zn  Zn99  1  0.68577741  0.18881021  0.69168950  1
  Zn  Zn100  1  0.68603591  0.68793732  0.18510588  1
  Zn  Zn101  1  0.69335897  0.68696333  0.68740806  1
  Zn  Zn102  1  0.31526485  0.30303121  0.30081680  1
  Zn  Zn103  1  0.29298068  0.30584520  0.79874145  1
  Zn  Zn104  1  0.31652754  0.82048751  0.31337532  1
  Zn  Zn105  1  0.31011317  0.80680962  0.81589302  1
  Zn  Zn106  1  0.81203375  0.30676465  0.31337635  1
  Zn  Zn107  1  0.79711034  0.32168142  0.80943409  1
  Zn  Zn108  1  0.81317469  0.81818257  0.31557059  1
  Zn  Zn109  1  0.81434514  0.81337245  0.81234050  1
  Zn  Zn110  1  0.18414459  0.43527739  0.43055120  1
  Zn  Zn111  1  0.17978792  0.45408025  0.93867943  1
  Zn  Zn112  1  0.21350453  0.93720039  0.43091264  1
  Zn  Zn113  1  0.18492572  0.93739344  0.94681351  1
  Zn  Zn114  1  0.68319778  0.44263327  0.43622698  1
  Zn  Zn115  1  0.70075666  0.43161020  0.93310176  1
  Zn  Zn116  1  0.69131401  0.93868440  0.44110415  1
  Zn  Zn117  1  0.69376809  0.93209599  0.93507678  1
  Zn  Zn118  1  0.30950111  0.06052184  0.06009418  1
  Zn  Zn119  1  0.31976559  0.06942682  0.56180625  1
  Zn  Zn120  1  0.31033561  0.56585577  0.07303297  1
  Zn  Zn121  1  0.30955541  0.56044024  0.56464403  1
  Zn  Zn122  1  0.81196758  0.05228229  0.05576121  1
  Zn  Zn123  1  0.81016375  0.06141944  0.56591884  1
  Zn  Zn124  1  0.81155728  0.55921169  0.06287715  1
  Zn  Zn125  1  0.81598850  0.56815721  0.55769708  1
  Zn  Zn126  1  0.43216338  0.43989297  0.19846356  1
  Zn  Zn127  1  0.44270552  0.39289947  0.75137943  1
  Zn  Zn128  1  0.44318213  0.94787711  0.20025526  1
  Zn  Zn129  1  0.43667844  0.94257233  0.69565867  1
  Zn  Zn130  1  0.93669078  0.43826205  0.18481607  1
  Zn  Zn131  1  0.93557011  0.44466447  0.68819978  1
  Zn  Zn132  1  0.93152306  0.93851641  0.19329391  1
  Zn  Zn133  1  0.94314417  0.93833883  0.68409598  1
  Zn  Zn134  1  0.05931930  0.06647666  0.30251770  1
  Zn  Zn135  1  0.06762656  0.06743400  0.80467689  1
  Zn  Zn136  1  0.06514636  0.56290931  0.30992110  1
  Zn  Zn137  1  0.06642941  0.59127017  0.82211803  1
  Zn  Zn138  1  0.56208637  0.05648339  0.31988960  1
  Zn  Zn139  1  0.55015505  0.06325980  0.80644743  1
  Zn  Zn140  1  0.56155934  0.56379851  0.31126589  1
  Zn  Zn141  1  0.56196416  0.55470685  0.80829799  1
  Zn  Zn142  1  0.44172806  0.19747346  0.47405052  1
  Zn  Zn143  1  0.42892665  0.17663814  0.94195558  1
  Zn  Zn144  1  0.44019109  0.69196816  0.43396814  1
  Zn  Zn145  1  0.44528960  0.68367513  0.93895840  1
  Zn  Zn146  1  0.94678896  0.19072358  0.44491472  1
  Zn  Zn147  1  0.93718843  0.18051974  0.93791502  1
  Zn  Zn148  1  0.93822509  0.68955332  0.43709424  1
  Zn  Zn149  1  0.94734198  0.68710866  0.93739744  1
  Zn  Zn150  1  0.05722372  0.31188145  0.05897071  1
  Zn  Zn151  1  0.05562629  0.28956146  0.55324005  1
  Zn  Zn152  1  0.05896807  0.81408609  0.06379204  1
  Zn  Zn153  1  0.06406981  0.81572562  0.56533222  1
  Zn  Zn154  1  0.52259388  0.27371808  0.03051876  1
  Zn  Zn155  1  0.53781041  0.32293598  0.58915400  1
  Zn  Zn156  1  0.56807162  0.80745259  0.06524637  1
  Zn  Zn157  1  0.56293243  0.81518490  0.56208814  1
  O  O158  1  0.12581638  0.12713105  0.11046796  1
  O  O159  1  0.14094640  0.10339043  0.63575903  1
  O  O160  1  0.11802909  0.62726330  0.12629195  1
  O  O161  1  0.11897538  0.62227216  0.61169106  1
  O  O162  1  0.62617267  0.10978346  0.12455634  1
  O  O163  1  0.62800830  0.12567845  0.61354770  1
  O  O164  1  0.61561852  0.62501518  0.11744835  1
  O  O165  1  0.62110575  0.62948027  0.61140090  1
  O  O166  1  0.39030470  0.36910007  0.36008328  1
  O  O167  1  0.32944770  0.37339824  0.92568896  1
  O  O168  1  0.34006112  0.90126389  0.38893060  1
  O  O169  1  0.38469523  0.87976293  0.87313358  1
  O  O170  1  0.88028507  0.38808233  0.36836437  1
  O  O171  1  0.86579649  0.36942970  0.88858305  1
  O  O172  1  0.88419966  0.88457999  0.38077117  1
  O  O173  1  0.87533719  0.88117168  0.88432189  1
  O  O174  1  0.25376024  0.02236836  0.36173924  1
  O  O175  1  0.26083784  -0.00749519  0.87836560  1
  O  O176  1  0.23596188  0.51590184  0.36071511  1
  O  O177  1  0.23851508  0.50379752  0.85183369  1
  O  O178  1  0.76863696  -0.00047313  0.37637504  1
  O  O179  1  0.76471735  -0.00834010  0.86198544  1
  O  O180  1  0.75731803  0.50861415  0.36755430  1
  O  O181  1  0.74245066  0.51221360  0.86806398  1
  O  O182  1  0.23967913  0.50526707  0.14024228  1
  O  O183  1  0.23225859  0.50965310  0.63517920  1
  O  O184  1  0.25642368  0.98847255  0.13766180  1
  O  O185  1  0.24917841  0.98830644  0.62807191  1
  O  O186  1  0.75327027  0.49074367  0.14079096  1
  O  O187  1  0.74151473  0.50202707  0.60744553  1
  O  O188  1  0.74364138  0.98505314  0.12237039  1
  O  O189  1  0.75736742  0.98396614  0.63894097  1
  O  O190  1  -0.01268450  0.36071313  0.25488552  1
  O  O191  1  0.00612993  0.37587737  0.74942170  1
  O  O192  1  0.00559246  0.87223551  0.26016877  1
  O  O193  1  0.01721754  0.87286396  0.74618100  1
  O  O194  1  0.51084161  0.37235762  0.25789297  1
  O  O195  1  0.53330749  0.34017930  0.70091650  1
  O  O196  1  0.51483089  0.86616215  0.24476942  1
  O  O197  1  0.50799053  0.86679739  0.75669621  1
  O  O198  1  0.50399617  0.11867620  0.24228133  1
  O  O199  1  0.50775920  0.13582490  0.73814173  1
  O  O200  1  0.49527897  0.63237909  0.24567054  1
  O  O201  1  0.49542903  0.63243644  0.74082713  1
  O  O202  1  0.98546267  0.13682698  0.25097293  1
  O  O203  1  0.99292108  0.13770174  0.74217028  1
  O  O204  1  0.99351031  0.63414434  0.24893329  1
  O  O205  1  1.00853122  0.61885175  0.72610488  1
  O  O206  1  0.39832257  0.24855274  0.03035508  1
  O  O207  1  0.35010723  0.26973031  0.48732952  1
  O  O208  1  0.36875827  0.74839363  0.00324332  1
  O  O209  1  0.37880769  0.75350614  0.51160474  1
  O  O210  1  0.86172751  0.24494105  -0.00084567  1
  O  O211  1  0.86183366  0.24543831  0.51405362  1
  O  O212  1  0.87778032  0.75849325  -0.01107177  1
  O  O213  1  0.87963243  0.76398647  0.50554950  1
  O  O214  1  0.14143369  0.26873557  0.47561716  1
  O  O215  1  0.10926918  0.23208525  0.99591551  1
  O  O216  1  0.12413470  0.74259117  0.49081705  1
  O  O217  1  0.12644394  0.74653350  1.00061596  1
  O  O218  1  0.63751166  0.23652064  0.49476930  1
  O  O219  1  0.63252430  0.22946800  0.99708222  1
  O  O220  1  0.61957011  0.74429949  0.48824509  1
  O  O221  1  0.62712800  0.73922412  0.98976823  1
  O  O222  1  0.51792524  0.22441201  0.13539539  1
  O  O223  1  0.47769769  0.23137124  0.58038267  1
  O  O224  1  0.50639748  0.74064215  0.13757638  1
  O  O225  1  0.49576533  0.74498129  0.63313446  1
  O  O226  1  0.99745327  0.25227120  0.13812097  1
  O  O227  1  0.97936144  0.25875665  0.63909322  1
  O  O228  1  1.00372099  0.74326907  0.14244828  1
  O  O229  1  0.99474908  0.74390676  0.62477114  1
  O  O230  1  0.00414119  0.26106021  0.36987511  1
  O  O231  1  -0.00693067  0.24648678  0.86037012  1
  O  O232  1  0.00957282  0.75898194  0.36767458  1
  O  O233  1  0.02362314  0.70625400  0.85839788  1
  O  O234  1  0.50904923  0.25897384  0.37554292  1
  O  O235  1  0.51450528  0.24052165  0.89905860  1
  O  O236  1  0.51324656  0.74780932  0.36329773  1
  O  O237  1  0.50644563  0.75598039  0.86580068  1
  O  O238  1  0.24402806  0.14805364  0.50329819  1
  O  O239  1  0.23067330  0.11247634  0.99202859  1
  O  O240  1  0.24033655  0.62526602  0.49105355  1
  O  O241  1  0.24097160  0.65199247  1.01932229  1
  O  O242  1  0.73747071  0.12186022  0.49660655  1
  O  O243  1  0.74141992  0.13099268  1.00907879  1
  O  O244  1  0.74257639  0.62560364  0.48466005  1
  O  O245  1  0.73454659  0.62387660  1.00907302  1
  O  O246  1  0.27157545  0.37737812  -0.02674554  1
  O  O247  1  0.25649201  0.37698700  0.49424305  1
  O  O248  1  0.24934388  0.86914239  0.01735168  1
  O  O249  1  0.25052794  0.86769117  0.51834324  1
  O  O250  1  0.75829651  0.36177215  0.00861867  1
  O  O251  1  0.74646865  0.36148448  0.49392751  1
  O  O252  1  0.76307307  0.87071064  0.00574119  1
  O  O253  1  0.76103786  0.88018126  0.51161752  1
  O  O254  1  0.13693093  0.50653212  0.24003516  1
  O  O255  1  0.12064370  0.49188208  0.74104448  1
  O  O256  1  0.13931890  0.99464719  0.25795880  1
  O  O257  1  0.13209984  0.98558921  0.74289525  1
  O  O258  1  0.63730459  0.48735142  0.26327827  1
  O  O259  1  0.63663045  0.50742556  0.72100625  1
  O  O260  1  0.62536716  0.98687200  0.24649507  1
  O  O261  1  0.63265299  0.98674489  0.76044215  1
  O  O262  1  0.36297276  0.00442055  0.26342376  1
  O  O263  1  0.37540637  0.00006647  0.77181599  1
  O  O264  1  0.35950195  0.51547042  0.25079922  1
  O  O265  1  0.36236913  0.50690662  0.73930720  1
  O  O266  1  0.88288608  0.01573102  0.26600842  1
  O  O267  1  0.87250138  0.00350618  0.75217046  1
  O  O268  1  0.86827484  0.50971174  0.25799514  1
  O  O269  1  0.85629307  0.49339799  0.74813454  1
  O  O270  1  0.11220743  0.36983491  0.36479058  1
  O  O271  1  0.11474077  0.38200652  0.87386779  1
  O  O272  1  0.12434139  0.87102659  0.37021298  1
  O  O273  1  0.13445891  0.87400363  0.86184911  1
  O  O274  1  0.61820561  0.36558825  0.37288714  1
  O  O275  1  0.62621043  0.35426531  0.88779296  1
  O  O276  1  0.63936457  0.86545667  0.36637627  1
  O  O277  1  0.62038572  0.86394513  0.86649083  1
  O  O278  1  0.39798598  0.10882360  0.11970409  1
  O  O279  1  0.34373080  0.13714734  0.64783197  1
  O  O280  1  0.38900517  0.62065082  0.13738419  1
  O  O281  1  0.38251553  0.63211472  0.63045086  1
  O  O282  1  0.87013432  0.11476066  0.13492008  1
  O  O283  1  0.87629504  0.12856428  0.63586851  1
  O  O284  1  0.88376361  0.61711560  0.13907732  1
  O  O285  1  0.88577452  0.63986549  0.61038198  1
  O  O286  1  0.25224807  0.26575726  0.11564628  1
  O  O287  1  0.22912344  0.26498891  0.61168149  1
  O  O288  1  0.25247270  0.76775428  0.12041565  1
  O  O289  1  0.26286998  0.75124546  0.62541380  1
  O  O290  1  0.74135459  0.25930380  0.11392383  1
  O  O291  1  0.75493467  0.24827773  0.61543460  1
  O  O292  1  0.74696649  0.75960858  0.11868313  1
  O  O293  1  0.76165798  0.76289727  0.63037670  1
  O  O294  1  0.23175685  0.25136700  0.35444077  1
  O  O295  1  0.24243703  0.23878362  0.87763526  1
  O  O296  1  0.24056012  0.74427509  0.37561123  1
  O  O297  1  0.25330761  0.74032244  0.89585758  1
  O  O298  1  0.74580653  0.24629459  0.38896186  1
  O  O299  1  0.74039060  0.24779369  0.89529131  1
  O  O300  1  0.74167742  0.73981677  0.36620240  1
  O  O301  1  0.73710261  0.74965763  0.87297184  1
  O  O302  1  0.00535060  0.10810374  -0.00290154  1
  O  O303  1  0.02839699  0.16632180  0.52078429  1
  O  O304  1  0.00973444  0.63160524  0.01983170  1
  O  O305  1  0.00982579  0.61744818  0.49943898  1
  O  O306  1  0.51865717  0.11525302  0.01403619  1
  O  O307  1  0.51826490  0.10807039  0.49201151  1
  O  O308  1  0.50943815  0.62498615  0.01256421  1
  O  O309  1  0.50705522  0.62858742  0.50401342  1
  O  O310  1  0.48058468  0.37645997  0.48653754  1
  O  O311  1  0.51590029  0.38706287  1.02223202  1
  O  O312  1  0.50343130  0.89093723  0.50105765  1
  O  O313  1  0.51145711  0.87262804  0.98801829  1
  O  O314  1  1.00272544  0.38626774  0.48622120  1
  O  O315  1  0.97936431  0.36806489  1.00221557  1
  O  O316  1  0.99532940  0.87264899  0.48933708  1
  O  O317  1  0.99200830  0.88714431  1.00607079  1
  O  O318  1  0.50551947  0.48407413  0.37339244  1
  O  O319  1  0.51550875  0.45385318  0.81491681  1
  O  O320  1  0.48232315  0.99333141  0.37282983  1
  O  O321  1  0.49243743  0.98936129  0.87739061  1
  O  O322  1  0.99531375  0.49492178  0.37481127  1
  O  O323  1  0.97083858  0.52969119  0.87217747  1
  O  O324  1  0.99555435  0.99264793  0.37240083  1
  O  O325  1  0.99128202  0.99988345  0.86805599  1
  O  O326  1  -0.00315355  0.00176783  0.11939138  1
  O  O327  1  0.02018870  0.00176756  0.62406716  1
  O  O328  1  0.01576172  0.51199702  0.14011333  1
  O  O329  1  0.00233144  0.50666372  0.61095131  1
  O  O330  1  0.51739664  0.00133465  0.12665009  1
  O  O331  1  0.49654105  0.00095632  0.61607267  1
  O  O332  1  0.50851160  0.50647519  0.13370789  1
  O  O333  1  0.51288067  0.51797158  0.61779718  1
  O  O334  1  0.25311144  0.39328621  0.25737006  1
  O  O335  1  0.22254765  0.38363373  0.75209323  1
  O  O336  1  0.24453525  0.87842822  0.23894696  1
  O  O337  1  0.24477324  0.87143802  0.74065995  1
  O  O338  1  0.74518638  0.37780071  0.24606768  1
  O  O339  1  0.72820007  0.39530502  0.75827759  1
  O  O340  1  0.74344302  0.86759003  0.23947573  1
  O  O341  1  0.74354819  0.87986326  0.74469073  1
  O  O342  1  0.24466049  0.11847001  0.23376713  1
  O  O343  1  0.23668619  0.11634526  0.77620034  1
  O  O344  1  0.25863633  0.63028276  0.25559327  1
  O  O345  1  0.25802159  0.61915540  0.75989005  1
  O  O346  1  0.76738590  0.13236316  0.25573627  1
  O  O347  1  0.75838348  0.11077185  0.74165724  1
  O  O348  1  0.75470810  0.61910179  0.25461761  1
  O  O349  1  0.74872985  0.60954678  0.74331633  1
  O  O350  1  0.38508526  0.11920883  0.38937883  1
  O  O351  1  0.35405385  0.11424408  0.88576216  1
  O  O352  1  0.36406344  0.63187469  0.36788444  1
  O  O353  1  0.37840564  0.63582129  0.85594229  1
  O  O354  1  0.88066585  0.11309183  0.38822126  1
  O  O355  1  0.87833683  0.11443426  0.85791096  1
  O  O356  1  0.86930443  0.62038651  0.36609908  1
  O  O357  1  0.91170300  0.57636071  0.88304457  1
  O  O358  1  0.12073531  0.39078121  0.11785488  1
  O  O359  1  0.11106727  0.38561896  0.61635192  1
  O  O360  1  0.12301018  0.87454028  0.14037446  1
  O  O361  1  0.13399532  0.88225491  0.63236902  1
  O  O362  1  0.63323061  0.38432214  0.13520636  1
  O  O363  1  0.62364587  0.39845511  0.59139210  1
  O  O364  1  0.63548797  0.87874312  0.13172998  1
  O  O365  1  0.63473589  0.86507592  0.63824841  1
  O  O366  1  0.10559254  0.24522073  0.25495790  1
  O  O367  1  0.11112481  0.27212563  0.75722213  1
  O  O368  1  0.11841724  0.75997414  0.25975627  1
  O  O369  1  0.12868004  0.76285617  0.74880201  1
  O  O370  1  0.63172393  0.26057860  0.26232623  1
  O  O371  1  0.63504815  0.23607099  0.77952443  1
  O  O372  1  0.61944065  0.75670681  0.25622295  1
  O  O373  1  0.61683289  0.75299519  0.75569489  1
  O  O374  1  0.37759792  0.25546807  0.21815091  1
  O  O375  1  0.39095517  0.29017694  0.75610479  1
  O  O376  1  0.38685025  0.74493569  0.25851285  1
  O  O377  1  0.38449265  0.74397010  0.74140813  1
  O  O378  1  0.88238242  0.23620175  0.25423956  1
  O  O379  1  0.86806881  0.24647891  0.74158765  1
  O  O380  1  0.88462498  0.74186384  0.26027169  1
  O  O381  1  0.88167748  0.75909162  0.73588027  1
  O  O382  1  0.37213277  0.49082089  0.49914741  1
  O  O383  1  0.32087675  0.54907495  0.96123842  1
  O  O384  1  0.38968216  1.00503737  0.49534237  1
  O  O385  1  0.37888496  0.99942172  0.98619395  1
  O  O386  1  0.88662820  0.51024935  0.48484589  1
  O  O387  1  0.86904560  0.48523580  1.00180740  1
  O  O388  1  0.87775163  0.98995853  0.49180095  1
  O  O389  1  0.88804578  0.99435137  0.98996784  1
  O  O390  1  0.10797929  0.00311433  0.00039681  1
  O  O391  1  0.14089143  -0.00089637  0.51148714  1
  O  O392  1  0.13669386  0.51724531  0.02266564  1
  O  O393  1  0.11720661  0.50742459  0.50130444  1
  O  O394  1  0.63313405  0.00478279  0.00819435  1
  O  O395  1  0.61742037  0.00706703  0.49732461  1
  O  O396  1  0.62872180  0.50134215  0.00524690  1
  O  O397  1  0.62025412  0.52013225  0.49808470  1
  O  O398  1  0.36924944  0.38454180  0.12044682  1
  O  O399  1  0.36945686  0.37987343  0.61296273  1
  O  O400  1  0.37160795  0.87936526  0.13348283  1
  O  O401  1  0.37174423  0.86565100  0.62997693  1
  O  O402  1  0.86371912  0.37620212  0.11936797  1
  O  O403  1  0.86811886  0.36548213  0.62722047  1
  O  O404  1  0.86805609  0.88033619  0.11526202  1
  O  O405  1  0.87338234  0.87006432  0.61744390  1
  O  O406  1  0.11374636  0.14277899  0.37392826  1
  O  O407  1  0.13116974  0.12281824  0.88576754  1
  O  O408  1  0.12974262  0.63529826  0.37964945  1
  O  O409  1  0.15009421  0.61512644  0.90010948  1
  O  O410  1  0.62740063  0.13440167  0.37559313  1
  O  O411  1  0.62327879  0.11681459  0.89091257  1
  O  O412  1  0.63155721  0.63449879  0.37718142  1
  O  O413  1  0.60908707  0.63026992  0.88476219  1
