# generated using pymatgen
data_V79Zn79O256
_symmetry_space_group_name_H-M   'P 1'
_cell_length_a   16.92604450
_cell_length_b   16.94975970
_cell_length_c   16.91332020
_cell_angle_alpha   90.12793171
_cell_angle_beta   90.00360628
_cell_angle_gamma   89.97085758
_symmetry_Int_Tables_number   1
_chemical_formula_structural   V79Zn79O256
_chemical_formula_sum   'V79 Zn79 O256'
_cell_volume   4852.29007158
_cell_formula_units_Z   1
loop_
 _symmetry_equiv_pos_site_id
 _symmetry_equiv_pos_as_xyz
  1  'x, y, z'
loop_
 _atom_site_type_symbol
 _atom_site_label
 _atom_site_symmetry_multiplicity
 _atom_site_fract_x
 _atom_site_fract_y
 _atom_site_fract_z
 _atom_site_occupancy
  V  V0  1  0.75863694  0.00590187  0.24764401  1
  V  V1  1  0.87265521  0.75919293  0.62409896  1
  V  V2  1  0.00177795  -0.00062667  0.49167808  1
  V  V3  1  0.75199768  0.62122617  0.87317344  1
  V  V4  1  0.74418253  0.24274660  -0.00721476  1
  V  V5  1  0.61958545  0.36615964  0.26125444  1
  V  V6  1  0.62251685  0.62283462  -0.00179704  1
  V  V7  1  0.38042104  0.23138502  0.62350594  1
  V  V8  1  0.12731956  0.75231344  0.86861828  1
  V  V9  1  0.24906723  0.12976384  0.36150683  1
  V  V10  1  0.86877519  0.00077254  0.87679052  1
  V  V11  1  0.49725484  0.88035143  0.87248350  1
  V  V12  1  0.74959925  0.25850593  0.50272790  1
  V  V13  1  0.37066320  0.00754460  0.36375270  1
  V  V14  1  0.74890552  0.37588728  0.12585672  1
  V  V15  1  0.62710265  0.12994653  0.49781174  1
  V  V16  1  0.12069544  0.49855580  0.62021973  1
  V  V17  1  0.37245835  0.62826543  0.26071196  1
  V  V18  1  0.75164755  0.12737960  0.37359537  1
  V  V19  1  0.86272930  0.62724782  0.24874346  1
  V  V20  1  0.75138445  -0.00506750  0.74484668  1
  V  V21  1  0.57030793  0.28125339  0.81211220  1
  V  V22  1  0.37727247  0.48694684  0.37178458  1
  V  V23  1  0.63493277  0.62969680  0.49463240  1
  V  V24  1  0.87324288  0.87775711  0.50184885  1
  V  V25  1  0.49189069  0.48530683  -0.00796509  1
  V  V26  1  0.86567352  0.37912286  -0.02389210  1
  V  V27  1  0.63101293  -0.00397114  0.61873705  1
  V  V28  1  0.63382818  0.74778943  0.37257834  1
  V  V29  1  0.62220614  0.49728218  0.12559362  1
  V  V30  1  0.49748059  0.00070510  -0.00174117  1
  V  V31  1  0.49766353  0.87608700  0.37311881  1
  V  V32  1  0.25538223  0.36583429  0.10932178  1
  V  V33  1  0.00248077  0.25619938  0.26579385  1
  V  V34  1  0.87527848  0.24804805  0.13545519  1
  V  V35  1  -0.00004604  0.87416551  0.87894810  1
  V  V36  1  0.11947418  0.62245532  0.00693520  1
  V  V37  1  0.35291625  0.12030737  0.75382035  1
  V  V38  1  -0.00354518  0.12396951  0.62267309  1
  V  V39  1  0.25792579  0.62226115  0.85194087  1
  V  V40  1  0.63165992  0.49907027  0.62508925  1
  V  V41  1  0.62453147  0.74726755  0.87086776  1
  V  V42  1  0.11513163  0.37704004  0.75473027  1
  V  V43  1  0.25503997  0.74438827  0.00474380  1
  V  V44  1  0.12436252  0.12777968  0.49676606  1
  V  V45  1  0.75078222  0.75218694  0.00224968  1
  V  V46  1  0.48954436  0.24959944  0.26327857  1
  V  V47  1  0.00290025  0.62522951  0.61166211  1
  V  V48  1  0.62698443  0.12434089  -0.01027593  1
  V  V49  1  0.86566176  0.12322692  0.75038041  1
  V  V50  1  0.62759600  0.87697131  0.24874212  1
  V  V51  1  0.01643809  0.73931135  0.24708614  1
  V  V52  1  0.50285947  0.49376833  0.49901538  1
  V  V53  1  0.25245518  0.37262777  0.63103347  1
  V  V54  1  0.88032051  -0.00145552  0.36931247  1
  V  V55  1  0.49028048  0.74887337  0.74400466  1
  V  V56  1  0.49065357  0.62682652  0.12158176  1
  V  V57  1  0.37936082  0.86898999  0.00428047  1
  V  V58  1  0.50192015  0.00500581  0.50106977  1
  V  V59  1  0.62910519  0.87421271  0.74075900  1
  V  V60  1  0.12392001  0.88893031  0.25476385  1
  V  V61  1  0.24946122  0.87674652  0.65100973  1
  V  V62  1  0.00450612  0.74971825  0.75215504  1
  V  V63  1  0.63008502  0.00131798  0.12492773  1
  V  V64  1  0.86594332  0.26596882  0.62061128  1
  V  V65  1  0.49715920  0.75094811  0.24279899  1
  V  V66  1  0.36740857  0.86747113  0.50531509  1
  V  V67  1  0.24320165  0.25226909  0.49835666  1
  V  V68  1  0.12788408  0.00977743  0.11420237  1
  V  V69  1  -0.01008222  0.25513658  0.75490898  1
  V  V70  1  0.49225886  0.13058789  0.13159092  1
  V  V71  1  0.49229119  0.63161457  0.62428525  1
  V  V72  1  -0.00942842  0.47726983  0.49994171  1
  V  V73  1  0.11735734  0.24039666  0.89076431  1
  V  V74  1  0.12432834  0.37953594  0.26463550  1
  V  V75  1  0.87585270  0.62224924  0.75046571  1
  V  V76  1  0.87285740  0.49226408  0.37503421  1
  V  V77  1  0.25369320  0.88067477  0.12817837  1
  V  V78  1  0.74523174  0.49748302  0.74698874  1
  Zn  Zn79  1  0.87611635  0.87572581  0.00390261  1
  Zn  Zn80  1  0.14365641  0.00560016  0.65527270  1
  Zn  Zn81  1  0.00646149  0.13455201  0.12302639  1
  Zn  Zn82  1  0.74150235  0.50235347  0.26015379  1
  Zn  Zn83  1  0.88720617  0.74282161  0.11986742  1
  Zn  Zn84  1  0.00139147  0.01506873  -0.00391201  1
  Zn  Zn85  1  0.75720405  0.87305077  0.12625446  1
  Zn  Zn86  1  0.75220679  0.75504971  0.50048475  1
  Zn  Zn87  1  0.18984119  0.68152251  0.44721326  1
  Zn  Zn88  1  0.36292263  0.48216447  0.86695424  1
  Zn  Zn89  1  0.12023844  0.49622384  0.12323083  1
  Zn  Zn90  1  0.05742242  0.82142428  0.41553577  1
  Zn  Zn91  1  0.98665873  0.50261524  0.98865330  1
  Zn  Zn92  1  0.24290386  0.50278912  0.24562190  1
  Zn  Zn93  1  0.38191525  0.36710991  0.49595465  1
  Zn  Zn94  1  0.18306889  0.20114773  0.18377142  1
  Zn  Zn95  1  0.18309321  0.18842796  0.69168951  1
  Zn  Zn96  1  0.19304235  0.69104254  0.18713148  1
  Zn  Zn97  1  0.21937659  0.66950849  0.64421998  1
  Zn  Zn98  1  0.68450394  0.18753758  0.18573917  1
  Zn  Zn99  1  0.65952446  0.17105403  0.70066487  1
  Zn  Zn100  1  0.68373373  0.68525854  0.18601791  1
  Zn  Zn101  1  0.68677994  0.68686080  0.68333321  1
  Zn  Zn102  1  0.30734090  0.31276213  0.30591326  1
  Zn  Zn103  1  0.29734301  0.29423700  0.82188272  1
  Zn  Zn104  1  0.30407264  0.81276213  0.31784565  1
  Zn  Zn105  1  0.31240710  0.81278150  0.81626254  1
  Zn  Zn106  1  0.80798675  0.31472802  0.31485118  1
  Zn  Zn107  1  0.77428637  0.29790061  0.79514403  1
  Zn  Zn108  1  0.82110442  0.81667646  0.30903752  1
  Zn  Zn109  1  0.81513205  0.81212670  0.81232138  1
  Zn  Zn110  1  0.17067456  0.49266224  0.41761693  1
  Zn  Zn111  1  0.18983163  0.43883843  0.93136184  1
  Zn  Zn112  1  0.19260388  0.94621641  0.44257308  1
  Zn  Zn113  1  0.18425059  0.92811585  0.94249976  1
  Zn  Zn114  1  0.68881175  0.44078453  0.43819037  1
  Zn  Zn115  1  0.67259019  0.43072336  0.92944691  1
  Zn  Zn116  1  0.69201683  0.93667746  0.43262863  1
  Zn  Zn117  1  0.68635130  0.93792888  0.93314688  1
  Zn  Zn118  1  0.31451897  0.07299076  0.05823464  1
  Zn  Zn119  1  0.30986624  0.05501343  0.55435948  1
  Zn  Zn120  1  0.30956724  0.54982563  0.05967433  1
  Zn  Zn121  1  0.31440901  0.55372636  0.55723910  1
  Zn  Zn122  1  0.81992253  0.06816399  0.06229595  1
  Zn  Zn123  1  0.81192185  0.06168627  0.56182172  1
  Zn  Zn124  1  0.81155361  0.56093456  0.06511630  1
  Zn  Zn125  1  0.81716420  0.56650567  0.56133165  1
  Zn  Zn126  1  0.43766053  0.43398125  0.18411725  1
  Zn  Zn127  1  0.42040528  0.38720000  0.74467491  1
  Zn  Zn128  1  0.43870527  0.94111636  0.18358770  1
  Zn  Zn129  1  0.43745720  0.94352409  0.68469477  1
  Zn  Zn130  1  0.94278374  0.44278389  0.18410127  1
  Zn  Zn131  1  0.93075110  0.43706683  0.81173320  1
  Zn  Zn132  1  0.94413101  0.93242348  0.18140054  1
  Zn  Zn133  1  0.96437776  0.94618671  0.69513888  1
  Zn  Zn134  1  0.06383372  0.07238718  0.30506390  1
  Zn  Zn135  1  0.05542816  0.06705694  0.81555237  1
  Zn  Zn136  1  0.05765597  0.56566063  0.31741749  1
  Zn  Zn137  1  0.06728690  0.56501025  0.81491743  1
  Zn  Zn138  1  0.56587474  0.06573966  0.31351496  1
  Zn  Zn139  1  0.53020711  0.07266171  0.80107512  1
  Zn  Zn140  1  0.55769303  0.56186932  0.31336019  1
  Zn  Zn141  1  0.52419784  0.53179150  0.78515867  1
  Zn  Zn142  1  0.43639985  0.18811779  0.43960382  1
  Zn  Zn143  1  0.42357888  0.19304157  0.94139937  1
  Zn  Zn144  1  0.44041370  0.68732391  0.43823573  1
  Zn  Zn145  1  0.43747490  0.68532913  0.93275247  1
  Zn  Zn146  1  0.92992954  0.18663352  0.43693687  1
  Zn  Zn147  1  0.93367008  0.19326222  0.94147145  1
  Zn  Zn148  1  0.93470714  0.68809999  0.42832504  1
  Zn  Zn149  1  0.93685513  0.68516516  0.93679939  1
  Zn  Zn150  1  0.05089838  0.34191777  0.06734921  1
  Zn  Zn151  1  0.05956928  0.30998286  0.56443418  1
  Zn  Zn152  1  0.06809530  0.81233824  0.06490480  1
  Zn  Zn153  1  0.08612823  0.80304033  0.58456087  1
  Zn  Zn154  1  0.56000520  0.30803413  0.06214723  1
  Zn  Zn155  1  0.54643655  0.33019758  0.61777799  1
  Zn  Zn156  1  0.56770268  0.81276129  0.06185737  1
  Zn  Zn157  1  0.55863758  0.81261904  0.55764605  1
  O  O158  1  0.13388814  0.11175413  0.12718595  1
  O  O159  1  0.11093723  0.12568628  0.61722665  1
  O  O160  1  0.13176076  0.62729022  0.10900598  1
  O  O161  1  0.11077579  0.60793724  0.63868126  1
  O  O162  1  0.62028730  0.11300201  0.12047575  1
  O  O163  1  0.63162847  0.10592990  0.61009493  1
  O  O164  1  0.61457200  0.61519130  0.12085987  1
  O  O165  1  0.62162208  0.62602172  0.61017380  1
  O  O166  1  0.37906179  0.38367315  0.37311401  1
  O  O167  1  0.37191770  0.36868071  0.84818453  1
  O  O168  1  0.38225208  0.88572959  0.37915310  1
  O  O169  1  0.39094959  0.87162576  0.88568606  1
  O  O170  1  0.87661781  0.39307070  0.36456032  1
  O  O171  1  0.85267320  0.37107764  0.87336018  1
  O  O172  1  0.87637692  0.88944437  0.38177512  1
  O  O173  1  0.88092572  0.88153865  0.87789971  1
  O  O174  1  0.26342176  0.01353947  0.37679051  1
  O  O175  1  0.24872604  0.01624679  0.88736489  1
  O  O176  1  0.27487847  0.49965524  0.36707191  1
  O  O177  1  0.24921929  0.51836485  0.86864656  1
  O  O178  1  0.75877442  0.00537877  0.36496434  1
  O  O179  1  0.75849634  -0.00711060  0.86023557  1
  O  O180  1  0.76560844  0.50148924  0.37657025  1
  O  O181  1  0.73115620  0.51344473  0.86025991  1
  O  O182  1  0.24083728  0.49343240  0.12867130  1
  O  O183  1  0.24074856  0.47767078  0.62102988  1
  O  O184  1  0.24308054  0.99304476  0.11096061  1
  O  O185  1  0.24791805  0.98551296  0.61624220  1
  O  O186  1  0.73690318  0.49333003  0.12895863  1
  O  O187  1  0.74107885  0.51742410  0.63451016  1
  O  O188  1  0.74534415  1.00232616  0.13123604  1
  O  O189  1  0.74386651  0.99375531  0.63147038  1
  O  O190  1  0.01111617  0.36739855  0.24774348  1
  O  O191  1  0.00338434  0.36738891  0.74608015  1
  O  O192  1  0.02095678  0.87114144  0.24765263  1
  O  O193  1  -0.01109340  0.85634663  0.76522611  1
  O  O194  1  0.51078595  0.36128075  0.24105613  1
  O  O195  1  0.52267131  0.33767385  0.73529309  1
  O  O196  1  0.50445679  0.86973974  0.25365371  1
  O  O197  1  0.50850252  0.87140641  0.75439118  1
  O  O198  1  0.51429618  0.13863341  0.24120592  1
  O  O199  1  0.55661013  0.17293998  0.76005553  1
  O  O200  1  0.49500740  0.63334694  0.24186537  1
  O  O201  1  0.51127706  0.63691834  0.73208045  1
  O  O202  1  1.01041390  0.15076881  0.23939975  1
  O  O203  1  0.98440696  0.13809022  0.73890889  1
  O  O204  1  1.00125845  0.63703093  0.24662544  1
  O  O205  1  0.98994900  0.63197120  0.74699140  1
  O  O206  1  0.33709658  0.17047769  0.00748944  1
  O  O207  1  0.36398342  0.24895595  0.50873945  1
  O  O208  1  0.37032002  0.75954396  -0.00328197  1
  O  O209  1  0.38856119  0.76972888  0.49714103  1
  O  O210  1  0.85751678  0.26062068  0.01262813  1
  O  O211  1  0.86341381  0.24501089  0.51068087  1
  O  O212  1  0.86239849  0.74640180  0.00077889  1
  O  O213  1  0.87807676  0.76067091  0.50450433  1
  O  O214  1  0.12958259  0.23929723  0.50266369  1
  O  O215  1  0.09985266  0.26921066  0.98489199  1
  O  O216  1  0.11341690  0.75750440  0.48864907  1
  O  O217  1  0.13463129  0.74250887  0.99113141  1
  O  O218  1  0.63907326  0.23388593  0.50833653  1
  O  O219  1  0.63698322  0.23994026  1.00985418  1
  O  O220  1  0.62668431  0.74774243  0.48931444  1
  O  O221  1  0.62971632  0.74499822  0.98936379  1
  O  O222  1  0.49913820  0.23402088  0.12701766  1
  O  O223  1  0.47913520  0.24085341  0.61006057  1
  O  O224  1  0.50801910  0.74212456  0.13328319  1
  O  O225  1  0.50381422  0.74081029  0.62823728  1
  O  O226  1  0.98008621  0.26063517  0.12556271  1
  O  O227  1  0.98362301  0.24274271  0.62764764  1
  O  O228  1  1.00225776  0.75681696  0.14126924  1
  O  O229  1  0.99765691  0.74303919  0.63592787  1
  O  O230  1  -0.00962089  0.25011258  0.36431243  1
  O  O231  1  -0.00733896  0.25197755  0.85935722  1
  O  O232  1  -0.00945776  0.75578125  0.35190401  1
  O  O233  1  0.00687090  0.75244861  0.87096739  1
  O  O234  1  0.50010287  0.24468629  0.36311412  1
  O  O235  1  0.50432674  0.24777061  0.88546135  1
  O  O236  1  0.50781994  0.76089880  0.36454297  1
  O  O237  1  0.50918732  0.75586514  0.86622248  1
  O  O238  1  0.23995268  0.13222455  0.49603987  1
  O  O239  1  0.24666237  0.07893765  0.92852542  1
  O  O240  1  0.23618754  0.62842383  0.53929063  1
  O  O241  1  0.24729757  0.63537376  0.99630098  1
  O  O242  1  0.74458930  0.12568161  0.49144975  1
  O  O243  1  0.74253726  0.13619093  1.00974822  1
  O  O244  1  0.73926591  0.63127605  0.50026786  1
  O  O245  1  0.74322900  0.62963792  0.99155800  1
  O  O246  1  0.24575203  0.37959345  0.00807225  1
  O  O247  1  0.25421756  0.36079121  0.51468140  1
  O  O248  1  0.26129853  0.86684401  0.00322861  1
  O  O249  1  0.26711241  0.87544024  0.49145155  1
  O  O250  1  0.74659327  0.36383415  0.00596284  1
  O  O251  1  0.74293355  0.35646619  0.49317206  1
  O  O252  1  0.74758564  0.86214496  -0.00215073  1
  O  O253  1  0.76732977  0.87687592  0.49756152  1
  O  O254  1  0.11757174  0.49064777  0.24588100  1
  O  O255  1  0.11364122  0.48297658  0.73841745  1
  O  O256  1  0.12503544  0.99292336  0.23837017  1
  O  O257  1  0.06714371  0.99551310  0.73392711  1
  O  O258  1  0.61778307  0.49119762  0.24029354  1
  O  O259  1  0.63105721  0.51090458  0.73375883  1
  O  O260  1  0.63343763  0.99626332  0.24289796  1
  O  O261  1  0.63080688  0.99188066  0.73810607  1
  O  O262  1  0.38100585  -0.00335812  0.26534178  1
  O  O263  1  0.42311374  0.03927666  0.74409055  1
  O  O264  1  0.39017622  0.51137187  0.26232916  1
  O  O265  1  0.41784412  0.49836226  0.76543253  1
  O  O266  1  0.86774397  -0.00675976  0.25376849  1
  O  O267  1  0.86960092  0.00274060  0.75336208  1
  O  O268  1  0.87968917  0.51012066  0.25768090  1
  O  O269  1  0.85903023  0.51459206  0.74922193  1
  O  O270  1  0.13301084  0.39043455  0.36394400  1
  O  O271  1  0.12558705  0.37157406  0.85666307  1
  O  O272  1  0.13499907  0.88840806  0.35878727  1
  O  O273  1  0.11671207  0.86212649  0.87851620  1
  O  O274  1  0.62580208  0.38285735  0.35911952  1
  O  O275  1  0.61836250  0.35339446  0.86983760  1
  O  O276  1  0.61546129  0.87107632  0.36894586  1
  O  O277  1  0.61715522  0.86570754  0.86584919  1
  O  O278  1  0.39691268  0.10619319  0.13915136  1
  O  O279  1  0.36727207  0.12904384  0.62361903  1
  O  O280  1  0.38788431  0.61563566  0.13400511  1
  O  O281  1  0.39496552  0.61667429  0.61875498  1
  O  O282  1  0.86630661  0.14693990  0.13350082  1
  O  O283  1  0.87983871  0.12602101  0.63219595  1
  O  O284  1  0.87462828  0.62108650  0.14028712  1
  O  O285  1  0.88481597  0.63495726  0.63180541  1
  O  O286  1  0.25135128  0.26432088  0.12464132  1
  O  O287  1  0.24987086  0.25184329  0.61563797  1
  O  O288  1  0.24535640  0.76423808  0.11173471  1
  O  O289  1  0.25648118  0.77687426  0.63757849  1
  O  O290  1  0.75556278  0.25950253  0.12569198  1
  O  O291  1  0.75827436  0.24461401  0.61139806  1
  O  O292  1  0.74259681  0.74896689  0.11049890  1
  O  O293  1  0.76853724  0.74804474  0.62431732  1
  O  O294  1  0.26083916  0.23703510  0.38511761  1
  O  O295  1  0.21735773  0.24126120  0.87473996  1
  O  O296  1  0.26394567  0.73298019  0.37940726  1
  O  O297  1  0.24439621  0.74547108  0.88149762  1
  O  O298  1  0.76124168  0.23802104  0.38751145  1
  O  O299  1  0.75663040  0.24243453  0.89579263  1
  O  O300  1  0.73617468  0.76071095  0.37179257  1
  O  O301  1  0.74248889  0.74365020  0.87969258  1
  O  O302  1  -0.02289923  0.12342452  0.01523875  1
  O  O303  1  0.00593067  0.12519493  0.50294324  1
  O  O304  1  0.01601604  0.62857149  -0.00381598  1
  O  O305  1  -0.00519854  0.63062188  0.51125247  1
  O  O306  1  0.50832361  0.11537961  0.01382392  1
  O  O307  1  0.51246643  0.11299985  0.48719190  1
  O  O308  1  0.50472827  0.62388662  0.00646639  1
  O  O309  1  0.50981453  0.62118569  0.50722845  1
  O  O310  1  0.49596149  0.39193586  0.52301643  1
  O  O311  1  0.49957189  0.38703344  1.00860338  1
  O  O312  1  0.49573976  0.88429375  0.48788567  1
  O  O313  1  0.49908327  0.87902326  0.99398471  1
  O  O314  1  0.98915317  0.37865369  0.50387309  1
  O  O315  1  0.96474323  0.36548204  0.98496113  1
  O  O316  1  0.99533628  0.89124938  0.49295673  1
  O  O317  1  0.99862372  0.86949274  0.98727978  1
  O  O318  1  0.49375820  0.50266574  0.38851051  1
  O  O319  1  0.52245911  0.50106303  0.89673178  1
  O  O320  1  0.49451576  0.99357011  0.37725363  1
  O  O321  1  0.51167321  0.98949043  0.88468751  1
  O  O322  1  0.99054157  0.50225005  0.39412122  1
  O  O323  1  0.99354742  0.50550964  0.87501023  1
  O  O324  1  0.99163430  1.01613255  0.37978302  1
  O  O325  1  0.98700895  0.98877810  0.87878009  1
  O  O326  1  0.01662709  0.00285640  0.12361493  1
  O  O327  1  -0.01238698  0.01537682  0.60227032  1
  O  O328  1  0.01045667  0.46794329  0.09637553  1
  O  O329  1  0.00056464  0.50837810  0.60845794  1
  O  O330  1  0.51349769  0.00380482  0.11941087  1
  O  O331  1  0.51426124  -0.00779801  0.60715511  1
  O  O332  1  0.50519919  0.50665231  0.11374017  1
  O  O333  1  0.52062933  0.51840585  0.61687067  1
  O  O334  1  0.23598263  0.37756171  0.24591264  1
  O  O335  1  0.22809849  0.35741272  0.73513784  1
  O  O336  1  0.24128033  0.86867934  0.23735944  1
  O  O337  1  0.26653789  0.89181512  0.75031954  1
  O  O338  1  0.73555564  0.37788424  0.24363550  1
  O  O339  1  0.75384648  0.40105812  0.74676604  1
  O  O340  1  0.74486107  0.88729827  0.24903308  1
  O  O341  1  0.73826777  0.87945856  0.75331499  1
  O  O342  1  0.24412414  0.13610589  0.26375395  1
  O  O343  1  0.25174396  0.10885780  0.74181350  1
  O  O344  1  0.27130918  0.62417129  0.24105329  1
  O  O345  1  0.24592731  0.63492448  0.75387533  1
  O  O346  1  0.74226050  0.11440052  0.25820359  1
  O  O347  1  0.75736197  0.10828262  0.74180317  1
  O  O348  1  0.75773978  0.62155218  0.24876227  1
  O  O349  1  0.75624898  0.62563854  0.75618806  1
  O  O350  1  0.36666544  0.11473595  0.37808242  1
  O  O351  1  0.37142814  0.13789094  0.84989786  1
  O  O352  1  0.38449187  0.61835254  0.36378558  1
  O  O353  1  0.35847604  0.63269970  0.87038808  1
  O  O354  1  0.86281133  0.11088958  0.37869053  1
  O  O355  1  0.88048772  0.11365402  0.85983809  1
  O  O356  1  0.88031683  0.61600284  0.35691034  1
  O  O357  1  0.86131752  0.63170800  0.86557263  1
  O  O358  1  0.13817723  0.37507334  0.13501767  1
  O  O359  1  0.12714472  0.37723884  0.63144188  1
  O  O360  1  0.13580816  0.88689905  0.13059458  1
  O  O361  1  0.14259495  0.88206822  0.63769760  1
  O  O362  1  0.63064056  0.38119051  0.12966369  1
  O  O363  1  0.63414985  0.40015351  0.61421510  1
  O  O364  1  0.62825509  0.88627825  0.12970213  1
  O  O365  1  0.62090876  0.87917191  0.63178301  1
  O  O366  1  0.11300178  0.26528992  0.25395847  1
  O  O367  1  0.10587378  0.25669755  0.75069130  1
  O  O368  1  0.12040942  0.75677612  0.24927698  1
  O  O369  1  0.11246482  0.74234970  0.76129828  1
  O  O370  1  0.62121937  0.26249722  0.24852952  1
  O  O371  1  0.66947631  0.26403400  0.76115555  1
  O  O372  1  0.61706134  0.75516180  0.25425076  1
  O  O373  1  0.62102840  0.75775303  0.75368514  1
  O  O374  1  0.39077465  0.25378244  0.25223301  1
  O  O375  1  0.36391845  0.23080579  0.73132635  1
  O  O376  1  0.38777234  0.73932980  0.25528072  1
  O  O377  1  0.39214835  0.75721145  0.75327010  1
  O  O378  1  0.88450276  0.26374823  0.24200687  1
  O  O379  1  0.86822133  0.24339480  0.73811238  1
  O  O380  1  0.87734421  0.73664613  0.24640147  1
  O  O381  1  0.88113152  0.74192295  0.74387242  1
  O  O382  1  0.38340596  0.49626811  0.48688219  1
  O  O383  1  0.38898835  0.50594099  0.98552345  1
  O  O384  1  0.38640974  0.99337613  0.48752498  1
  O  O385  1  0.39252375  0.98900886  1.00425496  1
  O  O386  1  0.88152963  0.50338120  0.49060146  1
  O  O387  1  0.85967684  0.48240470  0.99546022  1
  O  O388  1  0.88095912  0.99587757  0.49009780  1
  O  O389  1  0.86830335  0.99702997  0.98721909  1
  O  O390  1  0.12087900  -0.00397296  0.01020338  1
  O  O391  1  0.11506770  0.01301560  0.49693657  1
  O  O392  1  0.12949768  0.52021672  -0.00838568  1
  O  O393  1  0.10596410  0.48660488  0.51224456  1
  O  O394  1  0.62155013  0.00244109  0.00815658  1
  O  O395  1  0.62238136  0.00128996  0.50116669  1
  O  O396  1  0.62126250  0.50271820  0.01149654  1
  O  O397  1  0.62309734  0.51121517  0.50285937  1
  O  O398  1  0.35548405  0.38435817  0.12938725  1
  O  O399  1  0.35869880  0.35765236  0.63809538  1
  O  O400  1  0.36905179  0.87988936  0.11515596  1
  O  O401  1  0.36912798  0.88671201  0.61154049  1
  O  O402  1  0.85741489  0.37276098  0.12418139  1
  O  O403  1  0.87003627  0.36082188  0.62605542  1
  O  O404  1  0.87315306  0.86609721  0.12084269  1
  O  O405  1  0.89242276  0.86697746  0.61558844  1
  O  O406  1  0.14079530  0.11982180  0.38194608  1
  O  O407  1  0.09845867  0.13961960  0.88605007  1
  O  O408  1  0.14098353  0.59751123  0.38432887  1
  O  O409  1  0.13871316  0.63538285  0.88078939  1
  O  O410  1  0.63993791  0.11664270  0.38548894  1
  O  O411  1  0.62142811  0.11209531  0.89312170  1
  O  O412  1  0.61567623  0.63781966  0.38092303  1
  O  O413  1  0.63257047  0.63907002  0.87723670  1
