# generated using pymatgen
data_V79Zn79O256
_symmetry_space_group_name_H-M   'P 1'
_cell_length_a   16.88734633
_cell_length_b   16.88237532
_cell_length_c   16.88629540
_cell_angle_alpha   90.03685324
_cell_angle_beta   90.07303062
_cell_angle_gamma   89.79872002
_symmetry_Int_Tables_number   1
_chemical_formula_structural   V79Zn79O256
_chemical_formula_sum   'V79 Zn79 O256'
_cell_volume   4814.22320751
_cell_formula_units_Z   1
loop_
 _symmetry_equiv_pos_site_id
 _symmetry_equiv_pos_as_xyz
  1  'x, y, z'
loop_
 _atom_site_type_symbol
 _atom_site_label
 _atom_site_symmetry_multiplicity
 _atom_site_fract_x
 _atom_site_fract_y
 _atom_site_fract_z
 _atom_site_occupancy
  V  V0  1  0.88127843  0.25332135  0.12916270  1
  V  V1  1  0.24083406  0.14852113  0.87460305  1
  V  V2  1  0.62416720  0.11118341  0.01322658  1
  V  V3  1  0.63088765  0.63114632  0.50188486  1
  V  V4  1  0.86417476  -0.00264096  0.38304509  1
  V  V5  1  0.12135134  -0.00307382  0.62083114  1
  V  V6  1  0.61849146  0.36908107  0.76512276  1
  V  V7  1  0.75253139  0.87340302  0.61061247  1
  V  V8  1  0.75130164  -0.00308441  0.75440424  1
  V  V9  1  0.75243067  0.62982618  0.38062600  1
  V  V10  1  0.87644767  0.74994475  0.12103557  1
  V  V11  1  0.74854024  0.63204278  0.88496500  1
  V  V12  1  0.86665898  0.11186120  0.25004670  1
  V  V13  1  0.25066120  0.62014834  0.87196081  1
  V  V14  1  0.62460728  0.49930780  0.62508677  1
  V  V15  1  0.24721231  0.00872571  0.25623079  1
  V  V16  1  -0.00029516  0.49358953  0.50009738  1
  V  V17  1  0.25842589  0.36517387  0.61909079  1
  V  V18  1  0.12015390  0.74469885  0.36946289  1
  V  V19  1  0.25138275  0.87239613  0.13326407  1
  V  V20  1  0.13763957  0.24681856  0.38039116  1
  V  V21  1  0.37379605  0.86287099  0.50350648  1
  V  V22  1  0.49732059  0.00775698  0.51178312  1
  V  V23  1  0.37845775  0.37827236  0.00227937  1
  V  V24  1  0.48274800  0.12148354  0.12258675  1
  V  V25  1  0.13489325  0.12304763  0.49323912  1
  V  V26  1  0.61474546  0.87232042  0.76090742  1
  V  V27  1  0.87354596  0.36343535  0.50215713  1
  V  V28  1  0.88262691  0.63027609  0.25139311  1
  V  V29  1  0.37058225  0.01097055  0.37413866  1
  V  V30  1  0.50056480  0.87548820  0.37353266  1
  V  V31  1  0.12548349  0.61629126  0.00409988  1
  V  V32  1  0.12313382  0.37690546  0.23845342  1
  V  V33  1  0.25410744  0.61262520  0.37680084  1
  V  V34  1  0.37571486  0.63369283  0.74634834  1
  V  V35  1  0.24946098  0.86512691  0.62261563  1
  V  V36  1  0.00047849  0.13334230  0.62320750  1
  V  V37  1  0.00442959  0.49429896  -0.00263499  1
  V  V38  1  0.48249310  0.25831596  0.23625720  1
  V  V39  1  0.24997096  -0.00159747  0.75732010  1
  V  V40  1  0.74277413  0.12735663  0.87832843  1
  V  V41  1  0.25193321  0.26038993  0.02933740  1
  V  V42  1  0.12981647  0.49703690  0.62700685  1
  V  V43  1  0.00584459  0.25106831  0.76270173  1
  V  V44  1  -0.00440114  0.87271510  0.38066850  1
  V  V45  1  0.12120986  0.87166287  0.25131769  1
  V  V46  1  0.00492592  0.62380182  0.12785160  1
  V  V47  1  0.74121067  0.23666924  0.49323397  1
  V  V48  1  0.87785034  0.13025692  0.74761901  1
  V  V49  1  0.87579323  0.62508016  0.74924873  1
  V  V50  1  0.87354775  0.49685235  0.37529365  1
  V  V51  1  0.75474137  0.36727305  0.62421319  1
  V  V52  1  0.73808905  0.87586904  0.11977076  1
  V  V53  1  0.12024291  0.75494843  0.88000685  1
  V  V54  1  0.12595180  0.62192408  0.49973459  1
  V  V55  1  0.25136172  0.49283167  0.23571717  1
  V  V56  1  0.88319123  0.37088526  -0.00607928  1
  V  V57  1  0.12633080  0.36619128  0.75697163  1
  V  V58  1  0.62254641  0.00932036  0.62438743  1
  V  V59  1  0.62760386  0.75852848  0.37622207  1
  V  V60  1  0.49329233  0.50180173  0.49763644  1
  V  V61  1  0.88878198  0.87162639  -0.00228069  1
  V  V62  1  0.50271228  0.74680965  0.25157287  1
  V  V63  1  -0.00300528  0.75204158  0.75464308  1
  V  V64  1  0.88972814  -0.00173791  0.88295255  1
  V  V65  1  0.63000593  0.37591715  0.23321476  1
  V  V66  1  0.37895507  0.35650194  0.49706870  1
  V  V67  1  0.74431109  0.25575881  0.00412243  1
  V  V68  1  0.87146911  0.75453966  0.61459572  1
  V  V69  1  0.37898954  0.74532363  0.12644186  1
  V  V70  1  0.48930694  0.24017620  0.74446861  1
  V  V71  1  0.74903079  0.49816421  0.23957421  1
  V  V72  1  0.37927264  0.61745805  0.25346347  1
  V  V73  1  0.50246005  0.38102457  0.37124648  1
  V  V74  1  0.11796748  0.87327469  0.75391861  1
  V  V75  1  0.25661736  0.74823077  0.00390817  1
  V  V76  1  0.75263636  0.49906426  0.75234779  1
  V  V77  1  0.49770568  0.64382602  0.62929135  1
  V  V78  1  0.12091696  0.11933690  0.00955735  1
  Zn  Zn79  1  0.60869233  0.54848204  0.10625978  1
  Zn  Zn80  1  0.38006537  0.12075680  0.74335880  1
  Zn  Zn81  1  0.63393146  0.75260057  0.87493410  1
  Zn  Zn82  1  -0.00454887  -0.00301025  0.50066454  1
  Zn  Zn83  1  0.50779897  0.48582661  -0.00787548  1
  Zn  Zn84  1  0.00439499  0.23779892  0.25172414  1
  Zn  Zn85  1  -0.00072535  0.36717118  0.37334898  1
  Zn  Zn86  1  0.71899449  -0.00688668  0.24189477  1
  Zn  Zn87  1  0.25441923  0.74193179  0.50202369  1
  Zn  Zn88  1  0.88288645  0.49323129  0.87174282  1
  Zn  Zn89  1  0.62630713  0.24131406  0.36874373  1
  Zn  Zn90  1  0.26509247  0.49271748  0.75526086  1
  Zn  Zn91  1  0.00378135  0.09776959  0.12410363  1
  Zn  Zn92  1  0.39943797  0.99784011  -0.08310037  1
  Zn  Zn93  1  -0.00067942  0.62504590  0.62484933  1
  Zn  Zn94  1  0.18530511  0.18887941  0.19209082  1
  Zn  Zn95  1  0.21685969  0.16844654  0.66587277  1
  Zn  Zn96  1  0.19010421  0.68310881  0.19043046  1
  Zn  Zn97  1  0.18539103  0.68499184  0.68924546  1
  Zn  Zn98  1  0.68974502  0.19159082  0.18567803  1
  Zn  Zn99  1  0.68836961  0.19132096  0.68826117  1
  Zn  Zn100  1  0.70061397  0.69502349  0.20005500  1
  Zn  Zn101  1  0.68740875  0.69182973  0.69074072  1
  Zn  Zn102  1  0.31197459  0.31747651  0.31749702  1
  Zn  Zn103  1  0.32950154  0.31092290  0.82016642  1
  Zn  Zn104  1  0.31211609  0.80714364  0.31831294  1
  Zn  Zn105  1  0.30777426  0.80541316  0.80906016  1
  Zn  Zn106  1  0.80992965  0.30997694  0.31381077  1
  Zn  Zn107  1  0.81161819  0.30952584  0.81565162  1
  Zn  Zn108  1  0.80923249  0.81764768  0.30813905  1
  Zn  Zn109  1  0.81366824  0.81464150  0.81396993  1
  Zn  Zn110  1  0.19109331  0.43061228  0.43523021  1
  Zn  Zn111  1  0.21748402  0.41963398  0.92800766  1
  Zn  Zn112  1  0.18657667  0.93454569  0.43696328  1
  Zn  Zn113  1  0.22146695  0.95249918  0.96308524  1
  Zn  Zn114  1  0.68652825  0.43679763  0.43399659  1
  Zn  Zn115  1  0.69397254  0.44197478  0.94323461  1
  Zn  Zn116  1  0.65908123  1.04702823  0.41125259  1
  Zn  Zn117  1  0.69456159  0.93549671  0.94392029  1
  Zn  Zn118  1  0.30194383  0.06748972  0.06697077  1
  Zn  Zn119  1  0.32122185  0.06109897  0.56088488  1
  Zn  Zn120  1  0.31692356  0.55982332  0.06405407  1
  Zn  Zn121  1  0.31573209  0.56081977  0.56916705  1
  Zn  Zn122  1  0.81074064  0.05816378  0.06768405  1
  Zn  Zn123  1  0.81140646  0.06224840  0.56461301  1
  Zn  Zn124  1  0.81853652  0.55972939  0.06219658  1
  Zn  Zn125  1  0.81501977  0.55984807  0.56496998  1
  Zn  Zn126  1  0.44074254  0.44444559  0.17195851  1
  Zn  Zn127  1  0.43902178  0.44009429  0.68888215  1
  Zn  Zn128  1  0.43500326  0.93559771  0.18705247  1
  Zn  Zn129  1  0.43188264  0.92920347  0.69150311  1
  Zn  Zn130  1  0.93941325  0.43922897  0.18392014  1
  Zn  Zn131  1  0.94147317  0.43313616  0.68623366  1
  Zn  Zn132  1  0.93894162  0.93320979  0.19025794  1
  Zn  Zn133  1  0.93492993  0.93920752  0.68800364  1
  Zn  Zn134  1  0.05658057  0.05916346  0.31113154  1
  Zn  Zn135  1  0.07014849  0.06672866  0.81508128  1
  Zn  Zn136  1  0.06430901  0.55443659  0.31299266  1
  Zn  Zn137  1  0.06652669  0.56047399  0.81457264  1
  Zn  Zn138  1  0.54615968  0.07357665  0.29849515  1
  Zn  Zn139  1  0.56185217  0.06506035  0.80768528  1
  Zn  Zn140  1  0.56818894  0.56173998  0.31185253  1
  Zn  Zn141  1  0.56430940  0.56080268  0.81464313  1
  Zn  Zn142  1  0.47043563  0.17931890  0.42801282  1
  Zn  Zn143  1  0.45132193  0.16850999  0.91516426  1
  Zn  Zn144  1  0.44063852  0.68306454  0.43673866  1
  Zn  Zn145  1  0.44519155  0.63585877  0.93101367  1
  Zn  Zn146  1  0.94216142  0.18361539  0.43265698  1
  Zn  Zn147  1  0.93872217  0.18336989  0.93878730  1
  Zn  Zn148  1  0.94128645  0.68512103  0.43668480  1
  Zn  Zn149  1  0.93694278  0.68393487  0.93833820  1
  Zn  Zn150  1  0.06525486  0.30409660  0.05678473  1
  Zn  Zn151  1  0.06694259  0.30833543  0.56394329  1
  Zn  Zn152  1  0.06385616  0.81320580  0.06641648  1
  Zn  Zn153  1  0.05892367  0.80756727  0.56280867  1
  Zn  Zn154  1  0.55557829  0.31353259  0.05106671  1
  Zn  Zn155  1  0.56560919  0.31312531  0.56539280  1
  Zn  Zn156  1  0.59058626  0.74793888  0.07677012  1
  Zn  Zn157  1  0.57076745  0.82317070  0.56027442  1
  O  O158  1  0.12342358  0.12977588  0.11644692  1
  O  O159  1  0.11970861  0.11520965  0.61638123  1
  O  O160  1  0.11646654  0.63246636  0.11690647  1
  O  O161  1  0.12451433  0.61494423  0.61641686  1
  O  O162  1  0.62717734  0.12263858  0.11620525  1
  O  O163  1  0.63201106  0.10839864  0.63248379  1
  O  O164  1  0.63742961  0.65387902  0.11934897  1
  O  O165  1  0.62129916  0.61963939  0.62128377  1
  O  O166  1  0.38488708  0.37673844  0.38909234  1
  O  O167  1  0.33022136  0.38846610  0.89689476  1
  O  O168  1  0.38197463  0.87591974  0.38536184  1
  O  O169  1  0.37890199  0.88160371  0.86339445  1
  O  O170  1  0.87466380  0.37985572  0.38447834  1
  O  O171  1  0.87752093  0.37224555  0.88801647  1
  O  O172  1  0.88171519  0.88645859  0.36620052  1
  O  O173  1  0.87234882  0.88659883  0.88545383  1
  O  O174  1  0.26175179  -0.00591556  0.37102876  1
  O  O175  1  0.24143065  -0.01744303  0.85530438  1
  O  O176  1  0.24730932  0.50888782  0.37024917  1
  O  O177  1  0.23349861  0.51836680  0.86918306  1
  O  O178  1  0.76444828  0.00052051  0.38053865  1
  O  O179  1  0.75820411  0.00847408  0.86869868  1
  O  O180  1  0.75402872  0.50985741  0.36801635  1
  O  O181  1  0.75676284  0.50795203  0.86295754  1
  O  O182  1  0.24390649  0.50491651  0.13794783  1
  O  O183  1  0.24117580  0.49259359  0.62508610  1
  O  O184  1  0.25850270  0.98620149  0.14858286  1
  O  O185  1  0.23299297  0.98641395  0.63277902  1
  O  O186  1  0.75170526  0.50741285  0.13916555  1
  O  O187  1  0.74415912  0.49444039  0.63349343  1
  O  O188  1  0.74391240  0.98432167  0.12557225  1
  O  O189  1  0.74587168  0.99169571  0.63318174  1
  O  O190  1  0.01435996  0.38095355  0.25316792  1
  O  O191  1  0.01418425  0.36531403  0.74191788  1
  O  O192  1  0.01283108  0.87502979  0.26408203  1
  O  O193  1  0.00650723  0.86453870  0.74548532  1
  O  O194  1  0.50995384  0.37546050  0.24960972  1
  O  O195  1  0.51637867  0.38171119  0.75272621  1
  O  O196  1  0.49165616  0.86412646  0.26540898  1
  O  O197  1  0.51560268  0.88458772  0.75298695  1
  O  O198  1  0.49276286  0.14760310  0.23444579  1
  O  O199  1  0.49768194  0.13438388  0.73608586  1
  O  O200  1  0.49082149  0.63305118  0.26258006  1
  O  O201  1  0.49833864  0.62561682  0.73357852  1
  O  O202  1  0.98680781  0.12093974  0.24247634  1
  O  O203  1  0.99801496  0.13061628  0.74419644  1
  O  O204  1  0.99202687  0.61204603  0.24271851  1
  O  O205  1  0.99200713  0.63098825  0.74891866  1
  O  O206  1  0.35207824  0.26276264  -0.01060092  1
  O  O207  1  0.39112458  0.25927365  0.49483265  1
  O  O208  1  0.36297597  0.73397003  0.01364998  1
  O  O209  1  0.37443762  0.75800477  0.49653964  1
  O  O210  1  0.87547085  0.25207532  0.01066240  1
  O  O211  1  0.86420798  0.25772560  0.49398391  1
  O  O212  1  0.87985058  0.76138509  0.00413240  1
  O  O213  1  0.88063971  0.74230065  0.51559552  1
  O  O214  1  0.12334571  0.24076251  0.48825198  1
  O  O215  1  0.14300163  0.24050726  1.00579321  1
  O  O216  1  0.12300793  0.73317559  0.49419820  1
  O  O217  1  0.12814525  0.73939389  0.99499369  1
  O  O218  1  0.63909233  0.25785226  0.49787731  1
  O  O219  1  0.64241847  0.24758384  1.00645205  1
  O  O220  1  0.62393604  0.73752981  0.49468660  1
  O  O221  1  0.56005205  0.75451731  0.96249415  1
  O  O222  1  0.50314508  0.25014393  0.13363881  1
  O  O223  1  0.50805323  0.26506796  0.64474966  1
  O  O224  1  0.48968820  0.75621876  0.14220206  1
  O  O225  1  0.51110355  0.74165300  0.62083055  1
  O  O226  1  0.98726989  0.24535504  0.12870250  1
  O  O227  1  1.00463118  0.23738617  0.63324199  1
  O  O228  1  0.99041285  0.73628655  0.12192552  1
  O  O229  1  0.99163331  0.74681314  0.63663398  1
  O  O230  1  0.00848658  0.25114755  0.36848558  1
  O  O231  1  0.00169727  0.24420020  0.86226569  1
  O  O232  1  0.01055254  0.75385200  0.37783625  1
  O  O233  1  0.00596964  0.74378936  0.86453664  1
  O  O234  1  0.49842101  0.26682721  0.35437927  1
  O  O235  1  0.50089348  0.24798399  0.84941819  1
  O  O236  1  0.50660121  0.75502684  0.37202779  1
  O  O237  1  0.44200964  0.84254837  0.90700121  1
  O  O238  1  0.23365180  0.11355800  0.49978107  1
  O  O239  1  0.24507549  0.14196911  0.98907733  1
  O  O240  1  0.24239998  0.61931720  0.49576790  1
  O  O241  1  0.24283846  0.62981904  0.99530059  1
  O  O242  1  0.74657766  0.13534711  0.50307061  1
  O  O243  1  0.74170608  0.12929695  0.99782670  1
  O  O244  1  0.74375968  0.61685713  0.49171610  1
  O  O245  1  0.75948683  0.61756881  0.98317637  1
  O  O246  1  0.23957369  0.36426550  0.02427251  1
  O  O247  1  0.26881170  0.37928023  0.50522001  1
  O  O248  1  0.23629507  0.85314520  0.01834702  1
  O  O249  1  0.25524786  0.87024968  0.50603554  1
  O  O250  1  0.76260278  0.35976275  -0.00290142  1
  O  O251  1  0.75692019  0.37298469  0.50630235  1
  O  O252  1  0.76835751  0.87805901  0.01155312  1
  O  O253  1  0.74486354  0.87835381  0.51549561  1
  O  O254  1  0.13701372  0.48729789  0.25474222  1
  O  O255  1  0.11991341  0.48970916  0.73704956  1
  O  O256  1  0.14003971  0.98553972  0.26651090  1
  O  O257  1  0.12430704  0.98778925  0.74170112  1
  O  O258  1  0.63170310  0.49058456  0.24648504  1
  O  O259  1  0.63472942  0.49408415  0.74324767  1
  O  O260  1  0.62833970  1.00148255  0.30444666  1
  O  O261  1  0.63303325  0.99412049  0.74637551  1
  O  O262  1  0.36550597  -0.00598372  0.26749582  1
  O  O263  1  0.35338125  -0.00267292  0.74419327  1
  O  O264  1  0.36320027  0.50408852  0.24508100  1
  O  O265  1  0.37487138  0.52057599  0.73727866  1
  O  O266  1  0.86971129  0.00556459  0.25537060  1
  O  O267  1  0.86879188  0.00613181  0.76047764  1
  O  O268  1  0.86894149  0.50469748  0.25566699  1
  O  O269  1  0.87093521  0.50589077  0.74766141  1
  O  O270  1  0.12348558  0.36056489  0.37441322  1
  O  O271  1  0.13428788  0.37978648  0.85452001  1
  O  O272  1  0.12020145  0.86243431  0.37191988  1
  O  O273  1  0.12825071  0.86100554  0.86402078  1
  O  O274  1  0.61392803  0.37330064  0.36825220  1
  O  O275  1  0.63682025  0.38122262  0.86220871  1
  O  O276  1  0.61284079  0.86037537  0.39038091  1
  O  O277  1  0.63293412  0.87729262  0.86486602  1
  O  O278  1  0.38502378  0.13187824  0.11040133  1
  O  O279  1  0.32446754  0.13021127  0.64484007  1
  O  O280  1  0.36852541  0.63375202  0.14151735  1
  O  O281  1  0.39235496  0.63059842  0.62306834  1
  O  O282  1  0.87826166  0.12832733  0.13367224  1
  O  O283  1  0.88647600  0.11381112  0.63827213  1
  O  O284  1  0.88247018  0.63028034  0.13190937  1
  O  O285  1  0.87365899  0.63269546  0.63526792  1
  O  O286  1  0.26227571  0.24132084  0.12697381  1
  O  O287  1  0.24166946  0.26854649  0.61644529  1
  O  O288  1  0.25839820  0.75074703  0.12436035  1
  O  O289  1  0.23880170  0.76049441  0.62140176  1
  O  O290  1  0.76596109  0.24235967  0.11075870  1
  O  O291  1  0.74762236  0.26015425  0.61339902  1
  O  O292  1  0.77037139  0.75872100  0.12862077  1
  O  O293  1  0.75644698  0.76450924  0.63117085  1
  O  O294  1  0.23753039  0.24813899  0.37120880  1
  O  O295  1  0.23706653  0.24555405  0.85896221  1
  O  O296  1  0.23873446  0.73446396  0.37951461  1
  O  O297  1  0.23988816  0.74397077  0.88507593  1
  O  O298  1  0.74660562  0.24891320  0.38812475  1
  O  O299  1  0.76352816  0.23706463  0.89315129  1
  O  O300  1  0.74433648  0.73816263  0.36789644  1
  O  O301  1  0.75438504  0.73790108  0.87474571  1
  O  O302  1  0.01587829  0.12873258  0.00240142  1
  O  O303  1  0.00660758  0.12238687  0.51004416  1
  O  O304  1  0.00619682  0.61821286  0.00734833  1
  O  O305  1  0.00927951  0.61169044  0.50093532  1
  O  O306  1  0.51672952  0.14112283  0.01582916  1
  O  O307  1  0.47578073  0.10457934  0.51798356  1
  O  O308  1  0.53585874  0.67307058  -0.01661953  1
  O  O309  1  0.51023400  0.61998987  0.50902730  1
  O  O310  1  0.49463925  0.38117497  0.49425064  1
  O  O311  1  0.48184425  0.36638086  0.98300859  1
  O  O312  1  0.49084160  0.87939303  0.49501681  1
  O  O313  1  0.47609267  0.89176846  0.95392850  1
  O  O314  1  0.99104528  0.37903364  0.50406921  1
  O  O315  1  0.99654791  0.38286233  1.00797124  1
  O  O316  1  1.00372656  0.87446579  0.48692900  1
  O  O317  1  0.98935913  0.87330420  1.00028536  1
  O  O318  1  0.50793104  0.49370157  0.38532769  1
  O  O319  1  0.49083524  0.53768561  0.89298067  1
  O  O320  1  0.48487508  0.99137131  0.38868320  1
  O  O321  1  0.48335593  1.05749362  0.88438451  1
  O  O322  1  0.99496106  0.49489505  0.38732872  1
  O  O323  1  0.99904527  0.50711259  0.89071261  1
  O  O324  1  0.99108489  0.98883165  0.37717591  1
  O  O325  1  0.98759474  1.00272666  0.86810551  1
  O  O326  1  0.00752414  -0.01385897  0.12329809  1
  O  O327  1  0.00897206  0.00579055  0.62631185  1
  O  O328  1  -0.00471439  0.51303204  0.11241094  1
  O  O329  1  0.00848811  0.49958648  0.61427974  1
  O  O330  1  0.49304641  0.02101103  0.13827431  1
  O  O331  1  0.50580854  -0.01378872  0.61706449  1
  O  O332  1  0.49926273  0.51483869  0.10846929  1
  O  O333  1  0.51351773  0.50410483  0.61686635  1
  O  O334  1  0.24205593  0.38648039  0.25428438  1
  O  O335  1  0.24154577  0.37709156  0.73325810  1
  O  O336  1  0.24192767  0.87312680  0.25000353  1
  O  O337  1  0.23768113  0.87708111  0.74110303  1
  O  O338  1  0.73778667  0.38340600  0.25537126  1
  O  O339  1  0.74888748  0.38059293  0.74376957  1
  O  O340  1  0.75045698  0.87497480  0.22915563  1
  O  O341  1  0.74583042  0.88810988  0.75015053  1
  O  O342  1  0.24355685  0.10715266  0.25149231  1
  O  O343  1  0.22330694  0.10516334  0.76619574  1
  O  O344  1  0.25514825  0.61160327  0.25773226  1
  O  O345  1  0.25429692  0.62422251  0.75540013  1
  O  O346  1  0.76241934  0.12035503  0.24470227  1
  O  O347  1  0.75789132  0.11969207  0.75635492  1
  O  O348  1  0.76216538  0.61697304  0.26204067  1
  O  O349  1  0.75921283  0.61688115  0.75062722  1
  O  O350  1  0.38127143  0.10913162  0.38195242  1
  O  O351  1  0.34458779  0.12731919  0.86201172  1
  O  O352  1  0.36551189  0.62808663  0.36661514  1
  O  O353  1  0.35766078  0.63565547  0.86360281  1
  O  O354  1  0.88115376  0.11127071  0.36055175  1
  O  O355  1  0.86989413  0.11293860  0.87024902  1
  O  O356  1  0.87157304  0.61904375  0.37071918  1
  O  O357  1  0.86761677  0.62406738  0.86232849  1
  O  O358  1  0.12183868  0.36758671  0.14090399  1
  O  O359  1  0.13679837  0.38269964  0.62109869  1
  O  O360  1  0.13684246  0.86161422  0.14154902  1
  O  O361  1  0.12607760  0.87786637  0.63091622  1
  O  O362  1  0.62310023  0.37099502  0.13510426  1
  O  O363  1  0.63726509  0.38662146  0.63072443  1
  O  O364  1  0.64194644  0.85070179  0.10459194  1
  O  O365  1  0.63746583  0.88354262  0.63666652  1
  O  O366  1  0.12557447  0.26140368  0.26026833  1
  O  O367  1  0.12117142  0.26242920  0.74235318  1
  O  O368  1  0.12956142  0.75304804  0.26206093  1
  O  O369  1  0.11579155  0.75320797  0.75657693  1
  O  O370  1  0.62556564  0.26498554  0.24995542  1
  O  O371  1  0.62759946  0.26603194  0.75014830  1
  O  O372  1  0.61459262  0.74523077  0.26547037  1
  O  O373  1  0.62707460  0.76751186  0.75366256  1
  O  O374  1  0.38431174  0.26808566  0.24359518  1
  O  O375  1  0.38398904  0.25253249  0.74336678  1
  O  O376  1  0.38146320  0.73889329  0.24866884  1
  O  O377  1  0.37200267  0.73675100  0.74471536  1
  O  O378  1  0.87065382  0.24186937  0.23927327  1
  O  O379  1  0.88263276  0.23648069  0.75511752  1
  O  O380  1  0.87514750  0.73523449  0.24555780  1
  O  O381  1  0.88078854  0.74484231  0.74455136  1
  O  O382  1  0.39144982  0.49891064  0.50587642  1
  O  O383  1  0.37358425  0.48811637  1.00017250  1
  O  O384  1  0.37749575  0.98625175  0.49395629  1
  O  O385  1  0.32795376  0.98399021  0.99794713  1
  O  O386  1  0.88227580  0.49201677  0.49661745  1
  O  O387  1  0.88375517  0.48668831  0.99950546  1
  O  O388  1  0.87734826  1.00689920  0.48728676  1
  O  O389  1  0.87644670  0.99495239  0.98885636  1
  O  O390  1  0.14063011  0.01945773  0.00613693  1
  O  O391  1  0.12030773  0.00267734  0.50598086  1
  O  O392  1  0.12106118  0.51290330  -0.00393922  1
  O  O393  1  0.11975021  0.50268718  0.50445402  1
  O  O394  1  0.62587342  0.01284865  -0.00093876  1
  O  O395  1  0.60539845  0.00187274  0.50727862  1
  O  O396  1  0.62252576  0.48671888  0.01169905  1
  O  O397  1  0.62118677  0.50919350  0.50774360  1
  O  O398  1  0.37800877  0.37434222  0.10549162  1
  O  O399  1  0.36687618  0.37827300  0.61413069  1
  O  O400  1  0.36295089  0.85852680  0.13631386  1
  O  O401  1  0.36100738  0.87875595  0.61613284  1
  O  O402  1  0.87821519  0.36020930  0.11874187  1
  O  O403  1  0.86490036  0.38017127  0.61551336  1
  O  O404  1  0.87607113  0.86718539  0.11435473  1
  O  O405  1  0.86246110  0.87062122  0.62955549  1
  O  O406  1  0.11754167  0.13573290  0.37966724  1
  O  O407  1  0.13461744  0.12206736  0.88986250  1
  O  O408  1  0.12997951  0.62524077  0.38142390  1
  O  O409  1  0.12952391  0.63671979  0.88161918  1
  O  O410  1  0.58256204  0.13715416  0.39172871  1
  O  O411  1  0.63909873  0.12397064  0.88422592  1
  O  O412  1  0.63367810  0.63102274  0.38384588  1
  O  O413  1  0.64650211  0.62929174  0.86228078  1
