# generated using pymatgen
data_V79Zn79O256
_symmetry_space_group_name_H-M   'P 1'
_cell_length_a   16.94171661
_cell_length_b   16.93780346
_cell_length_c   16.92849428
_cell_angle_alpha   89.99260017
_cell_angle_beta   89.95160850
_cell_angle_gamma   90.23188779
_symmetry_Int_Tables_number   1
_chemical_formula_structural   V79Zn79O256
_chemical_formula_sum   'V79 Zn79 O256'
_cell_volume   4857.68240685
_cell_formula_units_Z   1
loop_
 _symmetry_equiv_pos_site_id
 _symmetry_equiv_pos_as_xyz
  1  'x, y, z'
loop_
 _atom_site_type_symbol
 _atom_site_label
 _atom_site_symmetry_multiplicity
 _atom_site_fract_x
 _atom_site_fract_y
 _atom_site_fract_z
 _atom_site_occupancy
  V  V0  1  0.12743941  0.37520962  0.74994510  1
  V  V1  1  0.62359033  0.87695171  0.25159585  1
  V  V2  1  0.75396157  0.12151297  0.37356726  1
  V  V3  1  0.87592218  0.87504206  0.49538045  1
  V  V4  1  0.11349342  0.62060076  -0.00088413  1
  V  V5  1  0.12206168  0.50646982  0.62382642  1
  V  V6  1  0.37468878  0.50040229  0.87839558  1
  V  V7  1  0.75276110  0.23683949  -0.00505309  1
  V  V8  1  0.13166428  0.24617115  0.37357574  1
  V  V9  1  0.24621754  0.00157414  0.25784385  1
  V  V10  1  0.87402186  0.24267247  0.12314602  1
  V  V11  1  0.23856705  0.36374933  0.12676210  1
  V  V12  1  -0.01155875  0.38139229  0.88051786  1
  V  V13  1  0.50355716  0.50297523  0.00657776  1
  V  V14  1  0.87958362  0.61896086  0.24464234  1
  V  V15  1  0.75240551  0.37480270  0.12957293  1
  V  V16  1  0.62197145  0.74892331  0.37517503  1
  V  V17  1  0.61941845  0.62106463  0.50189184  1
  V  V18  1  0.13536543  0.13107513  0.49919256  1
  V  V19  1  -0.00743792  0.24076788  0.25176907  1
  V  V20  1  0.12771759  0.00179522  0.63044001  1
  V  V21  1  0.11531486  0.50051191  0.12854970  1
  V  V22  1  0.87894310  0.74500674  0.62687268  1
  V  V23  1  0.37699535  0.73111087  0.11694871  1
  V  V24  1  0.74965021  0.87686984  0.62935373  1
  V  V25  1  0.87430069  0.37380363  0.50138097  1
  V  V26  1  0.12091304  0.62784975  0.49101223  1
  V  V27  1  0.37161573  0.75004482  0.62818174  1
  V  V28  1  0.62683133  -0.00096089  0.63051718  1
  V  V29  1  0.37047068  0.87614179  0.49740989  1
  V  V30  1  0.12350049  -0.01235779  0.12801544  1
  V  V31  1  0.00607961  -0.00294359  -0.01301478  1
  V  V32  1  0.38772903  -0.00336568  0.88724177  1
  V  V33  1  0.26595064  0.86992419  0.12417362  1
  V  V34  1  0.75547438  0.00392376  0.75953340  1
  V  V35  1  -0.00373184  0.74938862  0.75533055  1
  V  V36  1  0.50801526  0.37538810  0.87718095  1
  V  V37  1  0.49762840  0.62172160  0.62678157  1
  V  V38  1  0.25910474  0.50257430  0.25070566  1
  V  V39  1  0.25020338  0.50142523  0.75147209  1
  V  V40  1  0.36872722  0.36874536  -0.00040547  1
  V  V41  1  0.24837102  0.62936099  0.88261500  1
  V  V42  1  0.62418909  -0.00437587  0.10880838  1
  V  V43  1  0.74799071  0.74984473  0.50046596  1
  V  V44  1  0.49686176  0.00162021  0.50285747  1
  V  V45  1  0.62303061  0.22617211  0.88112718  1
  V  V46  1  0.62522705  0.49986526  0.63415284  1
  V  V47  1  0.87512561  0.12131197  0.76624029  1
  V  V48  1  0.00475445  0.11862230  0.12553460  1
  V  V49  1  0.12459803  0.75237484  0.88084986  1
  V  V50  1  0.62084899  0.12744562  0.49670443  1
  V  V51  1  0.00048003  0.24983146  0.75279988  1
  V  V52  1  0.63039418  0.49494387  0.13491517  1
  V  V53  1  0.50367887  0.10934475  0.12020346  1
  V  V54  1  0.24225464  0.74933179  0.49028845  1
  V  V55  1  0.26272330  0.37006090  0.61422640  1
  V  V56  1  0.49527238  0.13059543  0.63404013  1
  V  V57  1  0.87892136  0.87772799  -0.01511341  1
  V  V58  1  0.37107521  0.01542666  0.37853913  1
  V  V59  1  0.62723968  0.62468879  0.00363430  1
  V  V60  1  0.37557797  0.62900509  0.75431187  1
  V  V61  1  0.01358097  0.86614690  0.37000017  1
  V  V62  1  0.87240731  0.61256194  0.75198622  1
  V  V63  1  0.75159995  0.62055581  0.36959002  1
  V  V64  1  0.24540590  0.87634792  0.62845004  1
  V  V65  1  -0.00253728  0.50368125  0.50207342  1
  V  V66  1  0.39083346  0.24812802  0.12655509  1
  V  V67  1  0.35700717  0.12246748  0.75763976  1
  V  V68  1  0.11838667  0.87626711  0.75449922  1
  V  V69  1  -0.00189293  0.00086631  0.49878858  1
  V  V70  1  -0.00411892  0.12737097  0.62480099  1
  V  V71  1  0.13812107  0.24388463  0.88697374  1
  V  V72  1  0.74177627  0.25015841  0.49970312  1
  V  V73  1  0.00062016  0.37162654  0.36888124  1
  V  V74  1  0.88297426  0.75492707  0.12886316  1
  V  V75  1  0.74716766  0.37849660  0.63367343  1
  V  V76  1  0.75151187  0.60753071  0.87329526  1
  V  V77  1  0.48532244  0.73645478  0.24923265  1
  V  V78  1  0.62492915  0.75792657  0.86719035  1
  Zn  Zn79  1  0.88293988  0.00640980  0.35903097  1
  Zn  Zn80  1  0.37843855  0.41169021  0.47332657  1
  Zn  Zn81  1  0.37487019  0.13376108  0.25769763  1
  Zn  Zn82  1  0.63032032  0.37532995  0.75787489  1
  Zn  Zn83  1  0.49631904  0.77012921  0.76232147  1
  Zn  Zn84  1  0.01809194  0.74556122  0.24537951  1
  Zn  Zn85  1  0.75075540  0.87384517  0.12537923  1
  Zn  Zn86  1  0.49648135  0.87335943  0.37682086  1
  Zn  Zn87  1  0.86914239  0.24959667  0.62922282  1
  Zn  Zn88  1  0.25809460  0.61580902  0.37273002  1
  Zn  Zn89  1  -0.01807154  0.49778743  0.00112983  1
  Zn  Zn90  1  0.87287294  0.49613348  0.36590174  1
  Zn  Zn91  1  0.49840127  0.25118750  0.75158584  1
  Zn  Zn92  1  0.75146397  0.75117510  -0.00015164  1
  Zn  Zn93  1  0.74896339  0.00320516  0.24778959  1
  Zn  Zn94  1  0.18289358  0.18145126  0.19218269  1
  Zn  Zn95  1  0.18722178  0.19342988  0.68412210  1
  Zn  Zn96  1  0.19340909  0.68010872  0.18229763  1
  Zn  Zn97  1  0.18627537  0.68895375  0.68817658  1
  Zn  Zn98  1  0.68680156  0.18286864  0.18262003  1
  Zn  Zn99  1  0.68514151  0.18761709  0.69159410  1
  Zn  Zn100  1  0.69206999  0.68891032  0.18627959  1
  Zn  Zn101  1  0.69014286  0.68602118  0.69026227  1
  Zn  Zn102  1  0.30891644  0.31680581  0.30506746  1
  Zn  Zn103  1  0.31576701  0.30945848  0.80876188  1
  Zn  Zn104  1  0.19131203  0.81474445  0.30449861  1
  Zn  Zn105  1  0.30851168  0.81710672  0.81464505  1
  Zn  Zn106  1  0.80976614  0.30684871  0.31269235  1
  Zn  Zn107  1  0.81087685  0.30509554  0.81592317  1
  Zn  Zn108  1  0.81221003  0.81137039  0.30977378  1
  Zn  Zn109  1  0.80429879  0.80704641  0.81262065  1
  Zn  Zn110  1  0.18391974  0.43337181  0.43579050  1
  Zn  Zn111  1  0.18221964  0.43582210  0.93937009  1
  Zn  Zn112  1  0.18609539  0.94385535  0.44314656  1
  Zn  Zn113  1  0.21288981  0.92834020  0.93202742  1
  Zn  Zn114  1  0.69324364  0.44669073  0.44881813  1
  Zn  Zn115  1  0.69817885  0.43072030  0.95018169  1
  Zn  Zn116  1  0.68484091  0.93750387  0.44027929  1
  Zn  Zn117  1  0.69295275  0.93372283  0.93772376  1
  Zn  Zn118  1  0.31428103  0.05688415  0.06651263  1
  Zn  Zn119  1  0.31403983  0.06712237  0.56849000  1
  Zn  Zn120  1  0.30491239  0.55394385  0.06228826  1
  Zn  Zn121  1  0.30441699  0.56717197  0.56562059  1
  Zn  Zn122  1  0.81635252  0.05859224  0.06071219  1
  Zn  Zn123  1  0.81176293  0.06317465  0.56203289  1
  Zn  Zn124  1  0.81340209  0.56430960  0.06398823  1
  Zn  Zn125  1  0.80959061  0.56208788  0.56316328  1
  Zn  Zn126  1  0.43824190  0.43705538  0.18668834  1
  Zn  Zn127  1  0.44054307  0.44011211  0.69191776  1
  Zn  Zn128  1  0.43794249  0.93431406  0.19701664  1
  Zn  Zn129  1  0.42993707  0.94425127  0.69842257  1
  Zn  Zn130  1  0.93254216  0.43028252  0.18378494  1
  Zn  Zn131  1  0.93847545  0.43444378  0.68679346  1
  Zn  Zn132  1  0.93574212  0.93686313  0.18963669  1
  Zn  Zn133  1  0.93644207  0.93663402  0.68930882  1
  Zn  Zn134  1  0.06323736  0.06376759  0.31240013  1
  Zn  Zn135  1  0.06754075  0.06558606  0.81231155  1
  Zn  Zn136  1  0.06151655  0.56151737  0.31153613  1
  Zn  Zn137  1  0.05823226  0.56433296  0.81107690  1
  Zn  Zn138  1  0.55736341  0.06600675  0.30907457  1
  Zn  Zn139  1  0.55891871  0.04362478  0.81433865  1
  Zn  Zn140  1  0.56412251  0.56140459  0.31091043  1
  Zn  Zn141  1  0.56138505  0.56646769  0.81459361  1
  Zn  Zn142  1  0.49190629  0.34327275  0.38302884  1
  Zn  Zn143  1  0.43566860  0.18189710  0.94010541  1
  Zn  Zn144  1  0.43425980  0.68393769  0.44133174  1
  Zn  Zn145  1  0.44219042  0.69089990  0.94096691  1
  Zn  Zn146  1  0.93481843  0.18916210  0.44076633  1
  Zn  Zn147  1  0.94571911  0.18810691  0.94348947  1
  Zn  Zn148  1  0.93625028  0.68673550  0.43487241  1
  Zn  Zn149  1  0.93464568  0.68793853  0.93612858  1
  Zn  Zn150  1  0.05905072  0.30989317  0.06079372  1
  Zn  Zn151  1  0.06632617  0.31466802  0.56155836  1
  Zn  Zn152  1  0.06270966  0.81500560  0.06083807  1
  Zn  Zn153  1  0.05942002  0.81083433  0.56393956  1
  Zn  Zn154  1  0.56906159  0.31334691  0.05774445  1
  Zn  Zn155  1  0.55362943  0.31898924  0.56072017  1
  Zn  Zn156  1  0.55308630  0.81170557  0.05989480  1
  Zn  Zn157  1  0.54040010  0.83369896  0.60334321  1
  O  O158  1  0.11241970  0.11292469  0.12753329  1
  O  O159  1  0.11446462  0.12069201  0.62180497  1
  O  O160  1  0.13026195  0.61014686  0.11107477  1
  O  O161  1  0.12845132  0.61195814  0.61881044  1
  O  O162  1  0.61366486  0.10818731  0.13207626  1
  O  O163  1  0.61973200  0.11559624  0.61934783  1
  O  O164  1  0.64158361  0.60929947  0.11286495  1
  O  O165  1  0.61965959  0.62130594  0.62176616  1
  O  O166  1  0.38107348  0.34446502  0.38107385  1
  O  O167  1  0.38289318  0.37867735  0.88260926  1
  O  O168  1  0.37523878  0.88454751  0.39517282  1
  O  O169  1  0.32150062  0.91224104  0.87395762  1
  O  O170  1  0.87813635  0.37515805  0.38519189  1
  O  O171  1  0.89024033  0.36932306  0.86478590  1
  O  O172  1  0.88090415  0.87342253  0.38808898  1
  O  O173  1  0.87331818  0.86688286  0.88618426  1
  O  O174  1  0.25375554  -0.00409519  0.36562250  1
  O  O175  1  0.23672886  0.04685545  0.91751344  1
  O  O176  1  0.23965759  0.48802357  0.35319101  1
  O  O177  1  0.25379226  0.50630235  0.87083871  1
  O  O178  1  0.74963899  0.01374283  0.38136432  1
  O  O179  1  0.74560205  -0.00313232  0.85757273  1
  O  O180  1  0.75568354  0.51604562  0.38201206  1
  O  O181  1  0.74496562  0.50854619  0.87683492  1
  O  O182  1  0.23771431  0.49050106  0.13231583  1
  O  O183  1  0.24098985  0.49418798  0.63211709  1
  O  O184  1  0.24497773  0.99103728  0.13333809  1
  O  O185  1  0.23559466  0.99079486  0.61759801  1
  O  O186  1  0.74363112  0.48311803  0.11907315  1
  O  O187  1  0.73982409  0.48883960  0.62006515  1
  O  O188  1  0.73315676  1.00046131  0.12589411  1
  O  O189  1  0.74460780  0.99439787  0.62723708  1
  O  O190  1  -0.00840490  0.36448673  0.26270642  1
  O  O191  1  0.00823530  0.36749723  0.75249562  1
  O  O192  1  -0.00166548  0.87428872  0.26921116  1
  O  O193  1  0.00912269  0.86584211  0.74579532  1
  O  O194  1  0.50546575  0.41157292  0.27966244  1
  O  O195  1  0.50093209  0.37198556  0.76472739  1
  O  O196  1  0.50949055  0.86349655  0.25613910  1
  O  O197  1  0.50728055  0.86796695  0.71010598  1
  O  O198  1  0.48827174  0.11690654  0.23208126  1
  O  O199  1  0.50530099  0.11836540  0.73790261  1
  O  O200  1  0.50121272  0.63758087  0.25507861  1
  O  O201  1  0.49131139  0.62774366  0.74343295  1
  O  O202  1  0.99771225  0.13019252  0.24202614  1
  O  O203  1  0.99442413  0.13040781  0.74268206  1
  O  O204  1  0.98323733  0.63129644  0.26065354  1
  O  O205  1  0.98263797  0.63494014  0.75599799  1
  O  O206  1  0.37775858  0.25996950  0.00985575  1
  O  O207  1  0.48794722  0.37722780  0.49485972  1
  O  O208  1  0.38219614  0.74872050  0.01721032  1
  O  O209  1  0.36428403  0.75733395  0.50668932  1
  O  O210  1  0.86369928  0.24461916  0.00579949  1
  O  O211  1  0.86616410  0.25998652  0.50582511  1
  O  O212  1  0.87941676  0.75935438  0.00956537  1
  O  O213  1  0.87063072  0.75472100  0.50826589  1
  O  O214  1  0.11583652  0.24196563  0.48805303  1
  O  O215  1  0.12065971  0.25018330  0.98613497  1
  O  O216  1  0.12902203  0.73883892  0.50995473  1
  O  O217  1  0.11612918  0.74136577  0.98779032  1
  O  O218  1  0.63133526  0.23883276  0.51139398  1
  O  O219  1  0.63375071  0.24529342  0.98931690  1
  O  O220  1  0.63007101  0.74061309  0.48857632  1
  O  O221  1  0.62438802  0.73604982  0.99620984  1
  O  O222  1  0.49289454  0.25018342  0.12533624  1
  O  O223  1  0.50820048  0.23323297  0.62986927  1
  O  O224  1  0.48766673  0.75003372  0.13869714  1
  O  O225  1  0.48834348  0.73309874  0.62388719  1
  O  O226  1  0.99511106  0.24174457  0.13079956  1
  O  O227  1  1.00226920  0.24338546  0.63495150  1
  O  O228  1  0.98765931  0.75263347  0.12653509  1
  O  O229  1  0.98658875  0.75259885  0.63491909  1
  O  O230  1  -0.00319147  0.25349449  0.36818237  1
  O  O231  1  0.00769232  0.25854279  0.86525443  1
  O  O232  1  0.00000434  0.76479553  0.37942674  1
  O  O233  1  0.00966379  0.74837648  0.86447985  1
  O  O234  1  0.56034524  0.23917668  0.28749354  1
  O  O235  1  0.51360227  0.25546933  0.88289994  1
  O  O236  1  0.50445702  0.74908880  0.37027362  1
  O  O237  1  0.51803409  0.73827529  0.87175349  1
  O  O238  1  0.23448416  0.12387174  0.51035149  1
  O  O239  1  0.23503803  0.09284315  0.97962987  1
  O  O240  1  0.23768306  0.63421596  0.49807266  1
  O  O241  1  0.23762333  0.61669608  0.98686260  1
  O  O242  1  0.74088497  0.13085725  0.49720438  1
  O  O243  1  0.75031661  0.13663281  1.00577217  1
  O  O244  1  0.74311100  0.63210039  0.49448861  1
  O  O245  1  0.74473556  0.62528175  0.98703713  1
  O  O246  1  0.26151729  0.38507797  0.01238995  1
  O  O247  1  0.26107029  0.39098680  0.51077405  1
  O  O248  1  0.24174468  0.87417208  0.02677745  1
  O  O249  1  0.25000778  0.86914402  0.50868943  1
  O  O250  1  0.74683884  0.35294810  0.01573254  1
  O  O251  1  0.75523606  0.36829337  0.50848089  1
  O  O252  1  0.76767999  0.87519211  0.00404331  1
  O  O253  1  0.75934745  0.87112640  0.50597225  1
  O  O254  1  0.12505645  0.50455444  0.23204352  1
  O  O255  1  0.12686239  0.49401933  0.74312676  1
  O  O256  1  0.13840491  1.00539803  0.24625860  1
  O  O257  1  0.11654507  0.99140548  0.73925137  1
  O  O258  1  0.63137244  0.50849721  0.23234141  1
  O  O259  1  0.62211047  0.49946955  0.73872774  1
  O  O260  1  0.62456597  0.98799671  0.24968707  1
  O  O261  1  0.64135757  1.00546101  0.73906861  1
  O  O262  1  0.36554174  -0.00230911  0.26342010  1
  O  O263  1  0.36965336  0.01477759  0.75968365  1
  O  O264  1  0.35770941  0.49649680  0.23899473  1
  O  O265  1  0.37027887  0.50817915  0.76003323  1
  O  O266  1  0.86089272  -0.00905430  0.25098651  1
  O  O267  1  0.86570291  0.00743893  0.74473092  1
  O  O268  1  0.87854464  0.51417763  0.24582187  1
  O  O269  1  0.87941936  0.51446913  0.74359114  1
  O  O270  1  0.10938489  0.35809454  0.38557095  1
  O  O271  1  0.11886140  0.36811838  0.86344807  1
  O  O272  1  0.11722327  0.87568063  0.37949817  1
  O  O273  1  0.13834400  0.86684558  0.86352712  1
  O  O274  1  0.64846903  0.38679689  0.35792561  1
  O  O275  1  0.61548500  0.37712891  0.87956731  1
  O  O276  1  0.62207926  0.86454634  0.37282814  1
  O  O277  1  0.63007655  0.85664338  0.88158775  1
  O  O278  1  0.38116492  0.13748082  0.11932222  1
  O  O279  1  0.38750065  0.11901126  0.64014396  1
  O  O280  1  0.36662297  0.63202818  0.12070252  1
  O  O281  1  0.37776968  0.62875319  0.63371618  1
  O  O282  1  0.88473507  0.13393864  0.12227793  1
  O  O283  1  0.88725589  0.12605532  0.62755187  1
  O  O284  1  0.86862919  0.63686204  0.13840637  1
  O  O285  1  0.86151319  0.63558303  0.63931894  1
  O  O286  1  0.24188774  0.26152866  0.12621257  1
  O  O287  1  0.24560223  0.27113781  0.62332491  1
  O  O288  1  0.26916451  0.75983539  0.13724003  1
  O  O289  1  0.25194275  0.75707201  0.61713869  1
  O  O290  1  0.75410321  0.24915475  0.11725167  1
  O  O291  1  0.74853194  0.25705191  0.61694814  1
  O  O292  1  0.76266339  0.75264378  0.11963275  1
  O  O293  1  0.75694198  0.75891990  0.62269939  1
  O  O294  1  0.22888306  0.25341065  0.36481634  1
  O  O295  1  0.23726997  0.26055359  0.87482066  1
  O  O296  1  0.24799936  0.74991139  0.38875896  1
  O  O297  1  0.23765967  0.73905759  0.86904448  1
  O  O298  1  0.75307485  0.23824742  0.39066763  1
  O  O299  1  0.73774619  0.24822411  0.88543617  1
  O  O300  1  0.74129331  0.74318116  0.37990555  1
  O  O301  1  0.73816182  0.73927715  0.87944074  1
  O  O302  1  -0.00656066  0.10623208  0.01121826  1
  O  O303  1  0.00318515  0.11834313  0.50791080  1
  O  O304  1  0.00974249  0.61769493  -0.01109168  1
  O  O305  1  0.00326613  0.61232810  0.49433815  1
  O  O306  1  0.49931777  0.12974699  0.02145111  1
  O  O307  1  0.50542843  0.11392742  0.51669296  1
  O  O308  1  0.51128231  0.61064296  -0.00409183  1
  O  O309  1  0.51202195  0.63005645  0.51070699  1
  O  O310  1  0.60739258  0.32818189  0.38985188  1
  O  O311  1  0.49303236  0.38198832  0.99390476  1
  O  O312  1  0.48841492  0.88768468  0.51032668  1
  O  O313  1  0.47933998  0.85549321  0.99012716  1
  O  O314  1  0.99031438  0.37936556  0.49416237  1
  O  O315  1  1.00052304  0.37276782  0.98301769  1
  O  O316  1  0.99537929  0.88221188  0.49469173  1
  O  O317  1  0.98922130  0.88430069  1.00150702  1
  O  O318  1  0.49484159  0.47379975  0.33520462  1
  O  O319  1  0.49532199  0.49351372  0.88427096  1
  O  O320  1  0.49110388  0.99866828  0.38852178  1
  O  O321  1  0.48512133  0.97693112  0.86714216  1
  O  O322  1  0.99798685  0.48824639  0.38370882  1
  O  O323  1  1.00479155  0.48367784  0.87192147  1
  O  O324  1  1.00062855  0.99141492  0.38512157  1
  O  O325  1  1.00864652  1.00256707  0.88796787  1
  O  O326  1  0.00717887  0.00324245  0.12773785  1
  O  O327  1  0.00679509  0.00672470  0.61827749  1
  O  O328  1  0.01273683  0.48607570  0.12139493  1
  O  O329  1  0.00966555  0.49036061  0.61261050  1
  O  O330  1  0.50732275  0.00208077  0.12398462  1
  O  O331  1  0.50802970  0.00787490  0.62101947  1
  O  O332  1  0.51651684  0.48828189  0.11621174  1
  O  O333  1  0.50672929  0.51318335  0.62897350  1
  O  O334  1  0.24698190  0.38179106  0.23104755  1
  O  O335  1  0.24307433  0.38150923  0.74341468  1
  O  O336  1  0.24786591  0.89120291  0.23855841  1
  O  O337  1  0.23334576  0.86634034  0.73382197  1
  O  O338  1  0.75098646  0.36075661  0.23053573  1
  O  O339  1  0.75048589  0.36555418  0.73730021  1
  O  O340  1  0.73330599  0.87134872  0.24859795  1
  O  O341  1  0.76174640  0.88860415  0.73755651  1
  O  O342  1  0.25811483  0.10727731  0.24070611  1
  O  O343  1  0.25839336  0.12825892  0.74490395  1
  O  O344  1  0.24895216  0.60808185  0.25455855  1
  O  O345  1  0.25401102  0.62066315  0.75928364  1
  O  O346  1  0.73612599  0.12950622  0.27176622  1
  O  O347  1  0.76150368  0.11338735  0.74298553  1
  O  O348  1  0.76267552  0.63290010  0.26087114  1
  O  O349  1  0.75960180  0.62480959  0.76197137  1
  O  O350  1  0.37475500  0.11428727  0.37816716  1
  O  O351  1  0.38097175  0.11066121  0.86696948  1
  O  O352  1  0.37207232  0.58740410  0.41002386  1
  O  O353  1  0.36677285  0.62235375  0.87562607  1
  O  O354  1  0.85921036  0.12186605  0.38436819  1
  O  O355  1  0.88332245  0.12784440  0.86475386  1
  O  O356  1  0.86723189  0.62683526  0.36474309  1
  O  O357  1  0.86178869  0.62884998  0.86455619  1
  O  O358  1  0.13399618  0.38408175  0.11370007  1
  O  O359  1  0.13302996  0.38482452  0.63066443  1
  O  O360  1  0.12498221  0.88363205  0.13210333  1
  O  O361  1  0.12586514  0.88286878  0.63009161  1
  O  O362  1  0.63503134  0.38394405  0.12289890  1
  O  O363  1  0.62968249  0.38300075  0.62751685  1
  O  O364  1  0.62045305  0.88417562  0.13059447  1
  O  O365  1  0.64204874  0.88630597  0.61360772  1
  O  O366  1  0.10896578  0.24143184  0.26457450  1
  O  O367  1  0.11727266  0.26059600  0.75080514  1
  O  O368  1  0.12894427  0.74243932  0.24746439  1
  O  O369  1  0.11452148  0.75436457  0.75511190  1
  O  O370  1  0.61145749  0.26437657  0.23824300  1
  O  O371  1  0.62418850  0.25062499  0.76975212  1
  O  O372  1  0.61963043  0.75318397  0.26009818  1
  O  O373  1  0.62697475  0.74708520  0.76311780  1
  O  O374  1  0.36830517  0.24972331  0.22865272  1
  O  O375  1  0.38367000  0.22846937  0.76363913  1
  O  O376  1  0.38655420  0.74574743  0.24776226  1
  O  O377  1  0.37313643  0.74770271  0.74792075  1
  O  O378  1  0.88376911  0.24837237  0.24078173  1
  O  O379  1  0.88433406  0.23983531  0.74801669  1
  O  O380  1  0.87885171  0.74671517  0.23942806  1
  O  O381  1  0.87960151  0.74765333  0.74427190  1
  O  O382  1  0.37249421  0.53245826  0.47810399  1
  O  O383  1  0.38407731  0.49144639  0.99896437  1
  O  O384  1  0.37747129  0.99735748  0.49959672  1
  O  O385  1  0.38072707  1.00968590  0.98687386  1
  O  O386  1  0.88148257  0.49118839  0.50173352  1
  O  O387  1  0.87212466  0.49889973  1.00061224  1
  O  O388  1  0.88557475  0.99139160  0.50330152  1
  O  O389  1  0.88610709  0.98537937  1.00423059  1
  O  O390  1  0.10842497  -0.01217380  0.01187610  1
  O  O391  1  0.11448320  0.00907075  0.50888342  1
  O  O392  1  0.11883492  0.50515734  0.00665591  1
  O  O393  1  0.11703005  0.50567199  0.50539510  1
  O  O394  1  0.62513446  -0.00743920  0.01024975  1
  O  O395  1  0.61625310  0.00569953  0.50944255  1
  O  O396  1  0.62021050  0.50475721  0.00582441  1
  O  O397  1  0.62712208  0.51397221  0.51285548  1
  O  O398  1  0.36887245  0.36315735  0.11910692  1
  O  O399  1  0.36234943  0.38420543  0.63004412  1
  O  O400  1  0.36767997  0.87638414  0.12639339  1
  O  O401  1  0.36027284  0.87416323  0.61764396  1
  O  O402  1  0.86437578  0.35841294  0.12426295  1
  O  O403  1  0.86659947  0.37421931  0.61723369  1
  O  O404  1  0.87394731  0.86279477  0.12204512  1
  O  O405  1  0.86999364  0.86793908  0.61508370  1
  O  O406  1  0.11759856  0.13587361  0.38598897  1
  O  O407  1  0.12324137  0.14664437  0.86339125  1
  O  O408  1  0.12841150  0.61765233  0.38868107  1
  O  O409  1  0.12988319  0.63138637  0.87794853  1
  O  O410  1  0.62884580  0.11803457  0.39098291  1
  O  O411  1  0.61467622  0.12817215  0.87517704  1
  O  O412  1  0.62999794  0.62887765  0.38153077  1
  O  O413  1  0.63702215  0.62603709  0.88196368  1
