# generated using pymatgen
data_V79Zn79O256
_symmetry_space_group_name_H-M   'P 1'
_cell_length_a   16.91327742
_cell_length_b   16.90715425
_cell_length_c   16.97383449
_cell_angle_alpha   89.96522267
_cell_angle_beta   90.12269417
_cell_angle_gamma   89.90479260
_symmetry_Int_Tables_number   1
_chemical_formula_structural   V79Zn79O256
_chemical_formula_sum   'V79 Zn79 O256'
_cell_volume   4853.74073041
_cell_formula_units_Z   1
loop_
 _symmetry_equiv_pos_site_id
 _symmetry_equiv_pos_as_xyz
  1  'x, y, z'
loop_
 _atom_site_type_symbol
 _atom_site_label
 _atom_site_symmetry_multiplicity
 _atom_site_fract_x
 _atom_site_fract_y
 _atom_site_fract_z
 _atom_site_occupancy
  V  V0  1  0.87341182  0.60756098  0.25273996  1
  V  V1  1  0.35284810  0.75256523  0.62582742  1
  V  V2  1  0.00091252  0.88631247  0.88428037  1
  V  V3  1  0.62404452  0.12333619  0.49781378  1
  V  V4  1  0.11771542  0.74600800  0.87638653  1
  V  V5  1  0.75104260  0.61224811  0.37075712  1
  V  V6  1  -0.00087905  0.75012135  0.25767149  1
  V  V7  1  0.52040240  0.86565702  0.87541353  1
  V  V8  1  0.13255070  0.63508766  0.49137292  1
  V  V9  1  0.00206887  0.13036752  0.12678781  1
  V  V10  1  0.36819577  0.36255398  0.49413101  1
  V  V11  1  0.49386134  0.38060932  0.87095118  1
  V  V12  1  0.13129404  0.25270480  0.87527589  1
  V  V13  1  0.00342824  0.24893469  0.75019352  1
  V  V14  1  0.37346553  0.12028806  0.74203364  1
  V  V15  1  0.75867191  0.76099875  0.49614535  1
  V  V16  1  0.74816528  0.24631807  0.49630873  1
  V  V17  1  0.37816726  0.12155667  0.23748716  1
  V  V18  1  0.74629554  0.03310500  0.25452340  1
  V  V19  1  0.49228776  0.24978321  0.23782680  1
  V  V20  1  0.11637193  -0.01415478  0.11698562  1
  V  V21  1  -0.01124738  0.74435564  0.74690465  1
  V  V22  1  0.73445098  0.47159685  0.24530935  1
  V  V23  1  0.49861910  0.50194893  -0.00671411  1
  V  V24  1  0.25352324  0.12732529  0.87947296  1
  V  V25  1  0.87358188  0.11904852  0.75112248  1
  V  V26  1  0.63803668  0.63500950  -0.00452119  1
  V  V27  1  0.50140125  0.87529396  0.37922310  1
  V  V28  1  0.62187617  0.62225211  0.49990786  1
  V  V29  1  0.00763732  0.37549776  0.87301670  1
  V  V30  1  0.25207290  0.49946552  0.75129527  1
  V  V31  1  0.61265280  0.25857080  0.37669229  1
  V  V32  1  0.86282838  0.36694415  -0.00027920  1
  V  V33  1  0.48716309  0.50427731  0.49801547  1
  V  V34  1  0.61843434  0.01065085  0.12454524  1
  V  V35  1  0.62940540  0.87973078  0.25103758  1
  V  V36  1  0.62601955  0.74528827  0.37483124  1
  V  V37  1  -0.00084863  0.50409370  0.49999643  1
  V  V38  1  0.50266899  0.25220565  0.74256630  1
  V  V39  1  0.11849504  0.50578114  0.63258390  1
  V  V40  1  0.37690484  0.62645049  0.74570431  1
  V  V41  1  -0.01084928  -0.00586497  0.47666494  1
  V  V42  1  -0.00039047  0.61949788  0.12591130  1
  V  V43  1  0.24753304  0.36757863  0.62881015  1
  V  V44  1  0.25307154  0.75999393  0.00460883  1
  V  V45  1  0.10783355  0.00062058  0.62420891  1
  V  V46  1  0.12227839  0.87433114  0.74380098  1
  V  V47  1  0.25306790  0.62319366  0.87392523  1
  V  V48  1  0.63103297  0.25266950  0.87660577  1
  V  V49  1  0.88044747  0.88482774  0.01172687  1
  V  V50  1  0.86362684  0.50399273  0.87126750  1
  V  V51  1  0.12070388  0.13493282  0.50811510  1
  V  V52  1  0.75335140  0.87104246  0.12505012  1
  V  V53  1  0.51503291  0.75267599  0.74130382  1
  V  V54  1  0.75095989  0.11792697  0.87323379  1
  V  V55  1  0.24639451  -0.00452352  0.24529030  1
  V  V56  1  0.87682540  0.37730224  0.49762771  1
  V  V57  1  0.74940495  0.38242878  0.63090615  1
  V  V58  1  0.37388189  0.35809821  0.00394627  1
  V  V59  1  0.00189740  0.49935182  0.00084016  1
  V  V60  1  0.49469389  -0.00492875  0.00129331  1
  V  V61  1  0.50641776  0.61653961  0.12145640  1
  V  V62  1  0.74645762  0.90123108  0.65315523  1
  V  V63  1  0.13345275  0.49055670  0.13349022  1
  V  V64  1  0.87911395  0.24814004  0.62851312  1
  V  V65  1  0.55891400  0.06527846  0.67505936  1
  V  V66  1  0.50556523  0.00039213  0.50310473  1
  V  V67  1  0.62429473  0.50208393  0.62719875  1
  V  V68  1  0.36051181  0.87357193  0.50407148  1
  V  V69  1  0.12253162  0.86686625  0.26710813  1
  V  V70  1  0.12200026  0.12299158  -0.00327530  1
  V  V71  1  0.50245092  0.74769347  0.24282829  1
  V  V72  1  0.00346253  0.37108210  0.36966494  1
  V  V73  1  0.37043279  -0.01489755  0.87700540  1
  V  V74  1  0.62674509  0.12804528  -0.00077160  1
  V  V75  1  0.86784452  0.24687300  0.12189526  1
  V  V76  1  0.12328498  0.25254748  0.35623832  1
  V  V77  1  0.24688944  -0.00634593  0.74072482  1
  V  V78  1  0.24904207  0.12891864  0.37718816  1
  Zn  Zn79  1  0.12969035  0.62158857  0.00364016  1
  Zn  Zn80  1  0.72457816  0.66627242  0.85184461  1
  Zn  Zn81  1  0.86512463  0.61140400  0.73174608  1
  Zn  Zn82  1  0.38207875  0.76266440  0.10957616  1
  Zn  Zn83  1  0.25253672  0.37018402  0.12356529  1
  Zn  Zn84  1  0.37110281  -0.00176231  0.37747272  1
  Zn  Zn85  1  0.24541874  0.50433858  0.28274893  1
  Zn  Zn86  1  0.62973784  0.38531196  0.75507934  1
  Zn  Zn87  1  0.87795243  0.00497368  0.88149022  1
  Zn  Zn88  1  0.87648886  0.75121542  0.61516007  1
  Zn  Zn89  1  0.89428590  0.13228070  0.27518647  1
  Zn  Zn90  1  0.37384277  0.24484427  0.62358575  1
  Zn  Zn91  1  0.36783174  0.61487427  0.23937161  1
  Zn  Zn92  1  0.86435093  0.73481006  0.12241948  1
  Zn  Zn93  1  0.48554792  0.37705145  0.36981616  1
  Zn  Zn94  1  0.18793408  0.18493449  0.17991518  1
  Zn  Zn95  1  0.18553462  0.18319488  0.69185374  1
  Zn  Zn96  1  0.18719287  0.68099443  0.19020982  1
  Zn  Zn97  1  0.17889685  0.68527389  0.68595942  1
  Zn  Zn98  1  0.67381166  0.21995983  0.17564698  1
  Zn  Zn99  1  0.69463595  0.19500251  0.68975301  1
  Zn  Zn100  1  0.68326058  0.67894462  0.18743203  1
  Zn  Zn101  1  0.69442597  0.68607286  0.67777191  1
  Zn  Zn102  1  0.29207238  0.30291884  0.27629824  1
  Zn  Zn103  1  0.31721223  0.31191640  0.81054697  1
  Zn  Zn104  1  0.32936167  0.82068515  0.27855547  1
  Zn  Zn105  1  0.30740878  0.80680096  0.81251775  1
  Zn  Zn106  1  0.82201080  0.28791542  0.32031104  1
  Zn  Zn107  1  0.81448406  0.31375415  0.81509662  1
  Zn  Zn108  1  0.81665828  0.80017185  0.31467145  1
  Zn  Zn109  1  0.80645971  0.82328854  0.81632226  1
  Zn  Zn110  1  0.18489032  0.43556729  0.44439488  1
  Zn  Zn111  1  0.19236194  0.43769289  0.94072639  1
  Zn  Zn112  1  0.17779755  0.94339779  0.43639777  1
  Zn  Zn113  1  0.18707017  0.93791727  0.93371636  1
  Zn  Zn114  1  0.68495331  0.43550071  0.43777711  1
  Zn  Zn115  1  0.68089217  0.44239243  0.94311983  1
  Zn  Zn116  1  0.69280361  0.94555612  0.43367679  1
  Zn  Zn117  1  0.69202693  0.93708106  0.94117757  1
  Zn  Zn118  1  0.30791237  0.05620786  0.06120209  1
  Zn  Zn119  1  0.30618160  0.05693347  0.55884916  1
  Zn  Zn120  1  0.32011018  0.56695668  0.05951443  1
  Zn  Zn121  1  0.30588489  0.56362793  0.56291989  1
  Zn  Zn122  1  0.80865440  0.06296839  0.06733701  1
  Zn  Zn123  1  0.81486990  0.06402097  0.56202893  1
  Zn  Zn124  1  0.80773852  0.54651806  0.06870548  1
  Zn  Zn125  1  0.81189774  0.56870239  0.56159402  1
  Zn  Zn126  1  0.40364787  0.42996750  0.20414322  1
  Zn  Zn127  1  0.43760413  0.43916864  0.68000525  1
  Zn  Zn128  1  0.43576005  0.93629529  0.18489509  1
  Zn  Zn129  1  0.43409600  0.92472684  0.69161473  1
  Zn  Zn130  1  0.93415753  0.43006521  0.18522218  1
  Zn  Zn131  1  0.93729073  0.43375282  0.68948597  1
  Zn  Zn132  1  0.91357625  0.93115974  0.25082592  1
  Zn  Zn133  1  0.92939049  0.92922198  0.68480963  1
  Zn  Zn134  1  0.06915573  0.06349121  0.30909107  1
  Zn  Zn135  1  0.06249193  0.06690962  0.80903281  1
  Zn  Zn136  1  0.06714309  0.55920476  0.31525895  1
  Zn  Zn137  1  0.05843678  0.56279736  0.81307987  1
  Zn  Zn138  1  0.56286444  0.06655375  0.31723033  1
  Zn  Zn139  1  0.55779054  0.06093381  0.83638760  1
  Zn  Zn140  1  0.53678770  0.53242502  0.28998377  1
  Zn  Zn141  1  0.56167022  0.56834802  0.81194550  1
  Zn  Zn142  1  0.43331079  0.18221805  0.43986634  1
  Zn  Zn143  1  0.44175113  0.18476881  0.93194090  1
  Zn  Zn144  1  0.43831858  0.69518616  0.44401513  1
  Zn  Zn145  1  0.43787581  0.68865154  0.93514765  1
  Zn  Zn146  1  0.94016107  0.18549602  0.44190195  1
  Zn  Zn147  1  0.94165955  0.18625078  0.93663761  1
  Zn  Zn148  1  0.93743761  0.68287672  0.43476324  1
  Zn  Zn149  1  0.88361397  0.70812699  0.92891463  1
  Zn  Zn150  1  0.06552737  0.31123771  0.05666632  1
  Zn  Zn151  1  0.06401248  0.31762845  0.56592791  1
  Zn  Zn152  1  0.05850969  0.80312618  0.06266981  1
  Zn  Zn153  1  0.05533441  0.81680038  0.55838428  1
  Zn  Zn154  1  0.56090968  0.31781169  0.06276277  1
  Zn  Zn155  1  0.55979532  0.31893639  0.56136522  1
  Zn  Zn156  1  0.57191837  0.81309109  0.05885359  1
  Zn  Zn157  1  0.57214881  0.81719382  0.56801998  1
  O  O158  1  0.11954455  0.12102653  0.11527804  1
  O  O159  1  0.12986226  0.11700596  0.61398411  1
  O  O160  1  0.11376754  0.60974869  0.12386667  1
  O  O161  1  0.12138795  0.60982107  0.61969836  1
  O  O162  1  0.62285572  0.11764718  0.11344385  1
  O  O163  1  0.62070212  0.12824786  0.62062993  1
  O  O164  1  0.61534827  0.62984716  0.10885007  1
  O  O165  1  0.62954825  0.61806088  0.60695583  1
  O  O166  1  0.36546143  0.36731607  0.39468153  1
  O  O167  1  0.38731177  0.36911783  0.88352493  1
  O  O168  1  0.38719349  0.87156044  0.38527194  1
  O  O169  1  0.37170052  0.88365038  0.87084024  1
  O  O170  1  0.89078499  0.36248045  0.39132101  1
  O  O171  1  0.88428602  0.38000118  0.88453459  1
  O  O172  1  0.87621903  0.88525210  0.34447390  1
  O  O173  1  0.88985948  0.88178239  0.88843696  1
  O  O174  1  0.24206834  0.00947367  0.36200914  1
  O  O175  1  0.25400437  0.00689224  0.86583024  1
  O  O176  1  0.25230071  0.50371067  0.39233524  1
  O  O177  1  0.24091256  0.51040300  0.86175995  1
  O  O178  1  0.73433720  0.01224885  0.35262334  1
  O  O179  1  0.75216864  0.01355920  0.87746902  1
  O  O180  1  0.74419080  0.50745891  0.36747523  1
  O  O181  1  0.76441609  0.49201913  0.87760847  1
  O  O182  1  0.23367211  0.50299551  0.10975099  1
  O  O183  1  0.23875396  0.49507114  0.63453059  1
  O  O184  1  0.23539221  1.00553627  0.13849913  1
  O  O185  1  0.23864472  1.00006793  0.63688385  1
  O  O186  1  0.75256159  0.48558140  0.14651750  1
  O  O187  1  0.74001464  0.49131402  0.61369137  1
  O  O188  1  0.73574147  0.99802021  0.13747169  1
  O  O189  1  0.75317692  1.00001834  0.63017189  1
  O  O190  1  -0.00685471  0.38142667  0.27202518  1
  O  O191  1  -0.00419559  0.36457795  0.76483103  1
  O  O192  1  0.00802438  0.85872408  0.24215572  1
  O  O193  1  0.00568050  0.87028381  0.76324126  1
  O  O194  1  0.48085925  0.35237893  0.25549639  1
  O  O195  1  0.49864409  0.36949723  0.75536446  1
  O  O196  1  0.51162899  0.87022803  0.26009715  1
  O  O197  1  0.50012260  0.86392980  0.76401772  1
  O  O198  1  0.48404118  0.12418158  0.25514632  1
  O  O199  1  0.49650635  0.12393958  0.74400995  1
  O  O200  1  0.52544475  0.63640619  0.22842898  1
  O  O201  1  0.48741225  0.64374085  0.75860639  1
  O  O202  1  1.00272321  0.11993065  0.23081996  1
  O  O203  1  0.98947625  0.14050479  0.75906755  1
  O  O204  1  0.99401296  0.62334707  0.24570574  1
  O  O205  1  0.99548873  0.64135115  0.75638094  1
  O  O206  1  0.38385582  0.25753285  -0.00336067  1
  O  O207  1  0.37574310  0.25767565  0.50760665  1
  O  O208  1  0.35876399  0.74999378  -0.00514673  1
  O  O209  1  0.37896330  0.76344556  0.51561479  1
  O  O210  1  0.88270137  0.26227850  -0.00049051  1
  O  O211  1  0.86946673  0.25710669  0.51293091  1
  O  O212  1  0.89252489  0.77542461  0.01997615  1
  O  O213  1  0.86188314  0.74736200  0.49063023  1
  O  O214  1  0.12302957  0.23642848  0.50559656  1
  O  O215  1  0.12653787  0.23878738  0.98460367  1
  O  O216  1  0.10800826  0.73216708  0.50870704  1
  O  O217  1  0.12915011  0.74293701  0.98958336  1
  O  O218  1  0.62649311  0.24408279  0.49948102  1
  O  O219  1  0.60774692  0.23693739  0.98517161  1
  O  O220  1  0.62909932  0.74292873  0.48958153  1
  O  O221  1  0.62916694  0.73636452  0.99751981  1
  O  O222  1  0.49735562  0.24445177  0.14051504  1
  O  O223  1  0.49859272  0.25572128  0.63882417  1
  O  O224  1  0.50413538  0.75257288  0.13143274  1
  O  O225  1  0.49637179  0.76253715  0.63972434  1
  O  O226  1  1.00317164  0.23421818  0.11559007  1
  O  O227  1  0.99055431  0.26234745  0.63772158  1
  O  O228  1  1.00430972  0.73012821  0.13433679  1
  O  O229  1  0.99482875  0.76415527  0.64459957  1
  O  O230  1  0.01497625  0.26050954  0.38368527  1
  O  O231  1  0.00993044  0.25705437  0.87042616  1
  O  O232  1  -0.00116658  0.73960539  0.35577107  1
  O  O233  1  0.00650091  0.76110473  0.86879285  1
  O  O234  1  0.50524182  0.25192950  0.38467848  1
  O  O235  1  0.50837304  0.25546563  0.86093361  1
  O  O236  1  0.51072427  0.75614953  0.37225394  1
  O  O237  1  0.49805486  0.76262962  0.86809234  1
  O  O238  1  0.23344146  0.11343967  0.48785929  1
  O  O239  1  0.24498589  0.11967942  0.98544302  1
  O  O240  1  0.23200848  0.62919919  0.50968660  1
  O  O241  1  0.25021266  0.62912359  0.98511292  1
  O  O242  1  0.73775766  0.13729685  0.51028906  1
  O  O243  1  0.73516249  0.12010037  0.99103563  1
  O  O244  1  0.74090266  0.62909190  0.48621689  1
  O  O245  1  0.73790978  0.61521053  1.00844733  1
  O  O246  1  0.26984874  0.37683210  -0.00145897  1
  O  O247  1  0.25976670  0.37893713  0.51809340  1
  O  O248  1  0.24204031  0.85931341  -0.00539505  1
  O  O249  1  0.26304373  0.88204081  0.48942717  1
  O  O250  1  0.76412735  0.37599046  -0.00430557  1
  O  O251  1  0.75887104  0.36914717  0.50606337  1
  O  O252  1  0.75832283  0.88266979  0.01940857  1
  O  O253  1  0.74858107  0.86019088  0.48270988  1
  O  O254  1  0.12766219  0.49747746  0.23663090  1
  O  O255  1  0.13062928  0.50461176  0.73911864  1
  O  O256  1  0.12555522  0.98520114  0.24002089  1
  O  O257  1  0.12800225  0.99590834  0.74336968  1
  O  O258  1  0.63443567  0.48541583  0.25673818  1
  O  O259  1  0.61487400  0.50368252  0.73204421  1
  O  O260  1  0.62326580  0.99826422  0.24207950  1
  O  O261  1  0.61288493  1.01560074  0.74098099  1
  O  O262  1  0.36623539  0.00687017  0.25552458  1
  O  O263  1  0.36680144  0.00056726  0.75487988  1
  O  O264  1  0.42527136  0.52137916  0.26425448  1
  O  O265  1  0.36665785  0.51638414  0.73652276  1
  O  O266  1  0.85270187  0.02912560  0.24030158  1
  O  O267  1  0.88707980  0.01676665  0.75327161  1
  O  O268  1  0.86966676  0.50491504  0.25011563  1
  O  O269  1  0.88422889  0.49882447  0.76692601  1
  O  O270  1  0.11894352  0.36097588  0.38096984  1
  O  O271  1  0.12005758  0.36517808  0.88167837  1
  O  O272  1  0.11643042  0.87387613  0.36509737  1
  O  O273  1  0.11539500  0.86844846  0.86881055  1
  O  O274  1  0.61219413  0.36143495  0.38614596  1
  O  O275  1  0.61661347  0.36848673  0.87418579  1
  O  O276  1  0.61944198  0.86810965  0.36991373  1
  O  O277  1  0.61926996  0.87495825  0.87611411  1
  O  O278  1  0.36974050  0.11680986  0.13902160  1
  O  O279  1  0.36432851  0.12221273  0.63783907  1
  O  O280  1  0.39546362  0.63749625  0.11972596  1
  O  O281  1  0.36794262  0.64358903  0.63082255  1
  O  O282  1  0.89395133  0.13306271  0.10703618  1
  O  O283  1  0.86800087  0.14223204  0.63582096  1
  O  O284  1  0.88212246  0.61646210  0.13301740  1
  O  O285  1  0.87622047  0.63552955  0.62249709  1
  O  O286  1  0.25780158  0.26666094  0.16793023  1
  O  O287  1  0.24841523  0.26445481  0.63920359  1
  O  O288  1  0.24254885  0.73982834  0.10423278  1
  O  O289  1  0.25409174  0.75566278  0.62993335  1
  O  O290  1  0.77131577  0.23173073  0.11053713  1
  O  O291  1  0.75645927  0.26180079  0.61623930  1
  O  O292  1  0.74807492  0.76720629  0.13605752  1
  O  O293  1  0.74700519  0.75047023  0.59861589  1
  O  O294  1  0.23533145  0.24147218  0.36354144  1
  O  O295  1  0.24389158  0.23767695  0.86189198  1
  O  O296  1  0.28268063  0.72611166  0.37578542  1
  O  O297  1  0.23718446  0.74284197  0.87969652  1
  O  O298  1  0.72667919  0.25868450  0.39158915  1
  O  O299  1  0.73716647  0.24537739  0.87237538  1
  O  O300  1  0.74147232  0.73864533  0.37683920  1
  O  O301  1  0.78215834  0.74962613  0.89497009  1
  O  O302  1  0.01607350  0.12135180  0.00066373  1
  O  O303  1  0.01635731  0.11695694  0.49447351  1
  O  O304  1  -0.00427242  0.60914448  0.01304861  1
  O  O305  1  0.00067580  0.60666579  0.49559187  1
  O  O306  1  0.51223396  0.10430934  -0.02069711  1
  O  O307  1  0.50337675  0.10915845  0.50338922  1
  O  O308  1  0.50737042  0.62377592  0.00352160  1
  O  O309  1  0.50562339  0.61481918  0.49079621  1
  O  O310  1  0.48035794  0.38304906  0.50482854  1
  O  O311  1  0.49605405  0.38052983  0.98999403  1
  O  O312  1  0.50140576  0.88205790  0.49500888  1
  O  O313  1  0.50614533  0.88169341  0.98678992  1
  O  O314  1  0.99468125  0.38094259  0.49752403  1
  O  O315  1  0.99656897  0.38150555  0.98939479  1
  O  O316  1  0.99916483  0.89539525  0.49912543  1
  O  O317  1  1.00253425  0.87749679  0.98930844  1
  O  O318  1  0.50714679  0.48944395  0.39686436  1
  O  O319  1  0.50400915  0.48838294  0.87573547  1
  O  O320  1  0.50027851  0.98968402  0.38466849  1
  O  O321  1  0.49063700  0.98108031  0.87885238  1
  O  O322  1  1.01175541  0.48343963  0.39250991  1
  O  O323  1  0.99867567  0.49140423  0.88298548  1
  O  O324  1  0.99921779  1.00443259  0.37554754  1
  O  O325  1  1.00524755  0.98869544  0.87273808  1
  O  O326  1  0.01724331  0.01241248  0.12023594  1
  O  O327  1  0.00673222  0.00015164  0.62799036  1
  O  O328  1  0.00793534  0.49884400  0.12060400  1
  O  O329  1  0.01242159  0.48717457  0.61826458  1
  O  O330  1  0.50659008  -0.00999148  0.11367483  1
  O  O331  1  0.50105150  -0.00483411  0.62226523  1
  O  O332  1  0.50096500  0.51647235  0.11489067  1
  O  O333  1  0.51110648  0.49574279  0.60866657  1
  O  O334  1  0.29036974  0.40952325  0.23469284  1
  O  O335  1  0.26107780  0.38799764  0.74109647  1
  O  O336  1  0.23112781  0.88066106  0.26095099  1
  O  O337  1  0.23379872  0.88340493  0.76033001  1
  O  O338  1  0.76082609  0.37682440  0.26951946  1
  O  O339  1  0.74937182  0.37046323  0.73555864  1
  O  O340  1  0.73636077  0.88175076  0.24436170  1
  O  O341  1  0.74524445  0.89139708  0.75447147  1
  O  O342  1  0.25713152  0.11594590  0.25806901  1
  O  O343  1  0.25527309  0.11319458  0.75813547  1
  O  O344  1  0.25636376  0.61168937  0.24237161  1
  O  O345  1  0.25453124  0.62049821  0.75378569  1
  O  O346  1  0.72800359  0.13043974  0.24144983  1
  O  O347  1  0.76192770  0.13399652  0.76109995  1
  O  O348  1  0.75509537  0.61735195  0.25444510  1
  O  O349  1  0.75458774  0.63054206  0.75183047  1
  O  O350  1  0.36091165  0.11809704  0.37705630  1
  O  O351  1  0.37113130  0.11327208  0.86224709  1
  O  O352  1  0.32904450  0.66786628  0.38792772  1
  O  O353  1  0.36206715  0.63644388  0.85941384  1
  O  O354  1  0.85993196  0.18260165  0.36614631  1
  O  O355  1  0.86793172  0.12639265  0.87124718  1
  O  O356  1  0.86210883  0.62684404  0.36386477  1
  O  O357  1  0.87982008  0.60401114  0.88446502  1
  O  O358  1  0.12686059  0.38691532  0.11673649  1
  O  O359  1  0.14023558  0.38602480  0.62122490  1
  O  O360  1  0.11739300  0.88429725  0.12353250  1
  O  O361  1  0.11777920  0.88353486  0.63761556  1
  O  O362  1  0.64121784  0.32168587  0.13708943  1
  O  O363  1  0.63340850  0.38449392  0.62387383  1
  O  O364  1  0.63330972  0.88611308  0.13131339  1
  O  O365  1  0.65239343  0.87498132  0.62034421  1
  O  O366  1  0.11431043  0.24489244  0.25967701  1
  O  O367  1  0.11521715  0.24151330  0.76247842  1
  O  O368  1  0.11651620  0.75910741  0.24567718  1
  O  O369  1  0.11611319  0.75631988  0.75667631  1
  O  O370  1  0.60215906  0.23793951  0.27146452  1
  O  O371  1  0.61771783  0.25290866  0.75759120  1
  O  O372  1  0.62213317  0.75907744  0.25782913  1
  O  O373  1  0.61335546  0.74188917  0.74487180  1
  O  O374  1  0.38455868  0.22833324  0.26208530  1
  O  O375  1  0.38524354  0.23569121  0.75097741  1
  O  O376  1  0.40164446  0.72837650  0.26455718  1
  O  O377  1  0.37472469  0.74964333  0.73634325  1
  O  O378  1  0.87906778  0.24803779  0.22317683  1
  O  O379  1  0.88262647  0.24656087  0.74618147  1
  O  O380  1  0.88721623  0.73525030  0.24127470  1
  O  O381  1  0.88820138  0.75581552  0.75910989  1
  O  O382  1  0.38420251  0.49958445  0.50776330  1
  O  O383  1  0.39260571  0.49880515  0.99761510  1
  O  O384  1  0.38363490  0.98645029  0.50196925  1
  O  O385  1  0.38245834  1.00375568  0.98983648  1
  O  O386  1  0.88888090  0.48967630  0.50861009  1
  O  O387  1  0.88247867  0.48478029  0.99493779  1
  O  O388  1  0.89313508  1.01939587  0.49668908  1
  O  O389  1  0.87438356  0.99055298  1.00329863  1
  O  O390  1  0.13622919  0.00667709  0.01180836  1
  O  O391  1  0.11204704  0.00613151  0.50725944  1
  O  O392  1  0.11453920  0.50113180  0.00403718  1
  O  O393  1  0.11454306  0.50504175  0.51345257  1
  O  O394  1  0.61790243  0.00468545  0.00715334  1
  O  O395  1  0.61817353  0.00931934  0.49756624  1
  O  O396  1  0.60878016  0.50968216  -0.00145568  1
  O  O397  1  0.61810089  0.50670442  0.50533174  1
  O  O398  1  0.38626066  0.37691528  0.10329500  1
  O  O399  1  0.36210673  0.37299241  0.62025213  1
  O  O400  1  0.36301158  0.85432013  0.17142232  1
  O  O401  1  0.36968956  0.86830319  0.61434230  1
  O  O402  1  0.88357967  0.36036108  0.10883953  1
  O  O403  1  0.86831446  0.36933598  0.61925602  1
  O  O404  1  0.85824783  0.88588804  0.13352639  1
  O  O405  1  0.84956644  0.86664358  0.63264317  1
  O  O406  1  0.12811829  0.13749712  0.38111880  1
  O  O407  1  0.13418322  0.12847727  0.87906382  1
  O  O408  1  0.12250224  0.62167429  0.39115891  1
  O  O409  1  0.13186872  0.63313920  0.87276172  1
  O  O410  1  0.61675608  0.13696053  0.39278454  1
  O  O411  1  0.63390412  0.13225786  0.87810754  1
  O  O412  1  0.63050561  0.63362953  0.38004937  1
  O  O413  1  0.62752857  0.62063062  0.88829605  1
