# generated using pymatgen
data_V79Zn79O256
_symmetry_space_group_name_H-M   'P 1'
_cell_length_a   16.99176756
_cell_length_b   16.91870406
_cell_length_c   16.95373519
_cell_angle_alpha   90.10739585
_cell_angle_beta   89.67015692
_cell_angle_gamma   90.17158072
_symmetry_Int_Tables_number   1
_chemical_formula_structural   V79Zn79O256
_chemical_formula_sum   'V79 Zn79 O256'
_cell_volume   4873.72650732
_cell_formula_units_Z   1
loop_
 _symmetry_equiv_pos_site_id
 _symmetry_equiv_pos_as_xyz
  1  'x, y, z'
loop_
 _atom_site_type_symbol
 _atom_site_label
 _atom_site_symmetry_multiplicity
 _atom_site_fract_x
 _atom_site_fract_y
 _atom_site_fract_z
 _atom_site_occupancy
  V  V0  1  0.13030238  -0.00318044  0.12676301  1
  V  V1  1  0.74984131  0.25489891  0.49830868  1
  V  V2  1  0.76117656  0.63039237  0.35843690  1
  V  V3  1  0.76147470  0.12042976  0.88473627  1
  V  V4  1  0.24352802  0.74430902  0.49120568  1
  V  V5  1  0.87382172  0.75030546  0.62659938  1
  V  V6  1  0.12253273  0.62329894  0.00330239  1
  V  V7  1  0.25491533  0.12967300  0.37068577  1
  V  V8  1  0.63087456  0.49727343  0.64160782  1
  V  V9  1  0.49401880  0.61235406  0.11359708  1
  V  V10  1  0.37588266  -0.00559447  0.39988667  1
  V  V11  1  -0.00759643  0.74345705  0.24160455  1
  V  V12  1  0.74761729  0.11966264  0.37367481  1
  V  V13  1  0.62458338  0.24881003  0.36981807  1
  V  V14  1  0.12455572  0.25174939  0.86107537  1
  V  V15  1  0.87684813  0.23842690  0.63424799  1
  V  V16  1  0.38104127  0.63311875  0.26263304  1
  V  V17  1  0.86548233  0.37222689  0.00243095  1
  V  V18  1  0.27202447  0.36667698  0.61723279  1
  V  V19  1  -0.00352593  -0.00106785  -0.00374213  1
  V  V20  1  0.73547765  -0.00933815  0.24671030  1
  V  V21  1  0.85989704  0.25049044  0.11976174  1
  V  V22  1  0.38142311  0.75761405  0.11752631  1
  V  V23  1  0.50241220  0.25010744  0.25110558  1
  V  V24  1  0.75093203  0.00516172  0.74243131  1
  V  V25  1  0.12965148  0.12717252  0.50338400  1
  V  V26  1  0.74836634  0.74433333  0.49929694  1
  V  V27  1  0.24994157  0.37924783  0.12448945  1
  V  V28  1  0.37394862  0.38061490  -0.00490711  1
  V  V29  1  0.00024172  0.12711103  0.12485212  1
  V  V30  1  0.63295867  0.60655789  0.49386452  1
  V  V31  1  0.38288056  0.88159295  -0.00779318  1
  V  V32  1  0.61933219  0.61382997  -0.00404918  1
  V  V33  1  0.87621904  0.87334464  0.50499053  1
  V  V34  1  0.74715786  0.75833151  -0.01330983  1
  V  V35  1  0.70326136  0.88893571  0.10930961  1
  V  V36  1  0.87649261  0.87629272  0.00510943  1
  V  V37  1  0.87060001  0.61871060  0.75407829  1
  V  V38  1  0.39464601  -0.00084858  0.87198558  1
  V  V39  1  0.37147295  0.24522643  0.13990967  1
  V  V40  1  0.12492830  0.87573372  0.74825801  1
  V  V41  1  0.87898338  0.50963709  0.37059326  1
  V  V42  1  0.25024166  0.11445670  0.86967196  1
  V  V43  1  0.00767119  0.87042110  0.37419265  1
  V  V44  1  0.74738371  0.61333333  0.87110122  1
  V  V45  1  0.25333799  0.62327462  0.86323402  1
  V  V46  1  0.50009274  0.10614399  0.62138258  1
  V  V47  1  0.00589163  0.37121096  0.86852524  1
  V  V48  1  0.12279346  0.74708433  0.87456717  1
  V  V49  1  0.51019583  0.11503028  0.11469777  1
  V  V50  1  -0.00358861  0.37770778  0.38282581  1
  V  V51  1  0.13568754  0.86994028  0.25183288  1
  V  V52  1  0.24904234  0.75794880  -0.00206060  1
  V  V53  1  0.11372385  0.48947606  0.63364291  1
  V  V54  1  0.25618486  0.00651145  0.24861795  1
  V  V55  1  0.87375107  0.12110088  0.24825104  1
  V  V56  1  0.00184234  0.00528069  0.50502902  1
  V  V57  1  0.49801020  0.38303187  0.38606322  1
  V  V58  1  0.48663239  0.74141772  0.74753237  1
  V  V59  1  0.12570455  0.24841284  0.37883773  1
  V  V60  1  0.11932995  0.50398126  0.12488846  1
  V  V61  1  0.50848490  0.25405567  0.74104981  1
  V  V62  1  0.25466687  0.88034948  0.62357056  1
  V  V63  1  0.75029896  0.37602539  0.64681080  1
  V  V64  1  0.12156891  0.61833311  0.49100255  1
  V  V65  1  0.37810987  0.12482442  0.74595786  1
  V  V66  1  0.61618886  0.76434125  0.86551840  1
  V  V67  1  0.37500032  0.50009469  0.86536499  1
  V  V68  1  0.51210384  0.37720682  0.87600838  1
  V  V69  1  -0.00312008  0.74792172  0.75183943  1
  V  V70  1  0.87608926  -0.00490433  0.37190309  1
  V  V71  1  0.36513832  0.72510741  0.62944559  1
  V  V72  1  0.25149085  0.24953393  -0.00529382  1
  V  V73  1  0.62349853  0.11209359  0.50647772  1
  V  V74  1  0.12276557  0.00211815  0.62940370  1
  V  V75  1  0.62554416  0.23596532  0.88837754  1
  V  V76  1  0.12619349  0.12505686  -0.00073455  1
  V  V77  1  0.12361278  0.37342319  0.24805884  1
  V  V78  1  -0.00805422  0.87402872  0.87327938  1
  Zn  Zn79  1  0.24311405  0.48241847  0.75057276  1
  Zn  Zn80  1  0.57274527  0.83240766  0.27996945  1
  Zn  Zn81  1  0.23887253  0.52422435  0.27739113  1
  Zn  Zn82  1  -0.00317662  0.24865890  0.25048106  1
  Zn  Zn83  1  0.03755089  0.19218316  0.69288089  1
  Zn  Zn84  1  0.87694199  0.37782143  0.50543092  1
  Zn  Zn85  1  0.73127013  0.48162641  0.23783349  1
  Zn  Zn86  1  0.86481889  0.74336488  0.13377051  1
  Zn  Zn87  1  0.49080582  0.49773297  0.51458911  1
  Zn  Zn88  1  -0.00143214  0.49708834  0.00229293  1
  Zn  Zn89  1  0.61278053  0.88603709  0.73293478  1
  Zn  Zn90  1  0.36358292  0.48568707  0.39543088  1
  Zn  Zn91  1  0.73495285  0.88481368  0.62004889  1
  Zn  Zn92  1  0.87147859  0.48919195  0.87492633  1
  Zn  Zn93  1  -0.00563169  0.61490753  0.61355964  1
  Zn  Zn94  1  0.18571414  0.18923280  0.18815342  1
  Zn  Zn95  1  0.20142921  0.18819879  0.68633445  1
  Zn  Zn96  1  0.19705083  0.69135543  0.18633579  1
  Zn  Zn97  1  0.17976949  0.68273024  0.68002836  1
  Zn  Zn98  1  0.68320363  0.17977029  0.18494721  1
  Zn  Zn99  1  0.68701415  0.18525259  0.69181386  1
  Zn  Zn100  1  0.66891135  0.71169787  0.16432508  1
  Zn  Zn101  1  0.68570320  0.68489325  0.68521378  1
  Zn  Zn102  1  0.29942561  0.33519590  0.33042540  1
  Zn  Zn103  1  0.31648892  0.31005586  0.80438498  1
  Zn  Zn104  1  0.39112690  0.80755248  0.32489215  1
  Zn  Zn105  1  0.30858749  0.81550683  0.81144388  1
  Zn  Zn106  1  0.81077497  0.31054298  0.30524051  1
  Zn  Zn107  1  0.81232743  0.30143387  0.82081382  1
  Zn  Zn108  1  0.72594328  0.80285703  0.30631927  1
  Zn  Zn109  1  0.80891810  0.82374438  0.80545868  1
  Zn  Zn110  1  0.18213821  0.43675747  0.44752218  1
  Zn  Zn111  1  0.18747924  0.43864077  0.93500580  1
  Zn  Zn112  1  0.19733891  0.93537678  0.43772754  1
  Zn  Zn113  1  0.18371988  0.93571220  0.93676682  1
  Zn  Zn114  1  0.69734335  0.43016871  0.40774042  1
  Zn  Zn115  1  0.68818574  0.43115558  1.06238567  1
  Zn  Zn116  1  0.68289410  0.92980318  0.43659371  1
  Zn  Zn117  1  0.68215401  0.94608273  0.93253590  1
  Zn  Zn118  1  0.31594107  0.06291547  0.05970903  1
  Zn  Zn119  1  0.31983505  0.18642039  0.55395975  1
  Zn  Zn120  1  0.30679003  0.56455982  0.05610205  1
  Zn  Zn121  1  0.29906654  0.55349434  0.56370980  1
  Zn  Zn122  1  0.80770380  0.06056578  0.06267809  1
  Zn  Zn123  1  0.80895197  0.06245086  0.55851927  1
  Zn  Zn124  1  0.82168269  0.56137928  0.08181241  1
  Zn  Zn125  1  0.81612927  0.55611082  0.55925889  1
  Zn  Zn126  1  0.56115546  0.44095048  0.20149703  1
  Zn  Zn127  1  0.44211493  0.43673952  0.68838359  1
  Zn  Zn128  1  0.44068581  0.93656789  0.18847990  1
  Zn  Zn129  1  0.43829072  0.92993798  0.69201591  1
  Zn  Zn130  1  0.93578242  0.43592792  0.18939892  1
  Zn  Zn131  1  0.93408075  0.43079444  0.68866423  1
  Zn  Zn132  1  0.93909218  0.93086790  0.18840804  1
  Zn  Zn133  1  0.92668676  1.05200730  0.69706642  1
  Zn  Zn134  1  0.06406026  0.06107660  0.31316090  1
  Zn  Zn135  1  0.06570796  0.05993609  0.81681922  1
  Zn  Zn136  1  0.06122203  0.56109918  0.31151847  1
  Zn  Zn137  1  0.05983138  0.56025904  0.81561776  1
  Zn  Zn138  1  0.54968116  0.06663867  0.30878365  1
  Zn  Zn139  1  0.56970841  0.06441646  0.80725480  1
  Zn  Zn140  1  0.58943376  0.62078662  0.28493918  1
  Zn  Zn141  1  0.55902866  0.56330502  0.81273341  1
  Zn  Zn142  1  0.44292689  0.17659050  0.43312339  1
  Zn  Zn143  1  0.43916659  0.18830691  0.93439490  1
  Zn  Zn144  1  0.42390910  0.65660001  0.46101228  1
  Zn  Zn145  1  0.43630851  0.68685791  0.93418310  1
  Zn  Zn146  1  0.93709209  0.18852972  0.44047476  1
  Zn  Zn147  1  0.93901940  0.18830772  0.93494915  1
  Zn  Zn148  1  0.94219916  0.69145617  0.43362134  1
  Zn  Zn149  1  0.92003096  0.67021743  0.96674721  1
  Zn  Zn150  1  0.06054596  0.31377974  0.05591082  1
  Zn  Zn151  1  0.06432026  0.31490536  0.56131915  1
  Zn  Zn152  1  0.06420698  0.81243306  0.06424537  1
  Zn  Zn153  1  0.06235866  0.80909007  0.56261264  1
  Zn  Zn154  1  0.55427524  0.30924076  0.06039826  1
  Zn  Zn155  1  0.56843947  0.31465577  0.55861208  1
  Zn  Zn156  1  0.56042036  0.82367932  0.05094113  1
  Zn  Zn157  1  0.56069229  0.79125232  0.56992861  1
  O  O158  1  0.11685935  0.11968653  0.11930914  1
  O  O159  1  0.12681123  0.12097974  0.62076317  1
  O  O160  1  0.13863344  0.61433329  0.11584509  1
  O  O161  1  0.11556706  0.61240265  0.61931373  1
  O  O162  1  0.61021157  0.12874201  0.11671730  1
  O  O163  1  0.61473128  0.12859939  0.61480169  1
  O  O164  1  0.60855968  0.63598465  0.10337059  1
  O  O165  1  0.64527532  0.60235443  0.61188927  1
  O  O166  1  0.39479355  0.37048742  0.37648970  1
  O  O167  1  0.37421907  0.38086250  0.87977211  1
  O  O168  1  0.35540664  0.89422489  0.38654863  1
  O  O169  1  0.36781079  0.89231825  0.87589658  1
  O  O170  1  0.89259612  0.37014196  0.37232591  1
  O  O171  1  0.88299859  0.36460804  0.88843798  1
  O  O172  1  0.88688953  0.88619513  0.38763056  1
  O  O173  1  0.88800619  0.87495114  0.87987471  1
  O  O174  1  0.25387025  0.01081717  0.36800012  1
  O  O175  1  0.24540410  0.01296420  0.87535006  1
  O  O176  1  0.25743730  0.45528591  0.36428247  1
  O  O177  1  0.25507622  0.50496875  0.86856263  1
  O  O178  1  0.76157271  -0.00028418  0.36787731  1
  O  O179  1  0.74404310  0.01379399  0.86863244  1
  O  O180  1  0.76726324  0.52034591  0.37237492  1
  O  O181  1  0.75024392  0.51545197  0.87632354  1
  O  O182  1  0.24388925  0.48722222  0.12304802  1
  O  O183  1  0.23789255  0.48558757  0.63067262  1
  O  O184  1  0.23609218  1.01285264  0.13031358  1
  O  O185  1  0.23054347  0.98385104  0.62187916  1
  O  O186  1  0.75579034  0.49233353  0.12955763  1
  O  O187  1  0.75048693  0.48170386  0.62468848  1
  O  O188  1  0.74511891  0.98901143  0.12957822  1
  O  O189  1  0.74953109  1.00370162  0.63456241  1
  O  O190  1  0.01287569  0.37207381  0.25514933  1
  O  O191  1  -0.01260362  0.36968387  0.77042179  1
  O  O192  1  0.01069889  0.87028603  0.25710261  1
  O  O193  1  0.00829587  0.86225500  0.75967580  1
  O  O194  1  0.50635982  0.35704245  0.26474276  1
  O  O195  1  0.49201705  0.35953729  0.76286003  1
  O  O196  1  0.47034927  0.85862938  0.25934414  1
  O  O197  1  0.50189536  0.85214069  0.74353233  1
  O  O198  1  0.49983349  0.14125804  0.23309246  1
  O  O199  1  0.50000329  0.13063719  0.73597602  1
  O  O200  1  0.48679268  0.63716959  0.22194789  1
  O  O201  1  0.50218889  0.64076799  0.75112037  1
  O  O202  1  0.99285449  0.12149265  0.24021477  1
  O  O203  1  0.99208989  0.11750489  0.75880052  1
  O  O204  1  1.01293365  0.64622718  0.25917432  1
  O  O205  1  0.98808394  0.63825335  0.76038078  1
  O  O206  1  0.35997774  0.25687072  -0.00624102  1
  O  O207  1  0.38694085  0.24840749  0.49434321  1
  O  O208  1  0.36717187  0.76313573  -0.00822439  1
  O  O209  1  0.35739811  0.73483439  0.52107295  1
  O  O210  1  0.87907102  0.25478783  0.01340566  1
  O  O211  1  0.86438857  0.24861501  0.50826057  1
  O  O212  1  0.85733432  0.76644422  -0.01861221  1
  O  O213  1  0.87438072  0.75405407  0.50824968  1
  O  O214  1  0.11382462  0.23867931  0.49002816  1
  O  O215  1  0.13670212  0.24508303  0.99294397  1
  O  O216  1  0.13353702  0.73648119  0.50785311  1
  O  O217  1  0.13087209  0.74506582  0.99564656  1
  O  O218  1  0.63390090  0.23838042  0.49411757  1
  O  O219  1  0.62167168  0.25395237  0.98580550  1
  O  O220  1  0.64478281  0.73022327  0.51177379  1
  O  O221  1  0.62778896  0.75055604  0.98108453  1
  O  O222  1  0.48131607  0.24854179  0.12989602  1
  O  O223  1  0.50895946  0.25357349  0.63958002  1
  O  O224  1  0.48338769  0.74765561  0.10310749  1
  O  O225  1  0.47521810  0.74230319  0.63152047  1
  O  O226  1  0.99963173  0.23496120  0.12348985  1
  O  O227  1  0.98230484  0.25650875  0.61957533  1
  O  O228  1  1.00478166  0.75340764  0.13930942  1
  O  O229  1  0.98924100  0.74869838  0.63594234  1
  O  O230  1  0.00672455  0.25706316  0.37152074  1
  O  O231  1  0.01427359  0.25800132  0.88261070  1
  O  O232  1  -0.00151770  0.76592151  0.36528019  1
  O  O233  1  0.00528243  0.75808457  0.87027862  1
  O  O234  1  0.50953549  0.24127255  0.36582586  1
  O  O235  1  0.50938445  0.25409472  0.86874204  1
  O  O236  1  0.49098747  0.78113363  0.42165132  1
  O  O237  1  0.50852588  0.74661387  0.86415095  1
  O  O238  1  0.23466237  0.12803243  0.49014558  1
  O  O239  1  0.24643257  0.13208113  0.98948389  1
  O  O240  1  0.23498094  0.63477606  0.50704969  1
  O  O241  1  0.23979719  0.63262167  0.98663781  1
  O  O242  1  0.74013768  0.13165240  0.49553533  1
  O  O243  1  0.75020019  0.11773277  0.98562894  1
  O  O244  1  0.75428690  0.62996212  0.49481569  1
  O  O245  1  0.73522168  0.64052304  0.98427078  1
  O  O246  1  0.25151657  0.36671617  0.00416073  1
  O  O247  1  0.24083473  0.37262754  0.52009970  1
  O  O248  1  0.25452037  0.86440353  -0.00995853  1
  O  O249  1  0.23632380  0.85951146  0.51791417  1
  O  O250  1  0.76718376  0.37137625  -0.00156176  1
  O  O251  1  0.75133141  0.35927254  0.49260956  1
  O  O252  1  0.76247555  0.87716638  -0.00080892  1
  O  O253  1  0.76186618  0.86427201  0.49985625  1
  O  O254  1  0.12937063  0.49230108  0.24251667  1
  O  O255  1  0.12479099  0.50546460  0.73805969  1
  O  O256  1  0.12911650  0.99588401  0.24250504  1
  O  O257  1  0.11616890  0.98764270  0.74071984  1
  O  O258  1  0.62246683  0.51810801  0.25443694  1
  O  O259  1  0.63068156  0.50609252  0.73971274  1
  O  O260  1  0.63771983  1.00709939  0.25929642  1
  O  O261  1  0.63672632  0.99599011  0.75311427  1
  O  O262  1  0.35439219  -0.00173326  0.23927974  1
  O  O263  1  0.38432719  0.01005737  0.76301403  1
  O  O264  1  0.38313607  0.53622223  0.28810051  1
  O  O265  1  0.37455751  0.49558208  0.76297006  1
  O  O266  1  0.87078010  -0.00005768  0.25688751  1
  O  O267  1  0.85206498  -0.00760772  0.75446646  1
  O  O268  1  0.87572897  0.49105543  0.26778604  1
  O  O269  1  0.88030722  0.51499697  0.75517049  1
  O  O270  1  0.11395724  0.36791115  0.36924393  1
  O  O271  1  0.11548181  0.36688743  0.87613768  1
  O  O272  1  0.11855216  0.88628793  0.36246451  1
  O  O273  1  0.11846111  0.86776128  0.86697110  1
  O  O274  1  0.60961746  0.35294499  0.38636388  1
  O  O275  1  0.60931222  0.36723193  0.87595043  1
  O  O276  1  0.64430774  0.86128971  0.36165211  1
  O  O277  1  0.62178037  0.86455457  0.87008134  1
  O  O278  1  0.36782132  0.14383482  0.12322713  1
  O  O279  1  0.39249848  0.12653416  0.63270983  1
  O  O280  1  0.38539151  0.63400348  0.10684710  1
  O  O281  1  0.35695996  0.62813734  0.63955923  1
  O  O282  1  0.88040484  0.13254871  0.12601268  1
  O  O283  1  0.87474866  0.13386259  0.62191655  1
  O  O284  1  0.88345795  0.64834255  0.07656062  1
  O  O285  1  0.87677534  0.63030377  0.63470736  1
  O  O286  1  0.25393258  0.25433128  0.11574315  1
  O  O287  1  0.26190587  0.25708148  0.62357627  1
  O  O288  1  0.26380388  0.74171690  0.10271831  1
  O  O289  1  0.25686110  0.75817378  0.63031487  1
  O  O290  1  0.76188560  0.24484725  0.12713610  1
  O  O291  1  0.75488941  0.25794257  0.62000622  1
  O  O292  1  0.74269103  0.77357663  0.10181969  1
  O  O293  1  0.76430974  0.74649019  0.61882046  1
  O  O294  1  0.23358466  0.24604007  0.36897196  1
  O  O295  1  0.24296044  0.24323534  0.87830981  1
  O  O296  1  0.25289592  0.75423713  0.39640658  1
  O  O297  1  0.24322164  0.74369492  0.87885647  1
  O  O298  1  0.74468418  0.23740548  0.37979092  1
  O  O299  1  0.73268587  0.23420769  0.86761651  1
  O  O300  1  0.77202475  0.73658635  0.38802024  1
  O  O301  1  0.73493724  0.75292221  0.87402825  1
  O  O302  1  0.00516425  0.11704827  0.00428787  1
  O  O303  1  0.01106721  0.11265515  0.49063924  1
  O  O304  1  0.02039418  0.61942364  -0.01153555  1
  O  O305  1  0.01524836  0.63352259  0.49827881  1
  O  O306  1  0.48665286  0.13029770  0.01697251  1
  O  O307  1  0.51330608  0.12292240  0.51221889  1
  O  O308  1  0.51079837  0.62345998  -0.00316451  1
  O  O309  1  0.53097426  0.61886584  0.49263360  1
  O  O310  1  0.50396731  0.37962453  0.49268278  1
  O  O311  1  0.48485270  0.36467922  0.98233905  1
  O  O312  1  0.50374320  0.83590480  0.47295745  1
  O  O313  1  0.48036315  0.87474943  0.98561156  1
  O  O314  1  0.99970006  0.37287223  0.48483386  1
  O  O315  1  0.99242006  0.37478076  0.98978967  1
  O  O316  1  0.99831958  0.88251402  0.49362863  1
  O  O317  1  0.99689905  0.87871821  0.99261168  1
  O  O318  1  0.50648239  0.48164386  0.37816452  1
  O  O319  1  0.49372898  0.48394573  0.86727816  1
  O  O320  1  0.47355150  1.01339638  0.37077718  1
  O  O321  1  0.49200383  1.00543832  0.87697955  1
  O  O322  1  0.99328511  0.48633846  0.37038599  1
  O  O323  1  0.99737269  0.48365287  0.87854042  1
  O  O324  1  0.99354759  0.99349973  0.38115650  1
  O  O325  1  1.01116091  0.98805012  0.88962783  1
  O  O326  1  0.00693468  0.00915680  0.11782041  1
  O  O327  1  0.00778249  0.00221982  0.61363188  1
  O  O328  1  0.01584770  0.49383152  0.12512459  1
  O  O329  1  0.00692657  0.49699200  0.62957359  1
  O  O330  1  0.49197696  0.01619123  0.12919853  1
  O  O331  1  0.49947560  0.00834531  0.62932811  1
  O  O332  1  0.49606425  0.51481857  0.12092308  1
  O  O333  1  0.52619154  0.48683880  0.62505420  1
  O  O334  1  0.23532138  0.36519894  0.23493705  1
  O  O335  1  0.25559774  0.36774017  0.73010700  1
  O  O336  1  0.23408892  0.88956046  0.25096946  1
  O  O337  1  0.23290362  0.86789704  0.73924844  1
  O  O338  1  0.73498506  0.38848071  0.30131610  1
  O  O339  1  0.75409615  0.37148428  0.74497658  1
  O  O340  1  0.74955715  0.88213346  0.22352148  1
  O  O341  1  0.73996248  0.88599382  0.74305646  1
  O  O342  1  0.23879860  0.11867656  0.26044523  1
  O  O343  1  0.26639749  0.13006787  0.75910800  1
  O  O344  1  0.27223746  0.62650365  0.24208234  1
  O  O345  1  0.24357300  0.62901371  0.76322634  1
  O  O346  1  0.75673611  0.11306973  0.25258021  1
  O  O347  1  0.74330779  0.11351801  0.75905301  1
  O  O348  1  0.75988537  0.63601679  0.26079991  1
  O  O349  1  0.75758607  0.63295221  0.76327177  1
  O  O350  1  0.35698927  0.12014449  0.37673048  1
  O  O351  1  0.37006089  0.11214302  0.87174920  1
  O  O352  1  0.39582849  0.68356423  0.35130133  1
  O  O353  1  0.36476554  0.61146244  0.88481541  1
  O  O354  1  0.87088701  0.11357655  0.37049504  1
  O  O355  1  0.86031571  0.13598550  0.87388293  1
  O  O356  1  0.87777971  0.61580844  0.37468936  1
  O  O357  1  0.85917571  0.62656426  0.87328143  1
  O  O358  1  0.13024798  0.37917777  0.12873524  1
  O  O359  1  0.11992762  0.38665051  0.62647824  1
  O  O360  1  0.11800430  0.88873619  0.13658399  1
  O  O361  1  0.12361180  0.87973881  0.63328126  1
  O  O362  1  0.61357662  0.37677564  0.12400764  1
  O  O363  1  0.64389605  0.38140462  0.62396560  1
  O  O364  1  0.61831592  0.84901863  0.15476881  1
  O  O365  1  0.62356346  0.86567638  0.61965494  1
  O  O366  1  0.11909945  0.25623219  0.25787624  1
  O  O367  1  0.12441252  0.24054177  0.75790382  1
  O  O368  1  0.12882826  0.76739878  0.24248034  1
  O  O369  1  0.11406953  0.75344645  0.75326070  1
  O  O370  1  0.62027910  0.23961476  0.26186137  1
  O  O371  1  0.61121984  0.24414032  0.76116121  1
  O  O372  1  0.63012954  0.72999817  0.26626634  1
  O  O373  1  0.61778978  0.74655603  0.75794374  1
  O  O374  1  0.37562033  0.25662663  0.24009601  1
  O  O375  1  0.39495876  0.23195116  0.76339495  1
  O  O376  1  0.36450633  0.74783377  0.21766168  1
  O  O377  1  0.37914821  0.75034927  0.74582101  1
  O  O378  1  0.87658162  0.24323564  0.23622808  1
  O  O379  1  0.86761125  0.24795196  0.73264098  1
  O  O380  1  0.89142838  0.75180323  0.24592742  1
  O  O381  1  0.87877383  0.74572617  0.74461290  1
  O  O382  1  0.38702092  0.54546815  0.48885717  1
  O  O383  1  0.36589397  0.48591044  0.98955424  1
  O  O384  1  0.36930756  1.00860561  0.49546283  1
  O  O385  1  0.36717082  0.99038421  0.98623407  1
  O  O386  1  0.87167798  0.49100598  0.47920765  1
  O  O387  1  0.87869584  0.48226111  1.00065422  1
  O  O388  1  0.88226286  0.99487424  0.49386272  1
  O  O389  1  0.88955902  0.99269516  1.00791682  1
  O  O390  1  0.11787360  0.00355462  0.00822934  1
  O  O391  1  0.11938405  0.00631604  0.50705986  1
  O  O392  1  0.12798372  0.50621289  0.00858902  1
  O  O393  1  0.12714975  0.51089251  0.51635948  1
  O  O394  1  0.63562941  -0.07473852  0.03664988  1
  O  O395  1  0.63508451  0.01364689  0.49760881  1
  O  O396  1  0.63276152  0.51675489  -0.00332394  1
  O  O397  1  0.64114099  0.50361601  0.49446388  1
  O  O398  1  0.36159836  0.35874309  0.11005841  1
  O  O399  1  0.37010197  0.38914415  0.61383192  1
  O  O400  1  0.37563264  0.86728969  0.10304917  1
  O  O401  1  0.35479621  0.87855769  0.63121056  1
  O  O402  1  0.88271463  0.35878806  0.11726735  1
  O  O403  1  0.86219833  0.36521834  0.62290002  1
  O  O404  1  0.88365985  0.86550405  0.10901721  1
  O  O405  1  0.87641157  0.86518419  0.61016878  1
  O  O406  1  0.12982416  0.13064465  0.38142315  1
  O  O407  1  0.13292290  0.13233901  0.87975339  1
  O  O408  1  0.13115337  0.60637137  0.39110560  1
  O  O409  1  0.13328670  0.62876931  0.88100062  1
  O  O410  1  0.62727874  0.12875848  0.38738034  1
  O  O411  1  0.62064802  0.13345582  0.88317794  1
  O  O412  1  0.65300349  0.62342494  0.38707495  1
  O  O413  1  0.63152366  0.63079763  0.87885359  1
