# generated using pymatgen
data_V79Zn79O256
_symmetry_space_group_name_H-M   'P 1'
_cell_length_a   16.89708137
_cell_length_b   16.86404682
_cell_length_c   16.89281866
_cell_angle_alpha   89.87615200
_cell_angle_beta   90.08086393
_cell_angle_gamma   89.95620569
_symmetry_Int_Tables_number   1
_chemical_formula_structural   V79Zn79O256
_chemical_formula_sum   'V79 Zn79 O256'
_cell_volume   4813.64479315
_cell_formula_units_Z   1
loop_
 _symmetry_equiv_pos_site_id
 _symmetry_equiv_pos_as_xyz
  1  'x, y, z'
loop_
 _atom_site_type_symbol
 _atom_site_label
 _atom_site_symmetry_multiplicity
 _atom_site_fract_x
 _atom_site_fract_y
 _atom_site_fract_z
 _atom_site_occupancy
  V  V0  1  0.62224335  0.62508399  0.52188918  1
  V  V1  1  0.00287690  0.62593174  0.60131367  1
  V  V2  1  0.01555811  0.24313547  0.74753953  1
  V  V3  1  0.87797231  0.87940450  0.50034153  1
  V  V4  1  0.49502811  0.12800585  0.62535390  1
  V  V5  1  0.87074864  0.00402363  0.37558590  1
  V  V6  1  0.49757408  0.37507965  0.87195237  1
  V  V7  1  0.73779463  0.62294919  0.37071869  1
  V  V8  1  0.62547662  0.12145762  0.00970099  1
  V  V9  1  -0.00055405  0.37342384  0.85624703  1
  V  V10  1  0.49738030  0.25027436  0.74725995  1
  V  V11  1  0.25787229  0.36336547  0.12241044  1
  V  V12  1  0.49091189  0.50091333  -0.00314752  1
  V  V13  1  -0.00013451  0.62479832  0.12491932  1
  V  V14  1  0.75244983  0.88135481  0.62894739  1
  V  V15  1  0.88485374  0.49741227  0.38124950  1
  V  V16  1  0.62902902  0.62457847  0.00050686  1
  V  V17  1  0.87207767  0.75671789  0.12810209  1
  V  V18  1  -0.00996879  0.49317234  -0.00900878  1
  V  V19  1  0.12574270  0.51292480  0.61609167  1
  V  V20  1  0.23556659  0.63041242  0.37878033  1
  V  V21  1  0.75819749  0.37259561  0.13275033  1
  V  V22  1  0.24503720  0.88114782  0.63810295  1
  V  V23  1  0.24940780  0.23814382  0.49296847  1
  V  V24  1  0.49802160  0.62750814  0.12796927  1
  V  V25  1  0.36514279  0.00065234  0.86943068  1
  V  V26  1  0.00943630  0.87492435  0.37691554  1
  V  V27  1  0.37649766  0.74714492  0.62206909  1
  V  V28  1  0.73328367  0.38627840  0.63630174  1
  V  V29  1  0.12733013  0.87882290  0.22905465  1
  V  V30  1  0.62841943  0.49149241  0.13498926  1
  V  V31  1  0.13297046  0.63132192  -0.00060646  1
  V  V32  1  0.11764349  0.00641125  0.63263703  1
  V  V33  1  0.61959340  0.12470483  0.50028361  1
  V  V34  1  0.37384892  0.37380604  0.50657979  1
  V  V35  1  0.12064870  0.23076656  0.37458403  1
  V  V36  1  0.75019503  0.12154562  0.86914574  1
  V  V37  1  0.37470846  0.63352649  0.25458745  1
  V  V38  1  0.50293391  -0.00378991  0.00660310  1
  V  V39  1  0.62254665  0.00226615  0.62495487  1
  V  V40  1  0.87061268  0.61801946  0.25096725  1
  V  V41  1  0.62844603  0.74793982  0.87677201  1
  V  V42  1  0.62041301  0.25533791  0.36817330  1
  V  V43  1  0.50061433  0.37976607  0.37231306  1
  V  V44  1  0.25441782  0.61367155  0.87469669  1
  V  V45  1  0.86950311  0.13318019  0.23861451  1
  V  V46  1  0.37306186  0.61864898  0.75240952  1
  V  V47  1  0.74974032  0.75269434  0.00560477  1
  V  V48  1  0.23875058  0.74921809  0.49636821  1
  V  V49  1  0.76421232  0.25711793  -0.00007089  1
  V  V50  1  0.48776181  0.25275314  0.24422190  1
  V  V51  1  0.12214062  0.37462565  0.25756568  1
  V  V52  1  0.13437406  0.12801638  0.00263684  1
  V  V53  1  0.35912482  0.75123240  0.12040104  1
  V  V54  1  0.25283276  0.50347565  0.25073756  1
  V  V55  1  0.87610386  0.24869960  0.63635250  1
  V  V56  1  0.24299866  0.00560241  0.25259715  1
  V  V57  1  0.37988685  0.88464547  0.48997396  1
  V  V58  1  0.74596733  0.25849814  0.49801182  1
  V  V59  1  0.62342091  0.25050648  0.87433133  1
  V  V60  1  0.23009178  0.37329212  0.61961498  1
  V  V61  1  0.87499081  0.74656745  0.62481038  1
  V  V62  1  0.63428614  0.87927759  0.74995260  1
  V  V63  1  0.37310834  0.35524685  -0.00126836  1
  V  V64  1  0.36991256  0.11541676  0.26048231  1
  V  V65  1  0.86976175  -0.00434468  0.86671103  1
  V  V66  1  0.87464046  0.87694180  0.00186178  1
  V  V67  1  0.00296480  0.75149866  0.25563669  1
  V  V68  1  0.50314181  0.50504322  0.51494572  1
  V  V69  1  0.12720719  0.49896359  0.11692695  1
  V  V70  1  0.51647842  0.88285989  0.37239793  1
  V  V71  1  0.00543520  0.87495282  0.86971359  1
  V  V72  1  0.50141726  0.74480316  0.74318640  1
  V  V73  1  0.50176228  0.87675629  0.87375643  1
  V  V74  1  0.13477126  0.75400443  0.87454451  1
  V  V75  1  0.36207040  0.87185094  0.00448751  1
  V  V76  1  0.89084046  0.37505775  0.49714101  1
  V  V77  1  0.00708286  0.74004632  0.75147153  1
  V  V78  1  0.74342525  -0.01344226  0.24411903  1
  Zn  Zn79  1  0.37129417  0.11737402  0.74275040  1
  Zn  Zn80  1  0.00331639  0.12876715  0.12075268  1
  Zn  Zn81  1  0.24574308  0.48295473  0.75521638  1
  Zn  Zn82  1  0.62302286  -0.03267070  0.13882824  1
  Zn  Zn83  1  0.01868435  0.02260254  0.49303137  1
  Zn  Zn84  1  -0.01441604  0.26030976  0.24842484  1
  Zn  Zn85  1  0.37524741  0.50533831  0.37905755  1
  Zn  Zn86  1  0.24616150  0.14559689  0.87815358  1
  Zn  Zn87  1  0.87409437  0.59268365  0.79033154  1
  Zn  Zn88  1  0.74365932  0.12635994  0.37246385  1
  Zn  Zn89  1  0.51077990  0.76419895  0.25253747  1
  Zn  Zn90  1  0.73844215  0.75374532  0.49690209  1
  Zn  Zn91  1  0.00610194  0.00290932  0.00595773  1
  Zn  Zn92  1  0.87646262  0.11534608  0.74475088  1
  Zn  Zn93  1  0.49132008  0.12792608  0.12452819  1
  Zn  Zn94  1  0.18476248  0.18699470  0.18538835  1
  Zn  Zn95  1  0.19309793  0.17883784  0.68129829  1
  Zn  Zn96  1  0.18419444  0.68960071  0.19038632  1
  Zn  Zn97  1  0.18950181  0.68969659  0.68791682  1
  Zn  Zn98  1  0.68837014  0.18796979  0.18752095  1
  Zn  Zn99  1  0.68834374  0.19637957  0.68750884  1
  Zn  Zn100  1  0.68589492  0.69220586  0.18773537  1
  Zn  Zn101  1  0.69121377  0.68626215  0.69121064  1
  Zn  Zn102  1  0.31235177  0.31277678  0.31772429  1
  Zn  Zn103  1  0.29123864  0.28088090  0.78539185  1
  Zn  Zn104  1  0.31000046  0.81516278  0.31307217  1
  Zn  Zn105  1  0.31611331  0.80837574  0.81482229  1
  Zn  Zn106  1  0.80500351  0.31913923  0.31364661  1
  Zn  Zn107  1  0.82101422  0.41909141  0.80912882  1
  Zn  Zn108  1  0.81058059  0.80819363  0.31780230  1
  Zn  Zn109  1  0.83155442  0.77881853  0.82857080  1
  Zn  Zn110  1  0.18559233  0.44251681  0.43923210  1
  Zn  Zn111  1  0.18004106  0.31206967  0.93061976  1
  Zn  Zn112  1  0.19357240  0.94245279  0.44285170  1
  Zn  Zn113  1  0.18319636  0.94476663  0.94194103  1
  Zn  Zn114  1  0.68788571  0.44371863  0.43630258  1
  Zn  Zn115  1  0.68044605  0.43685637  0.94112134  1
  Zn  Zn116  1  0.68852538  0.93909260  0.43882803  1
  Zn  Zn117  1  0.68948085  0.93742468  0.93992622  1
  Zn  Zn118  1  0.30341381  0.06526459  0.07843172  1
  Zn  Zn119  1  0.30846810  0.05752783  0.56160817  1
  Zn  Zn120  1  0.31094657  0.56258438  0.06282641  1
  Zn  Zn121  1  0.31355249  0.56332338  0.56317740  1
  Zn  Zn122  1  0.80928231  0.05751803  0.06289517  1
  Zn  Zn123  1  0.81023685  0.06700206  0.55994907  1
  Zn  Zn124  1  0.81038714  0.56200467  0.06405448  1
  Zn  Zn125  1  0.81128007  0.56071145  0.56209644  1
  Zn  Zn126  1  0.43754367  0.43967692  0.18536160  1
  Zn  Zn127  1  0.43501917  0.43295736  0.69014005  1
  Zn  Zn128  1  0.42870337  0.93913732  0.19125948  1
  Zn  Zn129  1  0.43867083  0.93437036  0.68251770  1
  Zn  Zn130  1  0.93807196  0.43891197  0.18318198  1
  Zn  Zn131  1  0.94451439  0.43753223  0.67493466  1
  Zn  Zn132  1  0.93754912  0.94444427  0.18931018  1
  Zn  Zn133  1  0.94425074  0.93426947  0.68880531  1
  Zn  Zn134  1  0.05403385  0.05666067  0.30400162  1
  Zn  Zn135  1  0.06586282  0.06470964  0.81934612  1
  Zn  Zn136  1  0.06052065  0.55919613  0.31125890  1
  Zn  Zn137  1  0.07169666  0.55835302  0.80946270  1
  Zn  Zn138  1  0.55800029  0.06224482  0.31516465  1
  Zn  Zn139  1  0.56382967  0.06337802  0.81214204  1
  Zn  Zn140  1  0.55939299  0.56083606  0.31300201  1
  Zn  Zn141  1  0.55590474  0.56753986  0.82001537  1
  Zn  Zn142  1  0.43508262  0.18762602  0.43839062  1
  Zn  Zn143  1  0.43759145  0.18333984  0.93535138  1
  Zn  Zn144  1  0.44329930  0.69666008  0.43578053  1
  Zn  Zn145  1  0.43705275  0.68891869  0.93704019  1
  Zn  Zn146  1  0.93538992  0.19451919  0.42546617  1
  Zn  Zn147  1  0.94400483  0.18606928  0.93094736  1
  Zn  Zn148  1  0.92906072  0.69140844  0.43424116  1
  Zn  Zn149  1  0.94340012  0.68320317  0.94036888  1
  Zn  Zn150  1  0.05591921  0.30525043  0.06610673  1
  Zn  Zn151  1  0.05736962  0.18872789  0.56021502  1
  Zn  Zn152  1  0.05810656  0.81090014  0.05872686  1
  Zn  Zn153  1  0.06376140  0.81976314  0.56536268  1
  Zn  Zn154  1  0.56355136  0.31154150  0.06021786  1
  Zn  Zn155  1  0.56083326  0.31497437  0.56169221  1
  Zn  Zn156  1  0.55318947  0.80651790  0.06257253  1
  Zn  Zn157  1  0.56142356  0.81513827  0.55792098  1
  O  O158  1  0.12677356  0.12530333  0.11273032  1
  O  O159  1  0.12688282  0.11348038  0.61826610  1
  O  O160  1  0.12171131  0.62010447  0.12010239  1
  O  O161  1  0.11505953  0.62481074  0.62229133  1
  O  O162  1  0.61862531  0.12646029  0.11450230  1
  O  O163  1  0.62152230  0.12001983  0.62148994  1
  O  O164  1  0.61689537  0.62000438  0.12013113  1
  O  O165  1  0.62789372  0.61807355  0.62090888  1
  O  O166  1  0.38253795  0.38013741  0.38558268  1
  O  O167  1  0.38923303  0.37388700  0.89469222  1
  O  O168  1  0.37409186  0.87259604  0.38826033  1
  O  O169  1  0.38451306  0.87804172  0.88363304  1
  O  O170  1  0.86754993  0.38869856  0.38136675  1
  O  O171  1  0.89915635  0.38162924  0.88279969  1
  O  O172  1  0.87941149  0.88319843  0.38298684  1
  O  O173  1  0.88067017  0.87464849  0.88219822  1
  O  O174  1  0.24492201  -0.01127298  0.35471669  1
  O  O175  1  0.26565812  -0.00845353  0.87301220  1
  O  O176  1  0.25316074  0.51023910  0.36566970  1
  O  O177  1  0.24976339  0.51415870  0.86842095  1
  O  O178  1  0.75631735  0.00193572  0.36813998  1
  O  O179  1  0.75653002  0.00789464  0.87926392  1
  O  O180  1  0.75932376  0.51566203  0.37770414  1
  O  O181  1  0.73884287  0.50124893  0.85772743  1
  O  O182  1  0.24360424  0.49943437  0.13403403  1
  O  O183  1  0.24259524  0.49278941  0.62280961  1
  O  O184  1  0.25867091  0.98822108  0.15089934  1
  O  O185  1  0.24410095  0.98721509  0.62630906  1
  O  O186  1  0.73674767  0.48880497  0.11675868  1
  O  O187  1  0.75162877  0.48467192  0.61923915  1
  O  O188  1  0.74471522  0.99479535  0.13816859  1
  O  O189  1  0.74328660  0.98899094  0.62521798  1
  O  O190  1  0.01959881  0.37930821  0.24091572  1
  O  O191  1  0.00116091  0.36589826  0.75056802  1
  O  O192  1  0.00759782  0.87192917  0.25538581  1
  O  O193  1  -0.00323750  0.86008704  0.76258358  1
  O  O194  1  0.48844739  0.36484811  0.25937993  1
  O  O195  1  0.49680449  0.36947803  0.76257532  1
  O  O196  1  0.49289661  0.88091143  0.26534394  1
  O  O197  1  0.51017415  0.86639093  0.75675832  1
  O  O198  1  0.48959138  0.13531966  0.25173275  1
  O  O199  1  0.49937745  0.13024976  0.74301627  1
  O  O200  1  0.49102509  0.62672337  0.24259161  1
  O  O201  1  0.49369351  0.63590650  0.75519518  1
  O  O202  1  0.97548553  0.12026393  0.24982519  1
  O  O203  1  0.99359015  0.13995115  0.75814268  1
  O  O204  1  0.99256602  0.63282399  0.24690573  1
  O  O205  1  0.99704476  0.63489237  0.75030841  1
  O  O206  1  0.38994225  0.25806081  0.01019146  1
  O  O207  1  0.35884595  0.26019120  0.49074483  1
  O  O208  1  0.38067286  0.76370121  0.00439298  1
  O  O209  1  0.37191570  0.75564788  0.51029475  1
  O  O210  1  0.86169139  0.24476104  -0.00464446  1
  O  O211  1  0.86424772  0.26339898  0.49436999  1
  O  O212  1  0.86916875  0.75569778  0.00966414  1
  O  O213  1  0.87436545  0.76161007  0.51039186  1
  O  O214  1  0.13149163  0.24208424  0.48270991  1
  O  O215  1  0.12605814  0.24015177  1.00324184  1
  O  O216  1  0.14041682  0.75562657  0.50456132  1
  O  O217  1  0.11903448  0.73846659  0.99209202  1
  O  O218  1  0.62822916  0.24562969  0.49203189  1
  O  O219  1  0.61930976  0.23650078  0.99178209  1
  O  O220  1  0.62098723  0.73059236  0.50783452  1
  O  O221  1  0.62928372  0.74493188  0.99678523  1
  O  O222  1  0.50437499  0.25341294  0.14267861  1
  O  O223  1  0.51168566  0.23960485  0.63467260  1
  O  O224  1  0.48707327  0.73733357  0.12809357  1
  O  O225  1  0.49239273  0.75899055  0.63594700  1
  O  O226  1  1.00266199  0.24199079  0.13955806  1
  O  O227  1  0.98711398  0.25010306  0.63518518  1
  O  O228  1  0.99051281  0.74414294  0.13305077  1
  O  O229  1  0.99999493  0.74044320  0.62901096  1
  O  O230  1  0.01686454  0.25215899  0.36352554  1
  O  O231  1  -0.00636039  0.26069273  0.85569598  1
  O  O232  1  -0.01097915  0.76012623  0.36301706  1
  O  O233  1  0.01254058  0.75474151  0.86956625  1
  O  O234  1  0.50276235  0.26050799  0.36939705  1
  O  O235  1  0.50471566  0.25328095  0.86934603  1
  O  O236  1  0.49850590  0.76598068  0.36761570  1
  O  O237  1  0.50810579  0.75943179  0.86866142  1
  O  O238  1  0.25775996  0.13958066  0.50123064  1
  O  O239  1  0.24209294  0.11940868  1.00020755  1
  O  O240  1  0.25628604  0.63928598  0.49327708  1
  O  O241  1  0.24101338  0.62046493  0.99231383  1
  O  O242  1  0.73875583  0.14076539  0.49953948  1
  O  O243  1  0.74157029  0.13224292  0.99733812  1
  O  O244  1  0.73245332  0.62080705  0.49394016  1
  O  O245  1  0.73742251  0.63548471  1.00735930  1
  O  O246  1  0.26270553  0.37180589  0.01311161  1
  O  O247  1  0.25529320  0.37528879  0.50571675  1
  O  O248  1  0.26435645  0.87746067  -0.00371935  1
  O  O249  1  0.26144248  0.86271195  0.50587540  1
  O  O250  1  0.74655631  0.36257506  0.00267266  1
  O  O251  1  0.74720149  0.36754009  0.50482654  1
  O  O252  1  0.75886038  0.86320272  -0.00025955  1
  O  O253  1  0.75779205  0.87212459  0.51095855  1
  O  O254  1  0.13334961  0.49526793  0.24000366  1
  O  O255  1  0.13321566  0.50787422  0.72913799  1
  O  O256  1  0.12852350  0.98821993  0.24674157  1
  O  O257  1  0.11988682  1.00553356  0.73470624  1
  O  O258  1  0.62106231  0.50381161  0.23362161  1
  O  O259  1  0.69572150  0.53750020  0.78995212  1
  O  O260  1  0.63890080  1.00452385  0.25245778  1
  O  O261  1  0.62371546  0.98783697  0.74337282  1
  O  O262  1  0.36536916  0.00881751  0.25905866  1
  O  O263  1  0.38602292  -0.00422029  0.76636192  1
  O  O264  1  0.36652859  0.51361657  0.24732079  1
  O  O265  1  0.37275605  0.51528003  0.74236689  1
  O  O266  1  0.86183406  0.00826986  0.25746775  1
  O  O267  1  0.87718698  -0.00451088  0.76135189  1
  O  O268  1  0.87873669  0.51125046  0.25814330  1
  O  O269  1  0.87807998  0.49520837  0.74410442  1
  O  O270  1  0.12888960  0.38532667  0.35803223  1
  O  O271  1  0.09933309  0.37459969  0.88444184  1
  O  O272  1  0.10987914  0.87907178  0.37594008  1
  O  O273  1  0.11539587  0.86698483  0.88615566  1
  O  O274  1  0.61235675  0.36854819  0.38112240  1
  O  O275  1  0.60978565  0.36078423  0.88825406  1
  O  O276  1  0.61699605  0.87066611  0.38493137  1
  O  O277  1  0.61937396  0.87045936  0.86891544  1
  O  O278  1  0.37874129  0.11946079  0.14583226  1
  O  O279  1  0.39156491  0.11289312  0.62333056  1
  O  O280  1  0.37980125  0.63041366  0.13163671  1
  O  O281  1  0.36768358  0.63963397  0.63499151  1
  O  O282  1  0.86168434  0.12973536  0.13761249  1
  O  O283  1  0.86129408  0.14276209  0.62908969  1
  O  O284  1  0.87830207  0.63165280  0.13430135  1
  O  O285  1  0.88983135  0.63238946  0.61333011  1
  O  O286  1  0.25548974  0.26614539  0.13650439  1
  O  O287  1  0.23261891  0.26357084  0.60262126  1
  O  O288  1  0.25960994  0.74236915  0.12141376  1
  O  O289  1  0.25604322  0.75845666  0.61587249  1
  O  O290  1  0.74017339  0.26154531  0.11053990  1
  O  O291  1  0.75671780  0.26227162  0.61660976  1
  O  O292  1  0.76315977  0.74499986  0.11781698  1
  O  O293  1  0.75910849  0.75517146  0.62384562  1
  O  O294  1  0.23557519  0.25803528  0.38505173  1
  O  O295  1  0.26978128  0.25964365  0.89160731  1
  O  O296  1  0.25244941  0.74557205  0.38852045  1
  O  O297  1  0.23942243  0.74653845  0.87343987  1
  O  O298  1  0.73612274  0.25349189  0.38191854  1
  O  O299  1  0.73758220  0.24003809  0.89245570  1
  O  O300  1  0.76284054  0.72918695  0.38493512  1
  O  O301  1  0.73265924  0.75794812  0.88692013  1
  O  O302  1  0.01178232  0.12594622  -0.00193384  1
  O  O303  1  -0.01564401  0.12851585  0.50108083  1
  O  O304  1  0.01194963  0.61751287  0.00487151  1
  O  O305  1  0.00458147  0.63419366  0.50289269  1
  O  O306  1  0.50619803  0.11095514  0.00105609  1
  O  O307  1  0.51107869  0.13632805  0.51013586  1
  O  O308  1  0.50579053  0.62191008  0.00843708  1
  O  O309  1  0.50842386  0.61489021  0.49806325  1
  O  O310  1  0.49396983  0.38507808  0.49401999  1
  O  O311  1  0.48996344  0.38237607  1.00077530  1
  O  O312  1  0.48769027  0.87090861  0.49100832  1
  O  O313  1  0.50035886  0.87896311  0.98981252  1
  O  O314  1  0.98584431  0.36982360  0.49653803  1
  O  O315  1  1.00174191  0.39394022  1.01168686  1
  O  O316  1  0.98869701  0.87258801  0.49335594  1
  O  O317  1  0.98772987  0.87159203  0.98910827  1
  O  O318  1  0.49699358  0.49208129  0.37959201  1
  O  O319  1  0.51183568  0.48839755  0.88482844  1
  O  O320  1  0.50537598  0.98510879  0.38005741  1
  O  O321  1  0.49891697  0.98994339  0.88410740  1
  O  O322  1  0.98470672  0.50304536  0.37492111  1
  O  O323  1  1.00513425  0.49761117  0.88494273  1
  O  O324  1  0.98778482  0.99168138  0.37665992  1
  O  O325  1  0.98975516  0.98872108  0.87754165  1
  O  O326  1  -0.01812539  0.01458842  0.11707569  1
  O  O327  1  0.01347371  -0.00988371  0.61837574  1
  O  O328  1  0.00886175  0.50758316  0.12048385  1
  O  O329  1  0.01106256  0.51743419  0.62060014  1
  O  O330  1  0.50533143  -0.00877795  0.11571974  1
  O  O331  1  0.51501961  0.00724395  0.62871443  1
  O  O332  1  0.50802376  0.50848168  0.11870972  1
  O  O333  1  0.50023244  0.49583213  0.61356051  1
  O  O334  1  0.25011458  0.38710884  0.24290742  1
  O  O335  1  0.25913929  0.36991528  0.72238466  1
  O  O336  1  0.22893880  0.87143998  0.25141058  1
  O  O337  1  0.25861718  0.86913782  0.73610118  1
  O  O338  1  0.74166457  0.36651025  0.23178400  1
  O  O339  1  0.74874636  0.37051731  0.73542440  1
  O  O340  1  0.75643510  0.88742321  0.25684230  1
  O  O341  1  0.73964219  0.86222774  0.74105511  1
  O  O342  1  0.25613408  0.11592393  0.24961067  1
  O  O343  1  0.26647595  0.15727945  0.76087036  1
  O  O344  1  0.25489318  0.62261111  0.25717594  1
  O  O345  1  0.26076939  0.63121584  0.75831711  1
  O  O346  1  0.75570815  0.11784256  0.25347125  1
  O  O347  1  0.75080243  0.13361106  0.76607173  1
  O  O348  1  0.75746375  0.63335458  0.25975953  1
  O  O349  1  0.73922198  0.60377387  0.76547364  1
  O  O350  1  0.37664925  0.12953332  0.36110052  1
  O  O351  1  0.37472318  0.10609377  0.87897497  1
  O  O352  1  0.36944044  0.62858433  0.36444777  1
  O  O353  1  0.36732324  0.63470893  0.86548140  1
  O  O354  1  0.86780452  0.11415314  0.37057195  1
  O  O355  1  0.86689000  0.11239063  0.87498086  1
  O  O356  1  0.86938166  0.61379727  0.37059845  1
  O  O357  1  0.86315818  0.67082804  0.86582111  1
  O  O358  1  0.14216310  0.38260900  0.13196841  1
  O  O359  1  0.13145080  0.39071326  0.62051143  1
  O  O360  1  0.12028720  0.87471297  0.12999015  1
  O  O361  1  0.13918835  0.87947649  0.62892735  1
  O  O362  1  0.62559376  0.38876985  0.11997700  1
  O  O363  1  0.63297539  0.37453688  0.62535545  1
  O  O364  1  0.62686407  0.84299543  0.14350914  1
  O  O365  1  0.63155719  0.88121165  0.62910430  1
  O  O366  1  0.13769437  0.26584344  0.26125226  1
  O  O367  1  0.11373636  0.24576668  0.73973697  1
  O  O368  1  0.11101492  0.76164393  0.24417579  1
  O  O369  1  0.11804005  0.74618627  0.76065985  1
  O  O370  1  0.61094582  0.24138122  0.26270027  1
  O  O371  1  0.61608190  0.24295836  0.76657269  1
  O  O372  1  0.62440196  0.78933788  0.21277652  1
  O  O373  1  0.61957915  0.75443525  0.75734719  1
  O  O374  1  0.38329868  0.24386149  0.25420584  1
  O  O375  1  0.39629487  0.24783197  0.74863522  1
  O  O376  1  0.37028653  0.74332886  0.23974468  1
  O  O377  1  0.38530782  0.74563460  0.74355947  1
  O  O378  1  0.86910803  0.23651119  0.26418195  1
  O  O379  1  0.87469438  0.25669055  0.73492473  1
  O  O380  1  0.88196548  0.74324265  0.24462977  1
  O  O381  1  0.88709657  0.75396537  0.73007709  1
  O  O382  1  0.38785419  0.49771094  0.49900209  1
  O  O383  1  0.38882630  0.50263345  1.00267061  1
  O  O384  1  0.37070606  0.98331418  0.50249896  1
  O  O385  1  0.38506010  0.98522569  0.99195564  1
  O  O386  1  0.87440693  0.48940332  0.49035606  1
  O  O387  1  0.89142057  0.51414212  1.00139524  1
  O  O388  1  0.86886221  0.99139846  0.49296260  1
  O  O389  1  0.86936108  0.98692267  0.98959137  1
  O  O390  1  0.12152830  0.01439025  0.00131894  1
  O  O391  1  0.12719670  -0.00686142  0.51653869  1
  O  O392  1  0.11722482  0.51107479  0.01197252  1
  O  O393  1  0.13124460  0.50668565  0.51461809  1
  O  O394  1  0.62003788  0.00115829  0.00807916  1
  O  O395  1  0.63445405  0.01471291  0.51153487  1
  O  O396  1  0.61548462  0.50987811  0.00873592  1
  O  O397  1  0.61090398  0.51015910  0.49580522  1
  O  O398  1  0.36601437  0.38339413  0.11416161  1
  O  O399  1  0.37183246  0.37729262  0.60967083  1
  O  O400  1  0.37986913  0.86689796  0.11153303  1
  O  O401  1  0.36770769  0.86777042  0.61750466  1
  O  O402  1  0.85801336  0.38194484  0.12743526  1
  O  O403  1  0.87108861  0.36653559  0.60894809  1
  O  O404  1  0.88312389  0.86437936  0.11769935  1
  O  O405  1  0.87010890  0.87134106  0.61888231  1
  O  O406  1  0.12389020  0.13276749  0.35902959  1
  O  O407  1  0.13143677  0.12492521  0.88940172  1
  O  O408  1  0.13630711  0.62370360  0.36810213  1
  O  O409  1  0.13478115  0.63260586  0.88121003  1
  O  O410  1  0.62117689  0.13508300  0.38567994  1
  O  O411  1  0.63071009  0.12588959  0.88636066  1
  O  O412  1  0.63617915  0.62524546  0.36897114  1
  O  O413  1  0.61413222  0.63765888  0.88991280  1
