# generated using pymatgen
data_V79Zn79O256
_symmetry_space_group_name_H-M   'P 1'
_cell_length_a   16.88313821
_cell_length_b   16.86316941
_cell_length_c   16.87138470
_cell_angle_alpha   90.00205257
_cell_angle_beta   89.92034385
_cell_angle_gamma   89.95168134
_symmetry_Int_Tables_number   1
_chemical_formula_structural   V79Zn79O256
_chemical_formula_sum   'V79 Zn79 O256'
_cell_volume   4803.33119429
_cell_formula_units_Z   1
loop_
 _symmetry_equiv_pos_site_id
 _symmetry_equiv_pos_as_xyz
  1  'x, y, z'
loop_
 _atom_site_type_symbol
 _atom_site_label
 _atom_site_symmetry_multiplicity
 _atom_site_fract_x
 _atom_site_fract_y
 _atom_site_fract_z
 _atom_site_occupancy
  V  V0  1  0.49794200  0.50048782  0.50041449  1
  V  V1  1  0.49236094  0.24037440  0.24733531  1
  V  V2  1  0.49647481  0.62833132  0.62876223  1
  V  V3  1  -0.03629733  0.26488247  0.74066770  1
  V  V4  1  0.00180010  0.00289503  0.49063697  1
  V  V5  1  0.63235905  0.12031641  0.00755219  1
  V  V6  1  0.64869369  0.12630558  0.50438682  1
  V  V7  1  0.00766509  0.37385913  0.87604216  1
  V  V8  1  0.12332462  0.12965364  -0.01040983  1
  V  V9  1  0.87135954  0.24921367  0.12319183  1
  V  V10  1  0.12475177  0.62638795  0.00221335  1
  V  V11  1  0.62899399  0.87155852  0.23591316  1
  V  V12  1  0.86041808  -0.00114024  0.87336678  1
  V  V13  1  0.11448149  0.50318053  0.62418765  1
  V  V14  1  0.25715450  0.10553908  0.87156318  1
  V  V15  1  0.25081488  0.23385259  0.50096332  1
  V  V16  1  0.74057830  -0.00108490  0.24901786  1
  V  V17  1  0.51131316  0.88014994  0.87376066  1
  V  V18  1  0.12821913  0.88396683  0.74891916  1
  V  V19  1  0.62899554  0.49629806  0.62551972  1
  V  V20  1  0.74746122  0.50838850  0.25790659  1
  V  V21  1  0.62582332  0.61017752  -0.01007496  1
  V  V22  1  0.75161005  0.51282869  0.75473515  1
  V  V23  1  0.73852483  0.74772680  -0.02192271  1
  V  V24  1  -0.00196507  0.12455170  0.12212589  1
  V  V25  1  -0.00025439  0.25180503  0.25226911  1
  V  V26  1  0.24900672  0.49839869  0.25205300  1
  V  V27  1  0.11127659  0.62308821  0.50448415  1
  V  V28  1  0.12179324  0.37211090  0.25501086  1
  V  V29  1  0.85685247  0.74917840  0.12500251  1
  V  V30  1  0.49666744  0.87135824  0.36762205  1
  V  V31  1  0.37476280  0.74981074  0.63148126  1
  V  V32  1  0.74390091  0.88359408  0.63561214  1
  V  V33  1  -0.00145213  -0.00288808  -0.00253457  1
  V  V34  1  0.38633532  0.74782541  0.12443736  1
  V  V35  1  0.86899984  0.11924707  0.26575972  1
  V  V36  1  0.87739498  0.88170667  0.48990104  1
  V  V37  1  0.26001982  0.37213009  0.62338177  1
  V  V38  1  0.12051007  0.87699463  0.25394831  1
  V  V39  1  0.37566909  0.49925677  0.37614239  1
  V  V40  1  0.50080316  0.37133149  0.37616392  1
  V  V41  1  0.00474658  0.12058504  0.63437423  1
  V  V42  1  0.24913128  0.37172828  0.12423869  1
  V  V43  1  0.63238188  0.62657191  0.49498275  1
  V  V44  1  0.49603286  0.00935960  0.00830361  1
  V  V45  1  0.13168102  0.36554337  0.75600579  1
  V  V46  1  0.74806069  0.24902202  -0.01051354  1
  V  V47  1  0.63713965  0.24171570  0.37390965  1
  V  V48  1  0.85321251  0.11467773  0.74956017  1
  V  V49  1  -0.00322537  0.73630607  0.74725781  1
  V  V50  1  0.11447863  0.75330632  0.37793105  1
  V  V51  1  0.74350267  0.38496834  0.12567656  1
  V  V52  1  0.00237927  0.74276067  0.23613543  1
  V  V53  1  0.62756028  0.36489704  0.74549396  1
  V  V54  1  0.50573486  0.60082755  0.12203254  1
  V  V55  1  0.25063242  0.62486639  0.37681910  1
  V  V56  1  0.24492966  0.25285457  -0.01275069  1
  V  V57  1  0.11460044  0.50654655  0.12703913  1
  V  V58  1  0.37638390  0.10889176  0.74080633  1
  V  V59  1  -0.00182088  0.87415603  0.87248894  1
  V  V60  1  0.38025418  0.37944365  -0.00369836  1
  V  V61  1  0.37999819  0.63147144  0.24913146  1
  V  V62  1  0.50970325  0.00849343  0.49802646  1
  V  V63  1  0.37713406  0.88028181  0.49607416  1
  V  V64  1  0.25370809  0.51698023  0.75314754  1
  V  V65  1  0.37390013  0.87595183  -0.00823366  1
  V  V66  1  0.48139646  0.25274333  0.73884502  1
  V  V67  1  0.25185185  0.87085787  0.12964688  1
  V  V68  1  0.63169535  0.74930520  0.37238142  1
  V  V69  1  0.87775425  0.74253006  0.62625577  1
  V  V70  1  0.87609641  0.37981466  -0.00688399  1
  V  V71  1  0.51342766  0.75318555  0.75577982  1
  V  V72  1  0.88214341  0.50064488  0.38888353  1
  V  V73  1  0.13247641  0.74370013  0.87392875  1
  V  V74  1  0.25040501  0.74981548  0.49639587  1
  V  V75  1  0.24685156  0.11196332  0.35909485  1
  V  V76  1  0.25173164  0.88219119  0.62740510  1
  V  V77  1  0.12978842  -0.00165263  0.12685887  1
  V  V78  1  0.37528457  0.51604588  0.87621002  1
  Zn  Zn79  1  0.50071136  0.37833215  0.87556498  1
  Zn  Zn80  1  0.13288665  0.00627907  0.62532520  1
  Zn  Zn81  1  0.62088258  0.37579631  0.24424417  1
  Zn  Zn82  1  0.75438492  0.75315464  0.49880037  1
  Zn  Zn83  1  0.85680140  0.87948387  0.01199649  1
  Zn  Zn84  1  0.61958502  0.24847051  0.87232170  1
  Zn  Zn85  1  0.87976730  0.62162600  0.24982012  1
  Zn  Zn86  1  -0.00372419  0.37639908  0.39262398  1
  Zn  Zn87  1  -0.00586435  0.51095299  0.00177056  1
  Zn  Zn88  1  0.11949219  0.24225378  0.38788860  1
  Zn  Zn89  1  0.37679591  0.10312462  0.24262413  1
  Zn  Zn90  1  0.38172279  0.36382292  0.50762064  1
  Zn  Zn91  1  0.87358730  0.51978254  0.87011917  1
  Zn  Zn92  1  0.25648329  0.74155205  -0.00718530  1
  Zn  Zn93  1  0.38295102  0.23856775  0.11572937  1
  Zn  Zn94  1  0.18863559  0.18649568  0.18074894  1
  Zn  Zn95  1  0.19605653  0.18481935  0.68935678  1
  Zn  Zn96  1  0.19209297  0.68861713  0.18854468  1
  Zn  Zn97  1  0.18244255  0.69277221  0.68465217  1
  Zn  Zn98  1  0.68413984  0.18720559  0.18661293  1
  Zn  Zn99  1  0.67066284  0.05171545  0.68345317  1
  Zn  Zn100  1  0.67893503  0.68372123  0.18646123  1
  Zn  Zn101  1  0.68859823  0.69188895  0.68251195  1
  Zn  Zn102  1  0.31138108  0.30798673  0.31965269  1
  Zn  Zn103  1  0.30919429  0.31756094  0.81344455  1
  Zn  Zn104  1  0.31246395  0.93337680  0.31327528  1
  Zn  Zn105  1  0.31551070  0.81441305  0.80851006  1
  Zn  Zn106  1  0.81728177  0.31861369  0.31283397  1
  Zn  Zn107  1  0.81142576  0.32145142  0.79962337  1
  Zn  Zn108  1  0.81262555  0.81445652  0.30952704  1
  Zn  Zn109  1  0.81257005  0.81067747  0.81086349  1
  Zn  Zn110  1  0.18553729  0.43613591  0.44110343  1
  Zn  Zn111  1  0.18913178  0.44584986  0.93884487  1
  Zn  Zn112  1  0.17959388  0.93897267  0.44307361  1
  Zn  Zn113  1  0.18602620  0.93123908  0.94034518  1
  Zn  Zn114  1  0.68490921  0.43897842  0.43132586  1
  Zn  Zn115  1  0.68761336  0.43585757  0.93161918  1
  Zn  Zn116  1  0.69503245  0.94001750  0.43210269  1
  Zn  Zn117  1  0.68084421  0.93471704  0.94333035  1
  Zn  Zn118  1  0.31299012  0.06218755  0.06121257  1
  Zn  Zn119  1  0.32357133  0.06081428  0.55950346  1
  Zn  Zn120  1  0.30849626  0.56212143  0.06362662  1
  Zn  Zn121  1  0.30916418  0.56252559  0.56519242  1
  Zn  Zn122  1  0.80942799  0.05987805  0.06780598  1
  Zn  Zn123  1  0.81936704  0.06143380  0.56398408  1
  Zn  Zn124  1  0.81157840  0.56943163  0.06287487  1
  Zn  Zn125  1  0.81329140  0.56022161  0.56675732  1
  Zn  Zn126  1  0.43404988  0.43206586  0.19003572  1
  Zn  Zn127  1  0.43866537  0.44280747  0.69359029  1
  Zn  Zn128  1  0.44512888  0.93244526  0.18129209  1
  Zn  Zn129  1  0.49925011  0.96398819  0.70506596  1
  Zn  Zn130  1  0.93165494  0.43729294  0.19023917  1
  Zn  Zn131  1  0.93495675  0.43733523  0.68920003  1
  Zn  Zn132  1  0.93620584  0.93398316  0.19047791  1
  Zn  Zn133  1  0.93281274  0.93293523  0.68503326  1
  Zn  Zn134  1  0.06422471  0.06774593  0.31099021  1
  Zn  Zn135  1  0.05706666  0.06745672  0.81112977  1
  Zn  Zn136  1  0.06091388  0.56213249  0.31868935  1
  Zn  Zn137  1  0.06315527  0.55824539  0.81644462  1
  Zn  Zn138  1  0.56275217  0.05786171  0.31621169  1
  Zn  Zn139  1  0.55899988  0.07431996  0.82707284  1
  Zn  Zn140  1  0.56351449  0.56277239  0.30950530  1
  Zn  Zn141  1  0.55962234  0.56056648  0.80966639  1
  Zn  Zn142  1  0.42817223  0.18437178  0.43056754  1
  Zn  Zn143  1  0.43644293  0.19130564  0.92851917  1
  Zn  Zn144  1  0.44075847  0.69101729  0.43561317  1
  Zn  Zn145  1  0.44682694  0.68840567  0.94157702  1
  Zn  Zn146  1  0.93907958  0.19053887  0.44591342  1
  Zn  Zn147  1  0.93305162  0.18927119  0.92718355  1
  Zn  Zn148  1  0.93003556  0.68584780  0.43508568  1
  Zn  Zn149  1  0.93660263  0.68712147  0.94509362  1
  Zn  Zn150  1  0.06194801  0.31451626  0.06469105  1
  Zn  Zn151  1  0.07129676  0.30580261  0.57600756  1
  Zn  Zn152  1  0.06356832  0.81193924  0.05962918  1
  Zn  Zn153  1  0.06034177  0.81684511  0.56350775  1
  Zn  Zn154  1  0.56341865  0.31038998  0.06262025  1
  Zn  Zn155  1  0.56625504  0.30294171  0.56277660  1
  Zn  Zn156  1  0.56274486  0.80634522  0.05463228  1
  Zn  Zn157  1  0.56269390  0.81472403  0.55964268  1
  O  O158  1  0.11943789  0.11619934  0.11403300  1
  O  O159  1  0.11145023  0.12259436  0.63867116  1
  O  O160  1  0.13124553  0.61365270  0.12341516  1
  O  O161  1  0.12813180  0.61193535  0.62005290  1
  O  O162  1  0.61957065  0.13332975  0.10840623  1
  O  O163  1  0.63037955  0.12632264  0.60251735  1
  O  O164  1  0.60869037  0.62108268  0.12411890  1
  O  O165  1  0.61432113  0.61981693  0.61522859  1
  O  O166  1  0.38437951  0.38113400  0.37968116  1
  O  O167  1  0.37053680  0.38294866  0.88829285  1
  O  O168  1  0.38783378  0.86699766  0.38022592  1
  O  O169  1  0.37906706  0.86774248  0.88751293  1
  O  O170  1  0.88011878  0.39074477  0.37043936  1
  O  O171  1  0.87995465  0.37892185  0.88433572  1
  O  O172  1  0.87590725  0.86671701  0.39075671  1
  O  O173  1  0.88453772  0.88165462  0.87726672  1
  O  O174  1  0.24504897  0.00584539  0.37655879  1
  O  O175  1  0.25105185  0.00646410  0.88053828  1
  O  O176  1  0.25423293  0.50448986  0.37290758  1
  O  O177  1  0.25665369  0.49989753  0.86080715  1
  O  O178  1  0.75519010  -0.00332207  0.35161069  1
  O  O179  1  0.76227909  -0.01172101  0.88184624  1
  O  O180  1  0.76097317  0.49293860  0.36442032  1
  O  O181  1  0.75383054  0.49558656  0.85858852  1
  O  O182  1  0.24150407  0.48898661  0.13198177  1
  O  O183  1  0.24616135  0.49333223  0.63633994  1
  O  O184  1  0.23599699  0.98915225  0.11478841  1
  O  O185  1  0.25079552  0.98597980  0.61455260  1
  O  O186  1  0.75654180  0.48908227  0.13411752  1
  O  O187  1  0.73491211  0.50285988  0.63044216  1
  O  O188  1  0.76484521  0.99384091  0.14643607  1
  O  O189  1  0.75058811  0.98923532  0.62449858  1
  O  O190  1  0.00696094  0.36495097  0.24551868  1
  O  O191  1  0.01694463  0.37333260  0.75759728  1
  O  O192  1  0.01273231  0.86201304  0.24662552  1
  O  O193  1  0.00704423  0.87048604  0.75840557  1
  O  O194  1  0.50186090  0.36959840  0.26155291  1
  O  O195  1  0.50434326  0.36802944  0.75014019  1
  O  O196  1  0.51577048  0.87697459  0.26077683  1
  O  O197  1  0.49356968  0.86341993  0.76363748  1
  O  O198  1  0.49771569  0.13748976  0.25938782  1
  O  O199  1  0.48166855  0.14166213  0.75912089  1
  O  O200  1  0.49105934  0.61441676  0.23560279  1
  O  O201  1  0.50394539  0.63793268  0.73842849  1
  O  O202  1  0.99069499  0.13411330  0.24343844  1
  O  O203  1  0.98862487  0.13311027  0.74608167  1
  O  O204  1  1.00413086  0.64026433  0.25300513  1
  O  O205  1  1.00767560  0.63796372  0.74964496  1
  O  O206  1  0.36442471  0.26278845  -0.00147485  1
  O  O207  1  0.35761575  0.25076955  0.49666333  1
  O  O208  1  0.37499568  0.75582649  0.00719152  1
  O  O209  1  0.36762728  0.75617675  0.50376829  1
  O  O210  1  0.86895755  0.25560346  0.00458633  1
  O  O211  1  0.91716915  0.28637104  0.51002948  1
  O  O212  1  0.85734360  0.74830504  0.01159306  1
  O  O213  1  0.88134978  0.76099545  0.51060125  1
  O  O214  1  0.14374688  0.25826476  0.50198547  1
  O  O215  1  0.12952985  0.23851062  1.00546729  1
  O  O216  1  0.12953339  0.74590559  0.49783823  1
  O  O217  1  0.12745890  0.74582783  0.99027822  1
  O  O218  1  0.62133691  0.23645509  0.48639285  1
  O  O219  1  0.63370615  0.24522716  1.00015555  1
  O  O220  1  0.62627749  0.74282615  0.48996321  1
  O  O221  1  0.63389058  0.73766441  0.99908209  1
  O  O222  1  0.49953533  0.25882131  0.14352625  1
  O  O223  1  0.49725150  0.25304267  0.63880328  1
  O  O224  1  0.48861832  0.74521545  0.12263059  1
  O  O225  1  0.49478306  0.74814857  0.63179214  1
  O  O226  1  0.99054936  0.24631000  0.13062794  1
  O  O227  1  1.00442719  0.23632713  0.64173026  1
  O  O228  1  1.00375623  0.74635230  0.13459949  1
  O  O229  1  0.99265228  0.75636141  0.63812358  1
  O  O230  1  0.00261853  0.25150330  0.36274489  1
  O  O231  1  -0.01165499  0.26507810  0.85668663  1
  O  O232  1  0.01154041  0.74771999  0.37003052  1
  O  O233  1  0.00563406  0.75817963  0.86471621  1
  O  O234  1  0.50260421  0.25677587  0.36819354  1
  O  O235  1  0.49948016  0.25891082  0.86115211  1
  O  O236  1  0.51180637  0.76219642  0.37784491  1
  O  O237  1  0.49598079  0.75527914  0.86132502  1
  O  O238  1  0.25047238  0.13146018  0.50014582  1
  O  O239  1  0.24351419  0.13092230  0.98809848  1
  O  O240  1  0.24303739  0.63269425  0.49760461  1
  O  O241  1  0.23421880  0.62633972  1.00445750  1
  O  O242  1  0.74880131  0.12348346  0.49783857  1
  O  O243  1  0.74111547  0.13214210  1.00553736  1
  O  O244  1  0.73502039  0.62623527  0.50470703  1
  O  O245  1  0.73549956  0.63554641  1.00671053  1
  O  O246  1  0.25185611  0.37043839  0.00571097  1
  O  O247  1  0.25463674  0.37839868  0.51504292  1
  O  O248  1  0.25758534  0.87094313  0.00989704  1
  O  O249  1  0.25534223  0.86712109  0.50331295  1
  O  O250  1  0.75698293  0.37074405  0.00887945  1
  O  O251  1  0.76827669  0.37217617  0.50309158  1
  O  O252  1  0.74321930  0.85424997  -0.00247129  1
  O  O253  1  0.76468939  0.87714986  0.50550806  1
  O  O254  1  0.12835423  0.49216302  0.24677734  1
  O  O255  1  0.13642332  0.49568592  0.74299810  1
  O  O256  1  0.11141047  0.99180091  0.23554773  1
  O  O257  1  0.12043345  0.98717388  0.75121891  1
  O  O258  1  0.64120085  0.49178569  0.26101319  1
  O  O259  1  0.62687961  0.49364558  0.74158219  1
  O  O260  1  0.63210452  0.98931807  0.24827506  1
  O  O261  1  0.59568840  1.00441319  0.74896005  1
  O  O262  1  0.38373919  -0.00870736  0.25115037  1
  O  O263  1  0.39475795  0.01098661  0.74326914  1
  O  O264  1  0.36816091  0.50512616  0.25648748  1
  O  O265  1  0.36257270  0.50282269  0.75997964  1
  O  O266  1  0.88197473  0.01669840  0.25184923  1
  O  O267  1  0.87828482  0.00193291  0.76539718  1
  O  O268  1  0.86303218  0.50221417  0.25364888  1
  O  O269  1  0.85425276  0.50044312  0.73900353  1
  O  O270  1  0.12044892  0.37435065  0.36476033  1
  O  O271  1  0.11843590  0.38191387  0.87076904  1
  O  O272  1  0.13189645  0.86566538  0.36511423  1
  O  O273  1  0.11800933  0.86733261  0.86853698  1
  O  O274  1  0.61434482  0.36250809  0.37895646  1
  O  O275  1  0.61937588  0.37589707  0.86038427  1
  O  O276  1  0.61842925  0.86355259  0.37405353  1
  O  O277  1  0.60962484  0.87026538  0.87908849  1
  O  O278  1  0.35829411  0.13145236  0.13401958  1
  O  O279  1  0.36249964  0.12751915  0.64235211  1
  O  O280  1  0.38493128  0.62582806  0.12742248  1
  O  O281  1  0.38725976  0.63572129  0.61401159  1
  O  O282  1  0.87940555  0.13582744  0.12710644  1
  O  O283  1  0.88205621  0.11779856  0.64482441  1
  O  O284  1  0.87325402  0.64269765  0.13041642  1
  O  O285  1  0.87454704  0.64306646  0.61733991  1
  O  O286  1  0.24725029  0.26222517  0.11382674  1
  O  O287  1  0.24763821  0.26372529  0.61666978  1
  O  O288  1  0.26008139  0.75781778  0.12348503  1
  O  O289  1  0.25484689  0.75488987  0.61430789  1
  O  O290  1  0.75775349  0.25912127  0.11853280  1
  O  O291  1  0.75242259  0.31846097  0.55176452  1
  O  O292  1  0.75706965  0.75290216  0.13549881  1
  O  O293  1  0.76472397  0.75728101  0.62276987  1
  O  O294  1  0.24412083  0.24111806  0.38655190  1
  O  O295  1  0.24826427  0.24684530  0.88475617  1
  O  O296  1  0.23791210  0.74337420  0.38875068  1
  O  O297  1  0.23652237  0.75578772  0.87163505  1
  O  O298  1  0.73535791  0.25826070  0.36770196  1
  O  O299  1  0.74919318  0.26225499  0.88826556  1
  O  O300  1  0.73680988  0.75367684  0.37825182  1
  O  O301  1  0.74911387  0.74462165  0.87923842  1
  O  O302  1  0.00438778  0.11907604  -0.00129883  1
  O  O303  1  -0.01324991  0.11467902  0.52122036  1
  O  O304  1  0.01638202  0.62802876  0.00431086  1
  O  O305  1  0.01279407  0.63115989  0.49905601  1
  O  O306  1  0.49656529  0.11325541  -0.00166008  1
  O  O307  1  0.49391680  0.10881458  0.48774082  1
  O  O308  1  0.51101185  0.62385408  0.01351848  1
  O  O309  1  0.50845354  0.61793291  0.50505750  1
  O  O310  1  0.50058661  0.38257006  0.49560688  1
  O  O311  1  0.48292710  0.37123528  1.00235630  1
  O  O312  1  0.49448174  0.87730043  0.48857045  1
  O  O313  1  0.49386332  0.87561377  0.98984362  1
  O  O314  1  0.97982705  0.34049729  0.50734664  1
  O  O315  1  0.99220093  0.37172997  0.99228996  1
  O  O316  1  0.98966696  0.88942406  0.50735238  1
  O  O317  1  1.00237198  0.88258991  0.98930642  1
  O  O318  1  0.49833169  0.49270345  0.38248923  1
  O  O319  1  0.47857226  0.49650430  0.86481263  1
  O  O320  1  0.50779756  0.97994600  0.38330146  1
  O  O321  1  0.49861319  0.98476515  0.88798505  1
  O  O322  1  0.99027820  0.49514995  0.37723376  1
  O  O323  1  0.99372869  0.48721065  0.87617401  1
  O  O324  1  1.00269354  1.01213449  0.39168413  1
  O  O325  1  0.99650545  0.99270376  0.88301606  1
  O  O326  1  0.00467857  0.00226354  0.11315369  1
  O  O327  1  0.00134793  0.01164256  0.63006791  1
  O  O328  1  0.01082240  0.49264561  0.12522804  1
  O  O329  1  0.01545819  0.49267909  0.63134296  1
  O  O330  1  0.50743542  -0.00937711  0.10589171  1
  O  O331  1  0.50844672  -0.01043979  0.59630597  1
  O  O332  1  0.49789574  0.50122264  0.12188145  1
  O  O333  1  0.50478331  0.50911014  0.61937661  1
  O  O334  1  0.24199583  0.37557514  0.24523992  1
  O  O335  1  0.24754773  0.38413727  0.74030287  1
  O  O336  1  0.23740476  0.87744039  0.23809315  1
  O  O337  1  0.24157890  0.86823405  0.73806905  1
  O  O338  1  0.75081434  0.37841953  0.23460031  1
  O  O339  1  0.73051891  0.38393676  0.74590857  1
  O  O340  1  0.73689508  0.88141916  0.25093005  1
  O  O341  1  0.75348739  0.87188110  0.73579561  1
  O  O342  1  0.24387904  0.12183424  0.25689697  1
  O  O343  1  0.25919401  0.12298181  0.76350659  1
  O  O344  1  0.25785179  0.61812405  0.25663993  1
  O  O345  1  0.24663397  0.61591094  0.74431592  1
  O  O346  1  0.76106890  0.11768982  0.24537819  1
  O  O347  1  0.75503343  0.10974717  0.74459525  1
  O  O348  1  0.74691361  0.61022745  0.24650184  1
  O  O349  1  0.73636420  0.61202254  0.74802800  1
  O  O350  1  0.35222788  0.12674102  0.36587482  1
  O  O351  1  0.36061309  0.12325784  0.87055219  1
  O  O352  1  0.37335123  0.62048358  0.36872450  1
  O  O353  1  0.37463456  0.61494439  0.88681984  1
  O  O354  1  0.87630283  0.13685347  0.36391359  1
  O  O355  1  0.87461130  0.10419272  0.87220213  1
  O  O356  1  0.87786396  0.60971219  0.36922709  1
  O  O357  1  0.88064356  0.63012242  0.87094269  1
  O  O358  1  0.13120745  0.38233738  0.13347063  1
  O  O359  1  0.13629810  0.38701640  0.63401216  1
  O  O360  1  0.13137329  0.87855214  0.12990826  1
  O  O361  1  0.13462513  0.87414079  0.63280795  1
  O  O362  1  0.64053278  0.37374767  0.12254450  1
  O  O363  1  0.61443156  0.38523747  0.63300639  1
  O  O364  1  0.61946262  0.86375041  0.13809153  1
  O  O365  1  0.64485587  0.86677423  0.61659746  1
  O  O366  1  0.11533586  0.25785663  0.24358561  1
  O  O367  1  0.13633501  0.26522949  0.74938504  1
  O  O368  1  0.11855495  0.75453419  0.25639483  1
  O  O369  1  0.11383657  0.75825635  0.75406018  1
  O  O370  1  0.61425196  0.25148867  0.25988260  1
  O  O371  1  0.61683934  0.26329178  0.74673107  1
  O  O372  1  0.63021926  0.75989494  0.26166612  1
  O  O373  1  0.61178039  0.75321829  0.74482741  1
  O  O374  1  0.38771220  0.25376299  0.25122820  1
  O  O375  1  0.37862670  0.25350862  0.74901639  1
  O  O376  1  0.37202632  0.73290203  0.23984303  1
  O  O377  1  0.38052058  0.75210715  0.73521138  1
  O  O378  1  0.87973460  0.24331846  0.24156498  1
  O  O379  1  0.86464467  0.21709576  0.77582791  1
  O  O380  1  0.88870961  0.75222466  0.24382889  1
  O  O381  1  0.88775179  0.75309012  0.74010749  1
  O  O382  1  0.38691416  0.50257527  0.49630454  1
  O  O383  1  0.36331713  0.48971170  0.98866273  1
  O  O384  1  0.38593834  0.98660101  0.49671672  1
  O  O385  1  0.38537884  0.98833446  1.00528740  1
  O  O386  1  0.86954469  0.50133506  0.48914962  1
  O  O387  1  0.87520693  0.49033067  1.00276743  1
  O  O388  1  0.88552599  0.98990697  0.50192353  1
  O  O389  1  0.88186586  0.99703908  0.99306846  1
  O  O390  1  0.11567815  0.00607826  0.00548641  1
  O  O391  1  0.10622521  -0.00515519  0.50982186  1
  O  O392  1  0.12148545  0.50706298  0.00967490  1
  O  O393  1  0.12816494  0.50586846  0.51517431  1
  O  O394  1  0.61559149  0.01302938  -0.00305586  1
  O  O395  1  0.62116138  0.01695985  0.48413707  1
  O  O396  1  0.63624587  0.51025956  0.00231896  1
  O  O397  1  0.61701348  0.50416942  0.50351154  1
  O  O398  1  0.36313232  0.37682353  0.11367183  1
  O  O399  1  0.36304429  0.38305397  0.62712543  1
  O  O400  1  0.37018226  0.86539493  0.11765596  1
  O  O401  1  0.36632569  0.86377135  0.61153047  1
  O  O402  1  0.86864526  0.36590351  0.11573863  1
  O  O403  1  0.88904230  0.33348207  0.70353465  1
  O  O404  1  0.88537721  0.85560297  0.12348244  1
  O  O405  1  0.86627653  0.86748479  0.61717843  1
  O  O406  1  0.13893634  0.12701820  0.37405248  1
  O  O407  1  0.13484758  0.11864693  0.88286912  1
  O  O408  1  0.13100675  0.63123634  0.38479416  1
  O  O409  1  0.12042979  0.63494656  0.88278143  1
  O  O410  1  0.62655935  0.13698564  0.37692928  1
  O  O411  1  0.61922139  0.13556525  0.89803056  1
  O  O412  1  0.61545502  0.63934977  0.38018437  1
  O  O413  1  0.61314542  0.61943483  0.89057938  1
