# generated using pymatgen
data_V79Zn79O256
_symmetry_space_group_name_H-M   'P 1'
_cell_length_a   16.90062823
_cell_length_b   16.89113407
_cell_length_c   16.91416718
_cell_angle_alpha   90.28799645
_cell_angle_beta   89.70592586
_cell_angle_gamma   89.95355404
_symmetry_Int_Tables_number   1
_chemical_formula_structural   V79Zn79O256
_chemical_formula_sum   'V79 Zn79 O256'
_cell_volume   4828.37416735
_cell_formula_units_Z   1
loop_
 _symmetry_equiv_pos_site_id
 _symmetry_equiv_pos_as_xyz
  1  'x, y, z'
loop_
 _atom_site_type_symbol
 _atom_site_label
 _atom_site_symmetry_multiplicity
 _atom_site_fract_x
 _atom_site_fract_y
 _atom_site_fract_z
 _atom_site_occupancy
  V  V0  1  0.37065434  -0.00759872  0.38743814  1
  V  V1  1  0.51796436  -0.00395082  0.50063065  1
  V  V2  1  0.37257342  0.49749857  0.87243980  1
  V  V3  1  0.87587234  -0.00056734  0.38980459  1
  V  V4  1  0.61672129  0.74772974  0.36700996  1
  V  V5  1  0.50249183  0.12274679  0.12683208  1
  V  V6  1  0.24252564  0.13908170  0.38277956  1
  V  V7  1  0.74773581  0.27289339  0.00982314  1
  V  V8  1  0.24528090  0.73898699  -0.00359025  1
  V  V9  1  0.12097127  0.50014641  0.11569579  1
  V  V10  1  0.86100245  0.62741505  0.76430918  1
  V  V11  1  -0.01861237  0.25332254  0.72746195  1
  V  V12  1  -0.00346497  0.74365928  0.25071511  1
  V  V13  1  0.50233492  0.25480818  0.25588358  1
  V  V14  1  0.37421197  0.12269532  0.25283817  1
  V  V15  1  0.36914145  0.37143169  0.49955804  1
  V  V16  1  0.10480111  0.24329392  0.87318712  1
  V  V17  1  0.11243118  0.00915270  0.11785003  1
  V  V18  1  0.00608574  0.36653215  0.37788087  1
  V  V19  1  0.36354006  0.00061134  0.87475342  1
  V  V20  1  0.63553842  0.49571681  0.63339906  1
  V  V21  1  0.38768295  0.73030664  0.13704963  1
  V  V22  1  0.49901819  0.62380704  0.62338151  1
  V  V23  1  0.74596759  0.87721067  0.62400145  1
  V  V24  1  0.37625275  0.75577871  0.62038455  1
  V  V25  1  0.75274069  0.49228806  0.24128435  1
  V  V26  1  0.87294649  0.49975173  0.88116499  1
  V  V27  1  0.74527396  0.12590650  0.38014536  1
  V  V28  1  0.88411444  -0.00252428  0.90107681  1
  V  V29  1  0.13702661  0.50646476  0.64033922  1
  V  V30  1  0.63721837  0.12290630  -0.00351326  1
  V  V31  1  -0.06271987  0.19133578  0.18276158  1
  V  V32  1  0.24709949  -0.00195085  0.25090322  1
  V  V33  1  0.38012033  0.49614997  0.37135460  1
  V  V34  1  0.75160875  0.75505024  0.49648497  1
  V  V35  1  0.24551527  0.87772109  0.63520515  1
  V  V36  1  0.89632567  0.38411852  0.00440469  1
  V  V37  1  0.51231969  0.12015354  0.62024274  1
  V  V38  1  0.00481459  0.75044808  0.74538838  1
  V  V39  1  0.61801389  0.87231384  0.25116818  1
  V  V40  1  0.50194149  0.75262405  0.75130161  1
  V  V41  1  0.36958413  0.61958272  0.75396877  1
  V  V42  1  0.62781233  0.37172680  0.25054169  1
  V  V43  1  0.25502576  0.62349043  0.37157533  1
  V  V44  1  0.75315775  0.62413960  0.36797298  1
  V  V45  1  0.63144059  0.62393132  0.00003187  1
  V  V46  1  0.62342387  0.50002453  0.12411056  1
  V  V47  1  0.25136737  0.23551617  -0.01491294  1
  V  V48  1  0.37473143  0.87046224  0.00505595  1
  V  V49  1  0.25259124  0.75617373  0.49949447  1
  V  V50  1  0.37397423  0.25019124  0.12376279  1
  V  V51  1  0.62693773  -0.00799565  0.12794450  1
  V  V52  1  0.12268828  0.74851563  0.37682655  1
  V  V53  1  0.49919449  -0.00126326  -0.00379804  1
  V  V54  1  0.25200328  0.50180537  0.24981287  1
  V  V55  1  0.62259853  0.89367868  0.74814763  1
  V  V56  1  0.63674151  0.35678171  0.74978493  1
  V  V57  1  -0.01738349  0.49274350  0.51693935  1
  V  V58  1  -0.00777498  0.87708394  0.38802514  1
  V  V59  1  0.38637252  0.37087727  -0.00690796  1
  V  V60  1  0.77026287  0.00861260  0.74664832  1
  V  V61  1  0.50187746  0.50445512  -0.00225704  1
  V  V62  1  0.62738705  0.62370295  0.49779350  1
  V  V63  1  0.50097758  0.48938698  0.49668630  1
  V  V64  1  0.12114872  0.87548976  0.25152993  1
  V  V65  1  0.87564467  0.74099363  0.62053427  1
  V  V66  1  0.11614212  0.13632235  0.50727191  1
  V  V67  1  0.75668930  -0.00003260  0.24609785  1
  V  V68  1  0.63255212  0.74535579  0.87130325  1
  V  V69  1  0.87813018  0.49474569  0.36978066  1
  V  V70  1  0.25394967  0.37576757  0.64154089  1
  V  V71  1  0.12169264  0.61587520  0.50204409  1
  V  V72  1  0.75004992  0.76624223  0.00068462  1
  V  V73  1  0.87019126  0.75919225  0.12023859  1
  V  V74  1  0.12894112  0.36360895  0.25449373  1
  V  V75  1  0.62022076  0.24891976  0.38765764  1
  V  V76  1  0.36800912  0.12844931  0.75231897  1
  V  V77  1  0.37332657  0.24389568  0.61997921  1
  V  V78  1  0.76344357  0.26749222  0.50260978  1
  Zn  Zn79  1  0.23334127  0.62022304  0.87781685  1
  Zn  Zn80  1  -0.02871568  0.11091673  0.62340738  1
  Zn  Zn81  1  0.50051909  0.87738012  0.87282849  1
  Zn  Zn82  1  0.48994177  0.86351057  0.37825398  1
  Zn  Zn83  1  0.87318664  0.62135395  0.23771599  1
  Zn  Zn84  1  0.76344951  0.13678942  0.86581659  1
  Zn  Zn85  1  0.24907268  0.37387666  0.12033302  1
  Zn  Zn86  1  0.23375032  0.01210037  0.76214829  1
  Zn  Zn87  1  0.10736324  0.38543989  0.76639146  1
  Zn  Zn88  1  0.10873663  0.00395522  0.62203630  1
  Zn  Zn89  1  0.24890673  0.86747956  0.12593067  1
  Zn  Zn90  1  0.61658087  0.26021923  0.87452458  1
  Zn  Zn91  1  0.00249436  0.61543197  0.12545727  1
  Zn  Zn92  1  0.11248297  0.88423597  0.75880784  1
  Zn  Zn93  1  0.00262196  0.87807849  0.89812466  1
  Zn  Zn94  1  0.18857344  0.18266756  0.18754185  1
  Zn  Zn95  1  0.18019117  0.19502020  0.69284904  1
  Zn  Zn96  1  0.19145556  0.68532135  0.17964057  1
  Zn  Zn97  1  0.19330971  0.68867147  0.68943727  1
  Zn  Zn98  1  0.69733654  0.18479639  0.18929817  1
  Zn  Zn99  1  0.80100447  0.19930269  0.68136224  1
  Zn  Zn100  1  0.68218734  0.68457718  0.18320374  1
  Zn  Zn101  1  0.68877885  0.68572893  0.68494671  1
  Zn  Zn102  1  0.31649088  0.31599855  0.31188814  1
  Zn  Zn103  1  0.32122797  0.31028383  0.81203397  1
  Zn  Zn104  1  0.31165345  0.80990827  0.30992259  1
  Zn  Zn105  1  0.31196411  0.81005376  0.81746233  1
  Zn  Zn106  1  0.81507415  0.31019698  0.31454939  1
  Zn  Zn107  1  0.80442494  0.31999603  0.82148761  1
  Zn  Zn108  1  0.80902792  0.81652214  0.30750672  1
  Zn  Zn109  1  0.81692019  0.82141035  0.81047530  1
  Zn  Zn110  1  0.19087559  0.43199841  0.44002524  1
  Zn  Zn111  1  0.19458194  0.42377886  0.93651083  1
  Zn  Zn112  1  0.17825890  0.94329618  0.44087798  1
  Zn  Zn113  1  0.18266532  0.92756953  0.93917555  1
  Zn  Zn114  1  0.68488319  0.43620214  0.43175491  1
  Zn  Zn115  1  0.68722381  0.44456714  0.91655490  1
  Zn  Zn116  1  0.68870901  0.93318323  0.42985711  1
  Zn  Zn117  1  0.69105945  0.93960187  0.92752995  1
  Zn  Zn118  1  0.30893199  0.05724957  0.06663084  1
  Zn  Zn119  1  0.30035266  0.06342711  0.56155760  1
  Zn  Zn120  1  0.31257983  0.55979139  0.06199892  1
  Zn  Zn121  1  0.31168342  0.56194035  0.55992612  1
  Zn  Zn122  1  0.82209093  0.05973671  0.06876656  1
  Zn  Zn123  1  0.79642518  0.06351619  0.55917084  1
  Zn  Zn124  1  0.81531817  0.56485192  0.05863052  1
  Zn  Zn125  1  0.82608375  0.54320500  0.57438113  1
  Zn  Zn126  1  0.44077744  0.43969568  0.18451075  1
  Zn  Zn127  1  0.44918049  0.43222311  0.69285928  1
  Zn  Zn128  1  0.43673707  0.93300891  0.19088149  1
  Zn  Zn129  1  0.43467750  0.94422772  0.68672558  1
  Zn  Zn130  1  0.95726082  0.39564565  0.17115378  1
  Zn  Zn131  1  0.93806963  0.44616037  0.69693708  1
  Zn  Zn132  1  0.93916025  0.93609311  0.18902986  1
  Zn  Zn133  1  0.93463872  0.93017610  0.66876329  1
  Zn  Zn134  1  0.05631852  0.07050613  0.31221680  1
  Zn  Zn135  1  0.05209232  0.06976416  0.80788743  1
  Zn  Zn136  1  0.06422785  0.55510303  0.31558724  1
  Zn  Zn137  1  0.04083493  0.56885604  0.80146375  1
  Zn  Zn138  1  0.56189432  0.06311837  0.31655119  1
  Zn  Zn139  1  0.55120021  0.09606273  0.81560320  1
  Zn  Zn140  1  0.56051313  0.56218528  0.30884670  1
  Zn  Zn141  1  0.55947153  0.56120277  0.81546263  1
  Zn  Zn142  1  0.43629710  0.18092108  0.44052004  1
  Zn  Zn143  1  0.44326945  0.18769491  0.93323678  1
  Zn  Zn144  1  0.43608025  0.68115162  0.43649311  1
  Zn  Zn145  1  0.43955531  0.68514596  0.94010164  1
  Zn  Zn146  1  0.93402162  0.18265468  0.43546490  1
  Zn  Zn147  1  0.93000755  0.18325362  0.96352786  1
  Zn  Zn148  1  0.93826093  0.67887168  0.43925916  1
  Zn  Zn149  1  0.95049478  0.70935179  0.93943299  1
  Zn  Zn150  1  0.05535315  0.27346114  0.05788544  1
  Zn  Zn151  1  0.07074061  0.31543230  0.56216023  1
  Zn  Zn152  1  0.06195039  0.81414299  0.06747988  1
  Zn  Zn153  1  0.06420799  0.81030667  0.56608236  1
  Zn  Zn154  1  0.56647210  0.31327374  0.06643368  1
  Zn  Zn155  1  0.56029371  0.31514091  0.59119766  1
  Zn  Zn156  1  0.56103125  0.81024610  0.06274197  1
  Zn  Zn157  1  0.56425281  0.81611198  0.55999072  1
  O  O158  1  0.12909146  0.10878349  0.12916924  1
  O  O159  1  0.12807936  0.12991875  0.61400251  1
  O  O160  1  0.12198603  0.60829134  0.12786943  1
  O  O161  1  0.14491287  0.61149378  0.61664079  1
  O  O162  1  0.61732314  0.11327264  0.12143452  1
  O  O163  1  0.60714794  0.12323463  0.62843025  1
  O  O164  1  0.62474528  0.61144033  0.11544325  1
  O  O165  1  0.61362144  0.62700298  0.61493113  1
  O  O166  1  0.37175469  0.38539978  0.38593817  1
  O  O167  1  0.37752429  0.38199275  0.88241232  1
  O  O168  1  0.37411311  0.88808270  0.36902033  1
  O  O169  1  0.37986492  0.88241046  0.88419035  1
  O  O170  1  0.89220719  0.38507037  0.36686958  1
  O  O171  1  0.86640910  0.39068175  0.89073877  1
  O  O172  1  0.87899278  0.88580807  0.36969673  1
  O  O173  1  0.88213585  0.89316267  0.86963675  1
  O  O174  1  0.25732589  0.00269273  0.36771634  1
  O  O175  1  0.26054380  -0.00468378  0.87978620  1
  O  O176  1  0.25844182  0.50551747  0.37042399  1
  O  O177  1  0.26694696  0.50401982  0.88350010  1
  O  O178  1  0.75618547  0.00416410  0.36782555  1
  O  O179  1  0.76572343  -0.00153150  0.86078694  1
  O  O180  1  0.75435788  0.50711930  0.36452570  1
  O  O181  1  0.76859239  0.51173396  0.87798802  1
  O  O182  1  0.24712448  0.49768665  0.13620934  1
  O  O183  1  0.24917519  0.48900033  0.62527911  1
  O  O184  1  0.24488083  0.99441620  0.14085119  1
  O  O185  1  0.25975691  0.97932261  0.62846656  1
  O  O186  1  0.74119857  0.50706742  0.13476220  1
  O  O187  1  0.72952788  0.52733530  0.62487776  1
  O  O188  1  0.73960074  1.00403625  0.13894832  1
  O  O189  1  0.74970665  0.98971532  0.63650428  1
  O  O190  1  0.01933373  0.38431798  0.26765856  1
  O  O191  1  -0.00531055  0.36258148  0.74610707  1
  O  O192  1  0.00505911  0.86348755  0.26012400  1
  O  O193  1  0.00072793  0.85722892  0.72599655  1
  O  O194  1  0.50719628  0.36129567  0.24419782  1
  O  O195  1  0.53190975  0.35937647  0.70640182  1
  O  O196  1  0.51254572  0.88212737  0.25923002  1
  O  O197  1  0.50480628  0.86653121  0.74573130  1
  O  O198  1  0.49638458  0.12951151  0.24172057  1
  O  O199  1  0.47755484  0.10427578  0.72561579  1
  O  O200  1  0.50392531  0.62001504  0.23603926  1
  O  O201  1  0.49500973  0.63428189  0.74005137  1
  O  O202  1  0.99838622  0.13820965  0.24403278  1
  O  O203  1  0.99426210  0.14787741  0.74039695  1
  O  O204  1  1.00006366  0.63609273  0.25687846  1
  O  O205  1  0.97963747  0.64215990  0.73849327  1
  O  O206  1  0.37803210  0.25087268  0.00504090  1
  O  O207  1  0.38067702  0.25992277  0.50701169  1
  O  O208  1  0.37276363  0.75523544  0.00667881  1
  O  O209  1  0.36633364  0.74121644  0.50955614  1
  O  O210  1  0.85513121  0.27683227  -0.00435040  1
  O  O211  1  0.86199282  0.25319313  0.48936788  1
  O  O212  1  0.85528583  0.74156444  0.00753253  1
  O  O213  1  0.86124738  0.73854282  0.50682467  1
  O  O214  1  0.13002155  0.23801264  0.50154964  1
  O  O215  1  0.14428266  0.25229397  0.98814464  1
  O  O216  1  0.13151080  0.73740341  0.49735488  1
  O  O217  1  0.14912580  0.75496268  1.01596297  1
  O  O218  1  0.61863154  0.26393890  0.48752714  1
  O  O219  1  0.62532596  0.23313699  1.00154787  1
  O  O220  1  0.62982821  0.74074722  0.49063217  1
  O  O221  1  0.63276378  0.74600993  0.99479746  1
  O  O222  1  0.49492990  0.23967585  0.13210579  1
  O  O223  1  0.48671781  0.22802782  0.61500434  1
  O  O224  1  0.48645333  0.75019639  0.11961825  1
  O  O225  1  0.49502597  0.74345439  0.62791008  1
  O  O226  1  0.99448525  0.28447474  0.15332049  1
  O  O227  1  0.99278684  0.25668771  0.62687298  1
  O  O228  1  0.99131468  0.74381011  0.13784031  1
  O  O229  1  0.97896039  0.74958379  0.61615586  1
  O  O230  1  -0.00297163  0.26845457  0.38296026  1
  O  O231  1  0.00528836  0.24360022  0.88833751  1
  O  O232  1  0.00135472  0.75464215  0.37109795  1
  O  O233  1  -0.01113352  0.76059893  0.84420347  1
  O  O234  1  0.50427884  0.23829199  0.36243657  1
  O  O235  1  0.52156104  0.20248719  0.85722390  1
  O  O236  1  0.51178033  0.74494232  0.38000020  1
  O  O237  1  0.50740901  0.75149732  0.86388312  1
  O  O238  1  0.25023028  0.13216267  0.48561352  1
  O  O239  1  0.26174613  0.13735345  1.00348832  1
  O  O240  1  0.24430411  0.63186913  0.49072508  1
  O  O241  1  0.25383801  0.63344498  0.99688600  1
  O  O242  1  0.74348240  0.13501915  0.48364541  1
  O  O243  1  0.73792705  0.12305273  1.01242820  1
  O  O244  1  0.73861893  0.63240664  0.48711107  1
  O  O245  1  0.73526024  0.63236187  1.00173000  1
  O  O246  1  0.26988139  0.35764991  0.00335446  1
  O  O247  1  0.26472872  0.37938480  0.51121166  1
  O  O248  1  0.26335196  0.86436137  0.00170951  1
  O  O249  1  0.24252894  0.86010096  0.50698101  1
  O  O250  1  0.72500305  0.36990290  0.00061076  1
  O  O251  1  0.75394008  0.36786552  0.48615731  1
  O  O252  1  0.74113723  0.86526799  0.00476265  1
  O  O253  1  0.73782631  0.86240213  0.50602990  1
  O  O254  1  0.13947704  0.49480827  0.24885297  1
  O  O255  1  0.12740141  0.50605511  0.74449723  1
  O  O256  1  0.12897019  0.99231447  0.25006673  1
  O  O257  1  0.12266990  1.00220668  0.74049252  1
  O  O258  1  0.63162649  0.49120222  0.24443070  1
  O  O259  1  0.61566442  0.50290176  0.73449790  1
  O  O260  1  0.62727797  0.99411582  0.24499133  1
  O  O261  1  0.61816675  0.99304508  0.76137642  1
  O  O262  1  0.36655354  0.00351029  0.25635575  1
  O  O263  1  0.36502448  0.00340821  0.75939070  1
  O  O264  1  0.36664041  0.48854378  0.25994555  1
  O  O265  1  0.38954994  0.50752891  0.75825874  1
  O  O266  1  0.85804038  -0.00855291  0.25095867  1
  O  O267  1  0.86889770  0.00093295  0.74376160  1
  O  O268  1  0.86569054  0.50222412  0.25662829  1
  O  O269  1  0.86878657  0.52228703  0.75266237  1
  O  O270  1  0.12030765  0.37871936  0.36740722  1
  O  O271  1  0.14038449  0.35229295  0.86966136  1
  O  O272  1  0.11583397  0.87092253  0.36917568  1
  O  O273  1  0.11351192  0.87624235  0.87106201  1
  O  O274  1  0.62301495  0.36610247  0.35905864  1
  O  O275  1  0.61669352  0.37793375  0.85443527  1
  O  O276  1  0.62089195  0.86230304  0.36862321  1
  O  O277  1  0.62122907  0.86558979  0.86494620  1
  O  O278  1  0.38483048  0.12889291  0.13050372  1
  O  O279  1  0.36710604  0.13208772  0.62788401  1
  O  O280  1  0.37736901  0.63057349  0.12413508  1
  O  O281  1  0.38199438  0.63054645  0.63102764  1
  O  O282  1  0.86718504  0.12791921  0.14184804  1
  O  O283  1  0.86306982  0.13350504  0.61264397  1
  O  O284  1  0.88656969  0.63355422  0.12066017  1
  O  O285  1  0.86211268  0.63908230  0.63331566  1
  O  O286  1  0.26532473  0.24647453  0.12073224  1
  O  O287  1  0.25913770  0.26559389  0.63089174  1
  O  O288  1  0.26670116  0.74856063  0.11669121  1
  O  O289  1  0.25815681  0.75575619  0.61838745  1
  O  O290  1  0.73846091  0.25204596  0.10890478  1
  O  O291  1  0.74225814  0.25442303  0.60061816  1
  O  O292  1  0.75948433  0.74708457  0.11696516  1
  O  O293  1  0.75096994  0.75399750  0.61302269  1
  O  O294  1  0.25502594  0.23657722  0.36647324  1
  O  O295  1  0.26441777  0.24214495  0.88524976  1
  O  O296  1  0.24573906  0.74305820  0.38097706  1
  O  O297  1  0.25396725  0.74342588  0.88980380  1
  O  O298  1  0.73939363  0.24434853  0.37864806  1
  O  O299  1  0.73914592  0.24774446  0.89404448  1
  O  O300  1  0.74177692  0.74374027  0.37787953  1
  O  O301  1  0.74249901  0.76058452  0.88731664  1
  O  O302  1  -0.01572845  0.18069175  0.06318049  1
  O  O303  1  0.01282225  0.12989727  0.49939527  1
  O  O304  1  0.05556204  0.63648698  -0.04605696  1
  O  O305  1  0.01094831  0.60886273  0.49961816  1
  O  O306  1  0.50887234  0.11538970  0.01101079  1
  O  O307  1  0.49309293  0.10754191  0.50848523  1
  O  O308  1  0.51332651  0.61497397  -0.00341948  1
  O  O309  1  0.50733999  0.61741405  0.50616057  1
  O  O310  1  0.49125950  0.38646565  0.51372441  1
  O  O311  1  0.49313368  0.37837632  1.00230993  1
  O  O312  1  0.50330490  0.88889759  0.49529530  1
  O  O313  1  0.49442745  0.88501660  0.99874807  1
  O  O314  1  1.01535272  0.38906249  0.48880929  1
  O  O315  1  0.99326517  0.36677969  1.00566092  1
  O  O316  1  1.00525050  0.86980502  0.48650048  1
  O  O317  1  0.98582166  0.81297914  0.99001430  1
  O  O318  1  0.49262169  0.50446641  0.38578901  1
  O  O319  1  0.49110576  0.50104000  0.88782198  1
  O  O320  1  0.48509261  1.00523517  0.38684519  1
  O  O321  1  0.49095586  1.00456887  0.88783290  1
  O  O322  1  0.99340254  0.49403329  0.38488091  1
  O  O323  1  0.97549838  0.49688167  0.85698363  1
  O  O324  1  0.98313999  0.99361569  0.36864898  1
  O  O325  1  0.98744967  1.00449567  0.88080875  1
  O  O326  1  0.01242250  -0.00453994  0.12951547  1
  O  O327  1  -0.00416581  0.00127755  0.61239983  1
  O  O328  1  0.01752611  0.49430761  0.13181443  1
  O  O329  1  0.03591384  0.49541533  0.62162478  1
  O  O330  1  0.50474887  0.00565046  0.11908075  1
  O  O331  1  0.49513533  0.00225059  0.60728034  1
  O  O332  1  0.51046752  0.49434000  0.11090225  1
  O  O333  1  0.50837903  0.51100561  0.61522992  1
  O  O334  1  0.24346826  0.38408165  0.25305216  1
  O  O335  1  0.25991422  0.37855017  0.74186810  1
  O  O336  1  0.23686029  0.88101529  0.25411507  1
  O  O337  1  0.24588389  0.86720378  0.73995677  1
  O  O338  1  0.74317551  0.38425662  0.25483847  1
  O  O339  1  0.73797464  0.38136487  0.74903401  1
  O  O340  1  0.73358272  0.89086011  0.25754356  1
  O  O341  1  0.74104386  0.88751571  0.74426411  1
  O  O342  1  0.25322889  0.11491478  0.26033461  1
  O  O343  1  0.26295474  0.12510624  0.74269980  1
  O  O344  1  0.24434298  0.61758646  0.26361592  1
  O  O345  1  0.26449982  0.63125684  0.75882307  1
  O  O346  1  0.74185116  0.10827040  0.26246171  1
  O  O347  1  0.75110232  0.11096874  0.74927345  1
  O  O348  1  0.74505045  0.61523405  0.25623452  1
  O  O349  1  0.76082527  0.64361471  0.75987490  1
  O  O350  1  0.36378889  0.11355653  0.37170431  1
  O  O351  1  0.37878656  0.11573615  0.85888934  1
  O  O352  1  0.36472638  0.61134562  0.38076458  1
  O  O353  1  0.38156756  0.61599470  0.86555897  1
  O  O354  1  0.86523308  0.10736218  0.37619000  1
  O  O355  1  0.87045274  0.10920546  0.89924704  1
  O  O356  1  0.86238300  0.62630923  0.36336489  1
  O  O357  1  0.88221286  0.62832444  0.86797329  1
  O  O358  1  0.13122439  0.38523132  0.14435862  1
  O  O359  1  0.14412380  0.38345484  0.63024919  1
  O  O360  1  0.12529842  0.87956186  0.14074859  1
  O  O361  1  0.14007920  0.87330242  0.62600875  1
  O  O362  1  0.62278074  0.38577338  0.13768606  1
  O  O363  1  0.64443643  0.39472165  0.61878882  1
  O  O364  1  0.61761365  0.88498893  0.13291387  1
  O  O365  1  0.63446914  0.86716459  0.63684465  1
  O  O366  1  0.13689931  0.26485731  0.24850557  1
  O  O367  1  0.10394653  0.25679818  0.75760373  1
  O  O368  1  0.11836194  0.75575672  0.25549898  1
  O  O369  1  0.10771595  0.74361367  0.73575327  1
  O  O370  1  0.61936705  0.25443686  0.25166679  1
  O  O371  1  0.64466582  0.25714331  0.74994589  1
  O  O372  1  0.63308441  0.75858759  0.25693815  1
  O  O373  1  0.61722916  0.75296732  0.75483274  1
  O  O374  1  0.38330104  0.24542395  0.24280753  1
  O  O375  1  0.37690410  0.23473939  0.74058389  1
  O  O376  1  0.37315106  0.75204038  0.23610125  1
  O  O377  1  0.38504481  0.74228957  0.74348099  1
  O  O378  1  0.87592517  0.24689116  0.24448843  1
  O  O379  1  0.87543370  0.25833891  0.74978010  1
  O  O380  1  0.87697034  0.74796575  0.23829069  1
  O  O381  1  0.87454014  0.74791497  0.73565258  1
  O  O382  1  0.38286835  0.49383786  0.49397367  1
  O  O383  1  0.38372490  0.49062529  0.99571167  1
  O  O384  1  0.36601903  0.99722209  0.48725291  1
  O  O385  1  0.38064140  0.99356894  0.99697422  1
  O  O386  1  0.87667889  0.52499271  0.47131436  1
  O  O387  1  0.88461724  0.50093236  0.98987549  1
  O  O388  1  0.86283032  0.99341844  0.48725649  1
  O  O389  1  0.87221436  0.98531482  1.00052641  1
  O  O390  1  0.13271640  -0.01062402  0.02126765  1
  O  O391  1  0.14051834  0.02177952  0.50958599  1
  O  O392  1  0.13867641  0.48502781  0.01841943  1
  O  O393  1  0.13129581  0.50785150  0.50642719  1
  O  O394  1  0.61977927  0.00301331  0.00856422  1
  O  O395  1  0.61674401  0.00202486  0.49108113  1
  O  O396  1  0.62102942  0.50512047  0.00241585  1
  O  O397  1  0.61907981  0.50804684  0.50208136  1
  O  O398  1  0.37799792  0.36264012  0.11740564  1
  O  O399  1  0.37004175  0.36811128  0.62210821  1
  O  O400  1  0.37433007  0.87302614  0.11488892  1
  O  O401  1  0.36670393  0.86089693  0.63141430  1
  O  O402  1  0.86784069  0.39770279  0.10168435  1
  O  O403  1  0.90566105  0.45917818  0.58840449  1
  O  O404  1  0.87888332  0.85800507  0.12638814  1
  O  O405  1  0.85350886  0.85759970  0.62574199  1
  O  O406  1  0.13710104  0.12059644  0.38255216  1
  O  O407  1  0.12713422  0.14451221  0.86406281  1
  O  O408  1  0.13333849  0.62745621  0.38399501  1
  O  O409  1  0.10123911  0.62365529  0.88994897  1
  O  O410  1  0.63031466  0.13746966  0.37059779  1
  O  O411  1  0.64046513  0.10571742  0.89527193  1
  O  O412  1  0.63197691  0.62819904  0.37930900  1
  O  O413  1  0.62068929  0.63853045  0.88048394  1
