# generated using pymatgen
data_V79Zn79O256
_symmetry_space_group_name_H-M   'P 1'
_cell_length_a   16.92588347
_cell_length_b   16.95048099
_cell_length_c   17.02462341
_cell_angle_alpha   90.18177451
_cell_angle_beta   89.83675109
_cell_angle_gamma   89.89739560
_symmetry_Int_Tables_number   1
_chemical_formula_structural   V79Zn79O256
_chemical_formula_sum   'V79 Zn79 O256'
_cell_volume   4884.34390538
_cell_formula_units_Z   1
loop_
 _symmetry_equiv_pos_site_id
 _symmetry_equiv_pos_as_xyz
  1  'x, y, z'
loop_
 _atom_site_type_symbol
 _atom_site_label
 _atom_site_symmetry_multiplicity
 _atom_site_fract_x
 _atom_site_fract_y
 _atom_site_fract_z
 _atom_site_occupancy
  V  V0  1  0.12971413  0.37011276  0.24900379  1
  V  V1  1  0.24861488  0.49514577  0.75039799  1
  V  V2  1  -0.01870070  0.87656356  0.37555286  1
  V  V3  1  0.74541295  0.37067790  0.65328315  1
  V  V4  1  0.89817967  0.00160858  0.87109745  1
  V  V5  1  -0.00416371  0.62287725  0.12574538  1
  V  V6  1  0.14542255  0.92922989  0.73791100  1
  V  V7  1  0.00505831  0.50233161  0.49973583  1
  V  V8  1  0.37572212  0.25571169  0.61806262  1
  V  V9  1  0.37280824  0.88781370  -0.00588487  1
  V  V10  1  0.49778514  0.62681997  0.62781438  1
  V  V11  1  0.38541207  0.62296643  0.24708137  1
  V  V12  1  0.75287327  0.49036609  0.23864492  1
  V  V13  1  0.63077571  0.49515312  0.64051061  1
  V  V14  1  -0.00292824  0.49662845  0.00223541  1
  V  V15  1  0.50405450  0.25181437  0.24888097  1
  V  V16  1  0.50157644  0.75257551  0.75686765  1
  V  V17  1  -0.00149189  0.23880443  0.74855367  1
  V  V18  1  0.36838898  0.25151892  0.12392011  1
  V  V19  1  0.38471393  0.87210465  0.48003505  1
  V  V20  1  0.37645869  0.49745213  0.87883868  1
  V  V21  1  0.49874321  0.11288763  0.11553630  1
  V  V22  1  -0.00432106  0.24324742  0.25199167  1
  V  V23  1  0.86445344  0.50410429  0.87109929  1
  V  V24  1  0.24997557  0.49886894  0.24931471  1
  V  V25  1  0.00089001  0.36911976  0.38065304  1
  V  V26  1  0.62309297  0.50424437  0.12754520  1
  V  V27  1  0.89276726  0.88572624  0.00926149  1
  V  V28  1  0.37418271  0.11908550  0.25916045  1
  V  V29  1  0.85115276  0.37859054  0.50325318  1
  V  V30  1  0.75250424  0.76526008  0.01093738  1
  V  V31  1  -0.00828855  0.74863159  0.24386259  1
  V  V32  1  0.87045513  0.37421811  0.00603872  1
  V  V33  1  0.50496367  0.37454906  0.87595823  1
  V  V34  1  0.49775120  0.89033101  0.87393665  1
  V  V35  1  0.12934319  0.13044457  -0.00538271  1
  V  V36  1  0.49944872  0.24907960  0.75607922  1
  V  V37  1  0.74355219  0.62939091  0.87343900  1
  V  V38  1  0.25255005  0.00103964  0.26344736  1
  V  V39  1  0.63674698  0.62842621  0.50781099  1
  V  V40  1  0.75391902  0.11759085  0.85927362  1
  V  V41  1  0.12545198  0.74775551  0.37304015  1
  V  V42  1  0.74588522  0.00583579  0.22629771  1
  V  V43  1  0.24967426  0.24823357  -0.01109422  1
  V  V44  1  0.12556993  0.62432579  0.50344007  1
  V  V45  1  0.11928803  0.00068895  0.12252113  1
  V  V46  1  0.49766716  0.37836361  0.37565056  1
  V  V47  1  0.87242839  0.24684240  0.12863970  1
  V  V48  1  0.38645617  0.74269412  0.12424889  1
  V  V49  1  0.37169448  0.62479083  0.75332651  1
  V  V50  1  0.09663311  0.01760034  0.58947907  1
  V  V51  1  0.12862332  0.23580565  0.38218925  1
  V  V52  1  0.12551356  0.36996856  0.75401535  1
  V  V53  1  0.25106065  0.75661325  0.49837287  1
  V  V54  1  -0.00168265  0.12296668  0.12386711  1
  V  V55  1  0.86970218  0.49981734  0.37346054  1
  V  V56  1  0.61675308  -0.02202509  0.64356829  1
  V  V57  1  0.76383041  0.86566815  0.64661701  1
  V  V58  1  0.25025950  0.62055096  0.87908841  1
  V  V59  1  0.62250464  0.11371822  0.00046073  1
  V  V60  1  0.24970090  0.87240109  0.12546513  1
  V  V61  1  0.36548126  0.11480231  0.75780933  1
  V  V62  1  0.50157496  0.50810201  0.00676343  1
  V  V63  1  0.51708023  0.13242588  0.61796528  1
  V  V64  1  0.11380924  0.74150796  0.87111394  1
  V  V65  1  0.74727003  0.25242564  0.00395328  1
  V  V66  1  0.78293782  0.75343900  0.51115480  1
  V  V67  1  0.37044556  0.37364638  0.00619581  1
  V  V68  1  0.50567449  -0.00966408  0.48422033  1
  V  V69  1  0.62843135  0.37411175  0.24732550  1
  V  V70  1  0.12643443  0.61993887  0.00603690  1
  V  V71  1  0.12778191  0.49037774  0.12780576  1
  V  V72  1  0.36865506  0.75599745  0.62663148  1
  V  V73  1  0.12236047  0.87450451  0.25132809  1
  V  V74  1  0.49373604  0.49399435  0.50593801  1
  V  V75  1  0.00218003  0.37344246  0.87328844  1
  V  V76  1  0.62673811  0.25377065  0.87072765  1
  V  V77  1  0.86876882  0.02789069  0.37249518  1
  V  V78  1  0.87500038  0.62143190  0.25013103  1
  Zn  Zn79  1  0.65028557  0.11682059  0.49325465  1
  Zn  Zn80  1  0.88164996  0.26649633  0.63314181  1
  Zn  Zn81  1  0.25174902  0.62401880  0.37215561  1
  Zn  Zn82  1  0.62298881  0.63454498  0.00933792  1
  Zn  Zn83  1  0.58179547  0.79216428  0.32201485  1
  Zn  Zn84  1  0.36900029  0.49669955  0.38876833  1
  Zn  Zn85  1  0.27000314  0.25420081  0.48318441  1
  Zn  Zn86  1  0.24822668  0.75332672  -0.00116528  1
  Zn  Zn87  1  0.71166656  0.14675782  0.34192132  1
  Zn  Zn88  1  0.87323221  0.65294337  0.73552952  1
  Zn  Zn89  1  0.25450263  0.37743502  0.60881088  1
  Zn  Zn90  1  0.12579645  0.49938153  0.62894442  1
  Zn  Zn91  1  0.62220174  0.75778589  0.87935637  1
  Zn  Zn92  1  0.00070825  0.66435187  0.63955520  1
  Zn  Zn93  1  0.71380435  0.65939595  0.34743866  1
  Zn  Zn94  1  0.18847537  0.18544393  0.18900215  1
  Zn  Zn95  1  0.20620607  0.13601355  0.64802199  1
  Zn  Zn96  1  0.18786674  0.68450840  0.18756002  1
  Zn  Zn97  1  0.16054367  0.76871090  0.67315669  1
  Zn  Zn98  1  0.68369136  0.18678434  0.17787600  1
  Zn  Zn99  1  0.72536182  0.15496207  0.64882199  1
  Zn  Zn100  1  0.68902355  0.68955189  0.18102994  1
  Zn  Zn101  1  0.68677696  0.69096734  0.69091351  1
  Zn  Zn102  1  0.31511839  0.31197277  0.31048296  1
  Zn  Zn103  1  0.31534230  0.30861146  0.81174815  1
  Zn  Zn104  1  0.31290707  0.80816216  0.30761844  1
  Zn  Zn105  1  0.30172979  0.81433916  0.81138370  1
  Zn  Zn106  1  0.80848980  0.30678071  0.31863594  1
  Zn  Zn107  1  0.81845160  0.30678598  0.81976871  1
  Zn  Zn108  1  0.78712036  0.80590238  0.30476964  1
  Zn  Zn109  1  0.81248263  0.82616064  0.81882419  1
  Zn  Zn110  1  0.19060974  0.43047122  0.43432598  1
  Zn  Zn111  1  0.18834795  0.43338132  0.93945441  1
  Zn  Zn112  1  0.19827218  1.06559022  0.45718535  1
  Zn  Zn113  1  0.17088565  0.93573260  0.93563059  1
  Zn  Zn114  1  0.67267387  0.45671703  0.42966205  1
  Zn  Zn115  1  0.68558190  0.43841034  0.94231074  1
  Zn  Zn116  1  0.68363606  0.94509080  0.35802442  1
  Zn  Zn117  1  0.68617632  0.93772718  0.92997820  1
  Zn  Zn118  1  0.30651073  0.06382417  0.06954136  1
  Zn  Zn119  1  0.35234252  0.08291673  0.53946994  1
  Zn  Zn120  1  0.31240299  0.55696076  0.06694973  1
  Zn  Zn121  1  0.30744510  0.56915096  0.56526334  1
  Zn  Zn122  1  0.81296846  0.06299180  0.05463051  1
  Zn  Zn123  1  0.78600984  0.00657919  0.53218355  1
  Zn  Zn124  1  0.80850631  0.56836529  0.05859026  1
  Zn  Zn125  1  0.81935616  0.55943907  0.57488159  1
  Zn  Zn126  1  0.43976407  0.43788608  0.18730886  1
  Zn  Zn127  1  0.43858761  0.43596030  0.69160731  1
  Zn  Zn128  1  0.43894879  0.93357618  0.18773584  1
  Zn  Zn129  1  0.43562706  0.93764030  0.68544983  1
  Zn  Zn130  1  0.94122204  0.43069762  0.18866730  1
  Zn  Zn131  1  0.95678752  0.48273787  0.70459407  1
  Zn  Zn132  1  0.92667467  0.94301214  0.19640196  1
  Zn  Zn133  1  0.95064806  0.93704737  0.70259877  1
  Zn  Zn134  1  0.05757260  0.05870364  0.31430020  1
  Zn  Zn135  1  0.08593499  0.06352669  0.80926694  1
  Zn  Zn136  1  0.06085333  0.55951766  0.31504677  1
  Zn  Zn137  1  0.06147117  0.56947760  0.81466334  1
  Zn  Zn138  1  0.55904805  0.06399777  0.30749218  1
  Zn  Zn139  1  0.56345778  0.06502098  0.81040308  1
  Zn  Zn140  1  0.54459400  0.59265238  0.33726703  1
  Zn  Zn141  1  0.56010970  0.56414922  0.81759733  1
  Zn  Zn142  1  0.50703077  0.18558006  0.43925245  1
  Zn  Zn143  1  0.43336066  0.18284072  0.93593112  1
  Zn  Zn144  1  0.44455812  0.69187482  0.43686487  1
  Zn  Zn145  1  0.43325547  0.69195414  0.94081113  1
  Zn  Zn146  1  0.82420752  0.18609764  0.46538688  1
  Zn  Zn147  1  0.93921031  0.18506045  0.93713973  1
  Zn  Zn148  1  0.93933115  0.68814395  0.43403796  1
  Zn  Zn149  1  0.90965853  0.72297238  0.89830987  1
  Zn  Zn150  1  0.05952072  0.30886235  0.06196053  1
  Zn  Zn151  1  0.06980160  0.31054980  0.56812317  1
  Zn  Zn152  1  0.06098148  0.80731101  0.05996932  1
  Zn  Zn153  1  0.04373951  0.85942621  0.57521414  1
  Zn  Zn154  1  0.56128431  0.31398286  0.06481498  1
  Zn  Zn155  1  0.56709433  0.31210317  0.56493715  1
  Zn  Zn156  1  0.55916092  0.81849488  0.06005779  1
  Zn  Zn157  1  0.61531782  0.84511477  0.50780840  1
  O  O158  1  0.11837184  0.11699595  0.12448010  1
  O  O159  1  0.10011143  0.12149960  0.59723616  1
  O  O160  1  0.11774922  0.61099140  0.12384983  1
  O  O161  1  0.12351197  0.61677914  0.60447083  1
  O  O162  1  0.60973301  0.13009612  0.10961645  1
  O  O163  1  0.62032948  0.10148294  0.63675377  1
  O  O164  1  0.62813069  0.61033182  0.12672671  1
  O  O165  1  0.61826057  0.61396251  0.62519062  1
  O  O166  1  0.39095751  0.38195112  0.36284824  1
  O  O167  1  0.38382532  0.37823505  0.88742188  1
  O  O168  1  0.38592355  0.85766493  0.38085204  1
  O  O169  1  0.36984925  0.87142564  0.88963511  1
  O  O170  1  0.88152127  0.37971673  0.38665650  1
  O  O171  1  0.87831529  0.38439156  0.88889915  1
  O  O172  1  0.88484001  0.85766212  0.35913164  1
  O  O173  1  0.87234624  0.89596248  0.88851309  1
  O  O174  1  0.24195548  0.00346336  0.36063502  1
  O  O175  1  0.17104322  -0.02131213  0.83177836  1
  O  O176  1  0.25311150  0.49988951  0.36129238  1
  O  O177  1  0.25691902  0.50243800  0.87297777  1
  O  O178  1  0.75749539  0.03305597  0.37791588  1
  O  O179  1  0.74128986  0.01764822  0.87032781  1
  O  O180  1  0.76470882  0.49505872  0.36338058  1
  O  O181  1  0.75662731  0.51182676  0.88984264  1
  O  O182  1  0.23513743  0.49946501  0.13299883  1
  O  O183  1  0.25237132  0.49882823  0.64034857  1
  O  O184  1  0.24078393  0.98852495  0.13488397  1
  O  O185  1  0.24463231  1.05483135  0.57163977  1
  O  O186  1  0.74547431  0.49886067  0.13285994  1
  O  O187  1  0.73547986  0.49438195  0.62976625  1
  O  O188  1  0.74920503  1.00199412  0.12715351  1
  O  O189  1  0.73074669  0.97339816  0.62519907  1
  O  O190  1  0.00714828  0.36606180  0.25969192  1
  O  O191  1  0.00883934  0.38810721  0.76050070  1
  O  O192  1  0.00364236  0.86357335  0.24577041  1
  O  O193  1  0.05019921  0.89844819  0.75349566  1
  O  O194  1  0.50662652  0.36993414  0.25322817  1
  O  O195  1  0.49404901  0.36729250  0.76968661  1
  O  O196  1  0.53020409  0.86433398  0.22052504  1
  O  O197  1  0.48085249  0.86469290  0.76781204  1
  O  O198  1  0.49236617  0.13058735  0.23410750  1
  O  O199  1  0.50168045  0.13630048  0.74352393  1
  O  O200  1  0.48229897  0.60476815  0.23820115  1
  O  O201  1  0.48993802  0.62913893  0.74876244  1
  O  O202  1  1.00445841  0.13592717  0.23958952  1
  O  O203  1  1.01081933  0.14197020  0.76016370  1
  O  O204  1  0.99560668  0.62736696  0.24317620  1
  O  O205  1  0.98964507  0.59246288  0.73466432  1
  O  O206  1  0.36984427  0.25481019  0.00560672  1
  O  O207  1  0.39875782  0.25154154  0.52100029  1
  O  O208  1  0.36596275  0.75357751  0.01386169  1
  O  O209  1  0.37404657  0.75031495  0.50573262  1
  O  O210  1  0.86820131  0.25568671  0.00553961  1
  O  O211  1  0.87739949  0.27771431  0.51447597  1
  O  O212  1  0.86195062  0.77351951  -0.00910490  1
  O  O213  1  0.88268737  0.74760529  0.51494955  1
  O  O214  1  0.12180508  0.25237976  0.48133237  1
  O  O215  1  0.13703076  0.24083925  1.01314574  1
  O  O216  1  0.13508586  0.74203542  0.48443061  1
  O  O217  1  0.13162398  0.72757298  1.00974755  1
  O  O218  1  0.57592102  0.20194393  0.53492166  1
  O  O219  1  0.63186791  0.24792833  0.99397167  1
  O  O220  1  0.61884171  0.72585243  0.50581994  1
  O  O221  1  0.63218619  0.75211086  1.00116429  1
  O  O222  1  0.49009738  0.24582960  0.13248544  1
  O  O223  1  0.49844754  0.25404075  0.64554632  1
  O  O224  1  0.48442910  0.74389212  0.11732010  1
  O  O225  1  0.48883293  0.73377586  0.63829025  1
  O  O226  1  0.99302260  0.24344910  0.13370828  1
  O  O227  1  1.00097022  0.26093761  0.64458160  1
  O  O228  1  1.00673723  0.73487904  0.13474754  1
  O  O229  1  1.05481835  0.76200344  0.62747983  1
  O  O230  1  0.01213005  0.25665890  0.36375876  1
  O  O231  1  -0.01056578  0.26592358  0.86635383  1
  O  O232  1  0.00645372  0.75366626  0.35990939  1
  O  O233  1  0.01952765  0.72020715  0.89699950  1
  O  O234  1  0.49531172  0.26244355  0.35651261  1
  O  O235  1  0.50689441  0.25604963  0.87575286  1
  O  O236  1  0.52023128  0.70517879  0.35797114  1
  O  O237  1  0.49650388  0.75365251  0.86915864  1
  O  O238  1  0.28111343  0.14199222  0.46957172  1
  O  O239  1  0.23900732  0.13323926  1.00827656  1
  O  O240  1  0.24397033  0.63171959  0.49133929  1
  O  O241  1  0.24167059  0.61345804  0.99450000  1
  O  O242  1  0.75700648  0.12174466  0.53831625  1
  O  O243  1  0.73563244  0.13371660  0.99653565  1
  O  O244  1  0.74193609  0.63420348  0.52193388  1
  O  O245  1  0.74917609  0.64002346  0.99300648  1
  O  O246  1  0.26286841  0.36800817  -0.00118714  1
  O  O247  1  0.25581046  0.36606640  0.49639255  1
  O  O248  1  0.25575131  0.87593972  0.00987135  1
  O  O249  1  0.27085990  0.85676450  0.49265760  1
  O  O250  1  0.75880887  0.36352716  -0.00555168  1
  O  O251  1  0.75309693  0.38549442  0.49100105  1
  O  O252  1  0.74201634  0.86709307  -0.00216977  1
  O  O253  1  0.75404320  0.85390065  0.52032704  1
  O  O254  1  0.12854419  0.49077957  0.24598152  1
  O  O255  1  0.13622773  0.49372907  0.75285837  1
  O  O256  1  0.13080539  0.99179811  0.24225844  1
  O  O257  1  0.13578200  1.03268565  0.70425470  1
  O  O258  1  0.63750234  0.49364385  0.24248701  1
  O  O259  1  0.61637579  0.50225594  0.73862575  1
  O  O260  1  0.64212257  1.00633428  0.25858921  1
  O  O261  1  0.61416654  0.98549723  0.74273743  1
  O  O262  1  0.36995492  0.00934023  0.24328595  1
  O  O263  1  0.37361391  0.01572944  0.73773196  1
  O  O264  1  0.36196227  0.50895254  0.23572795  1
  O  O265  1  0.36954340  0.50332195  0.75991363  1
  O  O266  1  0.85901201  0.00988620  0.25976343  1
  O  O267  1  0.88280815  -0.00192523  0.77148027  1
  O  O268  1  0.87263060  0.49836944  0.25438282  1
  O  O269  1  0.86343852  0.49067345  0.77318830  1
  O  O270  1  0.11648937  0.36841946  0.36334222  1
  O  O271  1  0.11123687  0.38486922  0.87106304  1
  O  O272  1  0.11149413  0.86480426  0.35586309  1
  O  O273  1  0.12843673  0.83745706  0.89804649  1
  O  O274  1  0.61162484  0.38642590  0.35789462  1
  O  O275  1  0.61511587  0.36730829  0.88595009  1
  O  O276  1  0.62249095  0.86499408  0.39758813  1
  O  O277  1  0.60108771  0.87537916  0.88221439  1
  O  O278  1  0.38737545  0.13289396  0.12208690  1
  O  O279  1  0.39859558  0.14094587  0.63760296  1
  O  O280  1  0.36445792  0.63617667  0.13111645  1
  O  O281  1  0.38097641  0.62966368  0.63354559  1
  O  O282  1  0.88557925  0.13755057  0.11302323  1
  O  O283  1  0.90681866  0.12689675  0.61933215  1
  O  O284  1  0.88739187  0.61202880  0.13599507  1
  O  O285  1  0.88897489  0.62680999  0.62768206  1
  O  O286  1  0.26466764  0.24567151  0.12166184  1
  O  O287  1  0.27150530  0.24131029  0.61678016  1
  O  O288  1  0.25043170  0.76344229  0.12736429  1
  O  O289  1  0.25834237  0.74171285  0.61056585  1
  O  O290  1  0.75911248  0.24618951  0.11281247  1
  O  O291  1  0.75514164  0.26861646  0.63476967  1
  O  O292  1  0.75392104  0.74911990  0.10905947  1
  O  O293  1  0.75129680  0.75532355  0.62354456  1
  O  O294  1  0.23089200  0.25407864  0.36408869  1
  O  O295  1  0.25385531  0.25093685  0.89026082  1
  O  O296  1  0.23993571  0.74826131  0.37570584  1
  O  O297  1  0.24457400  0.72987718  0.88072907  1
  O  O298  1  0.75806447  0.23770729  0.38820585  1
  O  O299  1  0.74591441  0.24004095  0.88505843  1
  O  O300  1  0.77001831  0.73986445  0.40795669  1
  O  O301  1  0.74313384  0.74042612  0.88648573  1
  O  O302  1  0.01563027  0.13769185  0.01463448  1
  O  O303  1  -0.06611914  0.12050540  0.55128631  1
  O  O304  1  0.01039463  0.61201931  0.01465163  1
  O  O305  1  0.00959114  0.61413125  0.49066326  1
  O  O306  1  0.50897574  0.13017092  0.00660791  1
  O  O307  1  0.47325337  0.09622740  0.51124963  1
  O  O308  1  0.50114842  0.61118832  -0.00733861  1
  O  O309  1  0.50769965  0.61485534  0.51534677  1
  O  O310  1  0.51385433  0.38357124  0.48937262  1
  O  O311  1  0.49135107  0.38114119  0.99363432  1
  O  O312  1  0.49240446  0.87967875  0.50009269  1
  O  O313  1  0.48134647  0.87197542  0.98886051  1
  O  O314  1  1.00533307  0.38060816  0.48754159  1
  O  O315  1  0.99270337  0.37700356  0.99371589  1
  O  O316  1  0.99847647  0.86653114  0.47179144  1
  O  O317  1  0.99283286  0.87464010  1.00197142  1
  O  O318  1  0.49617733  0.49730035  0.38934820  1
  O  O319  1  0.49647422  0.49203502  0.88497199  1
  O  O320  1  0.50262928  0.99803194  0.38607643  1
  O  O321  1  0.49565352  0.98896011  0.86945937  1
  O  O322  1  0.99137223  0.48837434  0.37830137  1
  O  O323  1  0.98398835  0.49469073  0.88567603  1
  O  O324  1  0.98104309  0.98346750  0.35303222  1
  O  O325  1  0.99628242  1.01517889  0.87746385  1
  O  O326  1  0.00949121  0.01053177  0.13689644  1
  O  O327  1  0.00089003  -0.02218572  0.60716962  1
  O  O328  1  0.00848420  0.50299532  0.12390775  1
  O  O329  1  0.00671578  0.48585091  0.60150126  1
  O  O330  1  0.49526690  0.01496542  0.12394807  1
  O  O331  1  0.50836127  0.00477097  0.62362755  1
  O  O332  1  0.50774809  0.49603253  0.11496148  1
  O  O333  1  0.50582432  0.50446618  0.62561819  1
  O  O334  1  0.23831195  0.38249972  0.25157620  1
  O  O335  1  0.24221376  0.38349626  0.76184367  1
  O  O336  1  0.24301412  0.87995186  0.24429494  1
  O  O337  1  0.22143566  0.85302150  0.74123367  1
  O  O338  1  0.74268404  0.38003497  0.25486372  1
  O  O339  1  0.75177707  0.37490057  0.75095643  1
  O  O340  1  0.75088628  0.90441637  0.26193727  1
  O  O341  1  0.73518114  0.85890181  0.74301079  1
  O  O342  1  0.26637263  0.11649740  0.24124508  1
  O  O343  1  0.26801783  0.13652213  0.74408891  1
  O  O344  1  0.25216529  0.61284540  0.25012601  1
  O  O345  1  0.25556740  0.60937194  0.76665646  1
  O  O346  1  0.74829024  0.11835527  0.23779350  1
  O  O347  1  0.75019274  0.13432842  0.76164446  1
  O  O348  1  0.76368931  0.60835388  0.24962676  1
  O  O349  1  0.75222651  0.63304953  0.77021497  1
  O  O350  1  0.38754901  0.12723035  0.35351468  1
  O  O351  1  0.38214783  0.12295113  0.85844398  1
  O  O352  1  0.37342620  0.62005712  0.35557346  1
  O  O353  1  0.36759982  0.61755622  0.87533191  1
  O  O354  1  0.89141163  0.12344582  0.38723614  1
  O  O355  1  0.86049272  0.11441723  0.88642302  1
  O  O356  1  0.88519367  0.61077475  0.36192166  1
  O  O357  1  0.86295261  0.61035479  0.88291495  1
  O  O358  1  0.11333061  0.38146150  0.13682241  1
  O  O359  1  0.13582365  0.37839151  0.63866007  1
  O  O360  1  0.12858266  0.87969745  0.13126988  1
  O  O361  1  0.14238147  0.91527023  0.62335980  1
  O  O362  1  0.61983083  0.38619712  0.13749359  1
  O  O363  1  0.63642506  0.38329819  0.62699034  1
  O  O364  1  0.58682219  0.87062118  0.16184976  1
  O  O365  1  0.61355816  0.87775632  0.62003792  1
  O  O366  1  0.11686316  0.25475790  0.25153982  1
  O  O367  1  0.10967376  0.26901684  0.75702511  1
  O  O368  1  0.11714442  0.75415579  0.25246491  1
  O  O369  1  0.12158312  0.72430321  0.77336349  1
  O  O370  1  0.61444491  0.25910908  0.23835296  1
  O  O371  1  0.61591931  0.24899392  0.76934173  1
  O  O372  1  0.68083880  0.74641414  0.27587494  1
  O  O373  1  0.60469581  0.74311715  0.75491302  1
  O  O374  1  0.38074773  0.23944007  0.24107701  1
  O  O375  1  0.38720814  0.24330818  0.74996570  1
  O  O376  1  0.37236758  0.73582615  0.23645553  1
  O  O377  1  0.37457281  0.74301509  0.74485660  1
  O  O378  1  0.88423960  0.26048031  0.23900389  1
  O  O379  1  0.89082844  0.25397793  0.74952061  1
  O  O380  1  0.88197192  0.73297762  0.25351406  1
  O  O381  1  0.88838323  0.74861040  0.79015635  1
  O  O382  1  0.38845113  0.50613689  0.50697613  1
  O  O383  1  0.38157376  0.49174329  1.00013256  1
  O  O384  1  0.38326989  0.97423808  0.49712144  1
  O  O385  1  0.36763775  0.98593299  1.00802105  1
  O  O386  1  0.88163488  0.49267822  0.49159778  1
  O  O387  1  0.87789613  0.48998477  1.00137965  1
  O  O388  1  0.87243138  0.98573829  0.46602107  1
  O  O389  1  0.87576675  0.99336903  0.99140986  1
  O  O390  1  0.13329727  0.01405002  0.01464334  1
  O  O391  1  0.10945205  0.00259687  0.48941781  1
  O  O392  1  0.11960461  0.49967606  0.01039938  1
  O  O393  1  0.11984405  0.50861764  0.48742800  1
  O  O394  1  0.62552408  0.01600380  -0.00448073  1
  O  O395  1  0.60767326  0.00180849  0.50938686  1
  O  O396  1  0.61727136  0.49921399  0.01188264  1
  O  O397  1  0.61473134  0.50615360  0.52045590  1
  O  O398  1  0.38274338  0.36530060  0.11453030  1
  O  O399  1  0.37136465  0.36062508  0.63943338  1
  O  O400  1  0.36989446  0.86346631  0.11962004  1
  O  O401  1  0.38228548  0.85686310  0.61953588  1
  O  O402  1  0.88381580  0.36249771  0.11354495  1
  O  O403  1  0.85002076  0.39296710  0.61409508  1
  O  O404  1  0.87778430  0.88708764  0.10880360  1
  O  O405  1  0.86256660  0.87819734  0.64912297  1
  O  O406  1  0.12263616  0.13276226  0.37329336  1
  O  O407  1  0.12203012  0.12977558  0.89796369  1
  O  O408  1  0.12353362  0.63575216  0.37531365  1
  O  O409  1  0.13383204  0.61670133  0.89063591  1
  O  O410  1  0.60550689  0.13319426  0.38692399  1
  O  O411  1  0.63070635  0.13312212  0.88479062  1
  O  O412  1  0.64108449  0.59335175  0.40440600  1
  O  O413  1  0.63673714  0.62162411  0.88192538  1
