# generated using pymatgen
data_V79Zn79O256
_symmetry_space_group_name_H-M   'P 1'
_cell_length_a   16.89549143
_cell_length_b   16.96832727
_cell_length_c   16.92081732
_cell_angle_alpha   90.18864386
_cell_angle_beta   89.86976519
_cell_angle_gamma   89.80052364
_symmetry_Int_Tables_number   1
_chemical_formula_structural   V79Zn79O256
_chemical_formula_sum   'V79 Zn79 O256'
_cell_volume   4850.93078311
_cell_formula_units_Z   1
loop_
 _symmetry_equiv_pos_site_id
 _symmetry_equiv_pos_as_xyz
  1  'x, y, z'
loop_
 _atom_site_type_symbol
 _atom_site_label
 _atom_site_symmetry_multiplicity
 _atom_site_fract_x
 _atom_site_fract_y
 _atom_site_fract_z
 _atom_site_occupancy
  V  V0  1  0.88659473  0.87700455  0.49276213  1
  V  V1  1  0.23372791  0.12791259  0.87099574  1
  V  V2  1  0.12347875  0.74002781  0.37708173  1
  V  V3  1  -0.00295723  0.63044033  0.12595315  1
  V  V4  1  0.37619787  0.50880112  0.85846497  1
  V  V5  1  0.37083640  0.76841904  0.61741410  1
  V  V6  1  0.36933451  -0.01206851  0.38003296  1
  V  V7  1  0.63537519  0.87734261  0.24984867  1
  V  V8  1  0.01513885  0.00235879  0.00798821  1
  V  V9  1  0.63345726  0.25654687  0.36392354  1
  V  V10  1  0.87149067  0.86893165  0.00170339  1
  V  V11  1  0.49498526  0.88924477  0.87743953  1
  V  V12  1  0.88188420  0.10897806  0.25274093  1
  V  V13  1  0.62611266  0.48651166  0.63236593  1
  V  V14  1  0.50619281  0.36996154  0.36976747  1
  V  V15  1  0.75798637  0.49524977  0.76451220  1
  V  V16  1  0.62724203  0.00008793  0.62284027  1
  V  V17  1  0.25227837  -0.00804598  0.74675820  1
  V  V18  1  0.00452902  0.24211499  0.24583265  1
  V  V19  1  0.11649600  0.12409202  0.51747359  1
  V  V20  1  0.87184933  0.24297432  0.12036443  1
  V  V21  1  0.00100345  0.26242261  0.75731775  1
  V  V22  1  0.25122778  0.12235604  0.38090947  1
  V  V23  1  0.86874161  0.62161222  0.25130711  1
  V  V24  1  0.24673892  -0.00293162  0.25060584  1
  V  V25  1  0.88519188  0.38044783  -0.01364218  1
  V  V26  1  0.88390813  0.24576193  0.62331455  1
  V  V27  1  0.25520886  0.74640528  -0.00124848  1
  V  V28  1  0.37860790  0.12644264  0.76099607  1
  V  V29  1  0.87975174  0.12490130  0.74514088  1
  V  V30  1  0.75698600  0.11059439  0.37310213  1
  V  V31  1  0.12424311  0.62296202  -0.00145092  1
  V  V32  1  0.62866615  0.73863289  0.38775763  1
  V  V33  1  0.25449474  0.37299548  0.12164813  1
  V  V34  1  0.75505680  0.62085271  0.39962172  1
  V  V35  1  0.12715726  0.87124215  0.24836919  1
  V  V36  1  0.62010650  0.47776814  0.14350448  1
  V  V37  1  0.51263752  0.25285076  0.74901652  1
  V  V38  1  0.62257608  0.87611110  0.75021453  1
  V  V39  1  0.12777771  0.75179705  0.86287756  1
  V  V40  1  0.87638452  0.00227431  0.87652890  1
  V  V41  1  0.11844654  -0.01555269  0.63128462  1
  V  V42  1  0.37624797  0.50478990  0.37036727  1
  V  V43  1  0.37765140  0.89093282  -0.00136859  1
  V  V44  1  -0.01419375  0.74449905  0.74683369  1
  V  V45  1  0.00086824  0.37810234  0.37950905  1
  V  V46  1  0.62276602  0.00810474  0.10766952  1
  V  V47  1  0.25540010  0.62529318  0.85583973  1
  V  V48  1  0.50410657  0.50417495  0.49912909  1
  V  V49  1  0.24983931  0.76466559  0.49638299  1
  V  V50  1  0.25325706  0.24976255  0.50594027  1
  V  V51  1  0.60460012  0.59136691  0.02729008  1
  V  V52  1  -0.00463436  0.75119785  0.24930868  1
  V  V53  1  0.62925088  0.74712060  0.88061659  1
  V  V54  1  0.49996106  0.12613780  0.62075137  1
  V  V55  1  0.50028055  0.73359579  0.24624501  1
  V  V56  1  0.38060138  0.73382895  0.12697161  1
  V  V57  1  0.15410804  0.40643306  0.74353241  1
  V  V58  1  0.25118341  0.25655707  -0.00837336  1
  V  V59  1  0.00504093  0.61742489  0.61400357  1
  V  V60  1  0.63047224  0.25336936  0.89094991  1
  V  V61  1  0.00600494  0.87485320  0.86782945  1
  V  V62  1  0.49060290  0.74704303  0.74964955  1
  V  V63  1  0.37771106  0.38671143  -0.00250187  1
  V  V64  1  0.12631326  0.37264453  0.25004631  1
  V  V65  1  0.49475608  -0.00416709  0.49684779  1
  V  V66  1  0.11648692  0.50050367  0.12069270  1
  V  V67  1  0.37262959  0.37435502  0.50302594  1
  V  V68  1  0.74825433  0.86197271  0.61737984  1
  V  V69  1  0.74550879  0.12754826  0.88682157  1
  V  V70  1  0.75488272  0.25391669  0.50749080  1
  V  V71  1  0.24957445  0.87444975  0.12517522  1
  V  V72  1  0.49502384  0.62537111  0.62199440  1
  V  V73  1  0.49864822  0.87119175  0.37496122  1
  V  V74  1  0.50507307  0.38233054  0.87537428  1
  V  V75  1  0.87710332  0.38608675  0.50531962  1
  V  V76  1  0.62948249  0.12590949  0.49753702  1
  V  V77  1  0.37340231  0.25331959  0.62631340  1
  V  V78  1  0.25400965  0.50794411  0.24805856  1
  Zn  Zn79  1  0.75116958  0.00173558  0.74868833  1
  Zn  Zn80  1  0.86424252  0.74309364  0.62176442  1
  Zn  Zn81  1  0.86824160  0.52745235  0.88886482  1
  Zn  Zn82  1  0.75210256  0.49171191  0.25779670  1
  Zn  Zn83  1  0.24507449  0.61965147  0.38547581  1
  Zn  Zn84  1  0.77051662  0.71348777  -0.00230467  1
  Zn  Zn85  1  0.10719484  0.14274521  0.03368673  1
  Zn  Zn86  1  0.75191997  0.86432990  0.12232698  1
  Zn  Zn87  1  0.75783046  0.37352417  0.12561724  1
  Zn  Zn88  1  0.00384641  0.50658553  0.49943105  1
  Zn  Zn89  1  0.11183280  0.27279948  0.88006980  1
  Zn  Zn90  1  0.12732079  0.24710011  0.38126425  1
  Zn  Zn91  1  0.37505270  0.12345804  0.24576018  1
  Zn  Zn92  1  0.47969567  0.24327139  0.21981561  1
  Zn  Zn93  1  -0.00812254  0.88890200  0.37055684  1
  Zn  Zn94  1  0.20094673  0.19010124  0.18926106  1
  Zn  Zn95  1  0.18596827  0.19314226  0.69174770  1
  Zn  Zn96  1  0.18783743  0.68847578  0.18568378  1
  Zn  Zn97  1  0.18723308  0.69205778  0.67614842  1
  Zn  Zn98  1  0.69496215  0.17966163  0.18795158  1
  Zn  Zn99  1  0.69530803  0.18657895  0.68840821  1
  Zn  Zn100  1  0.68627243  0.68712022  0.17626140  1
  Zn  Zn101  1  0.67644933  0.67675951  0.69439265  1
  Zn  Zn102  1  0.31742827  0.30956553  0.31398510  1
  Zn  Zn103  1  0.31351741  0.31743777  0.81061417  1
  Zn  Zn104  1  0.31353085  0.80522834  0.31172848  1
  Zn  Zn105  1  0.31691635  0.81212353  0.81408978  1
  Zn  Zn106  1  0.81971596  0.30717646  0.31497252  1
  Zn  Zn107  1  0.80836803  0.31828958  0.80640876  1
  Zn  Zn108  1  0.81200535  0.80504984  0.32039087  1
  Zn  Zn109  1  0.80803912  0.81590922  0.81598443  1
  Zn  Zn110  1  0.19298381  0.43234885  0.43238067  1
  Zn  Zn111  1  0.18732448  0.44346841  0.92748441  1
  Zn  Zn112  1  0.15953556  0.94268364  0.43460600  1
  Zn  Zn113  1  0.19328043  0.93701283  0.92972124  1
  Zn  Zn114  1  0.69261008  0.43979896  0.44310708  1
  Zn  Zn115  1  0.69940398  0.43131000  0.94854429  1
  Zn  Zn116  1  0.68385105  0.93128539  0.43570508  1
  Zn  Zn117  1  0.68448170  0.94058194  0.93753119  1
  Zn  Zn118  1  0.27797931  0.06796906  0.06238543  1
  Zn  Zn119  1  0.31126414  0.06171068  0.56738822  1
  Zn  Zn120  1  0.31099288  0.55755450  0.05802649  1
  Zn  Zn121  1  0.31480660  0.57595809  0.55538225  1
  Zn  Zn122  1  0.80939610  0.05355821  0.07029825  1
  Zn  Zn123  1  0.81684794  0.06119652  0.55965401  1
  Zn  Zn124  1  0.81102960  0.55549223  0.05799641  1
  Zn  Zn125  1  0.80042552  0.57594986  0.60447297  1
  Zn  Zn126  1  0.43562317  0.42780504  0.19127158  1
  Zn  Zn127  1  0.44137873  0.43515698  0.68824104  1
  Zn  Zn128  1  0.43856433  0.93091717  0.18529522  1
  Zn  Zn129  1  0.43652822  0.94222591  0.69052768  1
  Zn  Zn130  1  0.91188992  0.41977474  0.20563019  1
  Zn  Zn131  1  0.93490965  0.44231170  0.68801620  1
  Zn  Zn132  1  0.94132731  0.93463732  0.18162358  1
  Zn  Zn133  1  0.93527698  0.93451657  0.68585810  1
  Zn  Zn134  1  0.06380744  0.05918805  0.32063109  1
  Zn  Zn135  1  0.06075114  0.06131419  0.80716269  1
  Zn  Zn136  1  0.06003156  0.55994197  0.30914596  1
  Zn  Zn137  1  0.05695156  0.56305063  0.81014313  1
  Zn  Zn138  1  0.54718267  0.05035048  0.26302265  1
  Zn  Zn139  1  0.56396315  0.06796822  0.81230445  1
  Zn  Zn140  1  0.56884431  0.55759674  0.31469611  1
  Zn  Zn141  1  0.56198433  0.56395264  0.80665212  1
  Zn  Zn142  1  0.46326115  0.16193832  0.39727642  1
  Zn  Zn143  1  0.43727972  0.19821732  0.94472897  1
  Zn  Zn144  1  0.43403457  0.68862925  0.43948880  1
  Zn  Zn145  1  0.44358655  0.68992180  0.93589157  1
  Zn  Zn146  1  0.94048266  0.18964545  0.43304013  1
  Zn  Zn147  1  0.93948203  0.18280454  0.93560153  1
  Zn  Zn148  1  0.93354040  0.69573934  0.44213575  1
  Zn  Zn149  1  0.93894115  0.67113585  0.93187751  1
  Zn  Zn150  1  0.05895432  0.31517352  0.06508205  1
  Zn  Zn151  1  0.06552733  0.31599591  0.57312413  1
  Zn  Zn152  1  0.06124097  0.81158245  0.05743554  1
  Zn  Zn153  1  0.06444593  0.80938434  0.56377118  1
  Zn  Zn154  1  0.56602144  0.31475527  0.06351708  1
  Zn  Zn155  1  0.56092788  0.31136171  0.55539918  1
  Zn  Zn156  1  0.56012431  0.81694571  0.06636391  1
  Zn  Zn157  1  0.56049213  0.81157501  0.56348602  1
  O  O158  1  0.18034044  0.11400540  0.10993938  1
  O  O159  1  0.12355335  0.12875676  0.61927715  1
  O  O160  1  0.12267321  0.61850935  0.11882929  1
  O  O161  1  0.10370384  0.64404693  0.62041093  1
  O  O162  1  0.63453236  0.10719385  0.12894967  1
  O  O163  1  0.62230325  0.11739675  0.61897887  1
  O  O164  1  0.61592131  0.60276429  0.13150445  1
  O  O165  1  0.60298577  0.61411442  0.62582279  1
  O  O166  1  0.38284617  0.37999403  0.38455832  1
  O  O167  1  0.38121957  0.39054719  0.87670687  1
  O  O168  1  0.38317038  0.88006650  0.37085456  1
  O  O169  1  0.37907248  0.87338691  0.89075953  1
  O  O170  1  0.89198713  0.36551927  0.39199370  1
  O  O171  1  0.86954473  0.37374397  0.88511547  1
  O  O172  1  0.87503995  0.87359449  0.38646938  1
  O  O173  1  0.88335692  0.88685276  0.87851665  1
  O  O174  1  0.25346599  0.00008748  0.37205821  1
  O  O175  1  0.24479234  0.01897183  0.86295769  1
  O  O176  1  0.25803651  0.49984222  0.36573146  1
  O  O177  1  0.26608078  0.51278246  0.87469886  1
  O  O178  1  0.74808007  0.01327684  0.38573395  1
  O  O179  1  0.75579255  0.01114329  0.87222687  1
  O  O180  1  0.74402344  0.51840342  0.37589523  1
  O  O181  1  0.74838674  0.50335709  0.86836840  1
  O  O182  1  0.24078779  0.49266614  0.12969672  1
  O  O183  1  0.20801277  0.50913875  0.57945148  1
  O  O184  1  0.26375333  0.98038005  0.13786079  1
  O  O185  1  0.24463013  1.00566317  0.64151202  1
  O  O186  1  0.74127743  0.49801919  0.12932236  1
  O  O187  1  0.72451830  0.48965760  0.60595892  1
  O  O188  1  0.73044919  0.98381164  0.11762385  1
  O  O189  1  0.73608308  0.99231828  0.62441790  1
  O  O190  1  0.00823871  0.36667080  0.25721158  1
  O  O191  1  -0.01090951  0.36171661  0.75164006  1
  O  O192  1  0.00939848  0.86776645  0.24778564  1
  O  O193  1  -0.00446903  0.86625369  0.76296839  1
  O  O194  1  0.49135273  0.35794221  0.26799062  1
  O  O195  1  0.49401999  0.36255965  0.76441513  1
  O  O196  1  0.50933339  0.86661162  0.26407750  1
  O  O197  1  0.50418894  0.87117377  0.75449697  1
  O  O198  1  0.48776467  0.14042856  0.28139799  1
  O  O199  1  0.49594372  0.13280394  0.74239392  1
  O  O200  1  0.50329822  0.63588628  0.25789491  1
  O  O201  1  0.49796365  0.64178314  0.74184840  1
  O  O202  1  0.99303142  0.12935904  0.26551922  1
  O  O203  1  0.98396801  0.13252321  0.75626417  1
  O  O204  1  0.99604551  0.63405304  0.24550629  1
  O  O205  1  1.00305956  0.64325633  0.73627983  1
  O  O206  1  0.35910660  0.27204122  -0.01532307  1
  O  O207  1  0.37031498  0.25586453  0.50980900  1
  O  O208  1  0.36697584  0.75211529  0.00547795  1
  O  O209  1  0.36840250  0.75809737  0.50694735  1
  O  O210  1  0.87890359  0.22738826  0.02093658  1
  O  O211  1  0.87265905  0.24988615  0.50771292  1
  O  O212  1  0.88401088  0.76971326  -0.01419416  1
  O  O213  1  0.87168935  0.76916292  0.50733950  1
  O  O214  1  0.13729338  0.24367969  0.50708776  1
  O  O215  1  0.13562875  0.25288194  0.99531022  1
  O  O216  1  0.13516384  0.75673706  0.48786689  1
  O  O217  1  0.13895234  0.74490074  0.99365618  1
  O  O218  1  0.63943980  0.24534243  0.50031054  1
  O  O219  1  0.62697074  0.24452134  0.98855804  1
  O  O220  1  0.61504122  0.74634872  0.48598645  1
  O  O221  1  0.60952298  0.76419620  0.97862306  1
  O  O222  1  0.49130929  0.24932715  0.11015784  1
  O  O223  1  0.49465295  0.24479571  0.62941969  1
  O  O224  1  0.49624044  0.75054335  0.13859990  1
  O  O225  1  0.49021404  0.74754351  0.62756754  1
  O  O226  1  1.00172819  0.24083890  0.13957841  1
  O  O227  1  0.98966200  0.24820951  0.63693942  1
  O  O228  1  1.00914001  0.74208339  0.13702921  1
  O  O229  1  0.99490381  0.76187967  0.64237430  1
  O  O230  1  0.00850026  0.25867268  0.36552269  1
  O  O231  1  -0.00339844  0.24626029  0.86146735  1
  O  O232  1  0.00874309  0.75447263  0.36595286  1
  O  O233  1  0.00796440  0.75368134  0.86482802  1
  O  O234  1  0.52502432  0.25784481  0.39081829  1
  O  O235  1  0.51507003  0.25091654  0.87049624  1
  O  O236  1  0.50516669  0.75171948  0.36794213  1
  O  O237  1  0.49978553  0.76537641  0.86338700  1
  O  O238  1  0.24566337  0.13258572  0.49967428  1
  O  O239  1  0.26241125  0.14020469  0.97372507  1
  O  O240  1  0.25402922  0.64988300  0.49665420  1
  O  O241  1  0.24408349  0.63421567  0.99534892  1
  O  O242  1  0.75211797  0.13405104  0.49120484  1
  O  O243  1  0.75690188  0.12030510  0.98475682  1
  O  O244  1  0.76056459  0.62174039  0.49721377  1
  O  O245  1  0.69037355  0.62634825  0.99300089  1
  O  O246  1  0.25327380  0.37589895  0.00179810  1
  O  O247  1  0.26218392  0.36203942  0.49392142  1
  O  O248  1  0.25825215  0.86602299  0.00408077  1
  O  O249  1  0.24337112  0.86441974  0.48553110  1
  O  O250  1  0.77487517  0.36906662  0.00866465  1
  O  O251  1  0.76859293  0.36565038  0.49191318  1
  O  O252  1  0.76942307  0.88145360  -0.01151528  1
  O  O253  1  0.74431535  0.87201032  0.51539262  1
  O  O254  1  0.13249824  0.48955434  0.24257924  1
  O  O255  1  0.13325580  0.50642141  0.75044119  1
  O  O256  1  0.14010549  0.98688023  0.25231109  1
  O  O257  1  0.13949132  1.00683813  0.74148898  1
  O  O258  1  0.63267561  0.49028946  0.24811453  1
  O  O259  1  0.63007269  0.50067780  0.73768096  1
  O  O260  1  0.63293843  0.97658193  0.27156299  1
  O  O261  1  0.62005696  0.99274672  0.73819295  1
  O  O262  1  0.36558874  -0.00169015  0.26087095  1
  O  O263  1  0.36371120  0.01483329  0.74341217  1
  O  O264  1  0.36494666  0.48828850  0.25939158  1
  O  O265  1  0.37860409  0.50268284  0.75921261  1
  O  O266  1  0.88973062  0.00986639  0.25361467  1
  O  O267  1  0.87570730  0.00597072  0.76016445  1
  O  O268  1  0.88709837  0.52208339  0.25834943  1
  O  O269  1  0.86322331  0.49721346  0.75853075  1
  O  O270  1  0.12379050  0.36929473  0.36500022  1
  O  O271  1  0.13209772  0.38171275  0.84911528  1
  O  O272  1  0.13514193  0.85465674  0.35525731  1
  O  O273  1  0.11747917  0.86280560  0.88237845  1
  O  O274  1  0.62375549  0.36476260  0.38026978  1
  O  O275  1  0.62146023  0.36109986  0.88295722  1
  O  O276  1  0.62163442  0.85656425  0.36884341  1
  O  O277  1  0.61640067  0.87301728  0.86461101  1
  O  O278  1  0.38685134  0.11890965  0.10288045  1
  O  O279  1  0.38221687  0.13482040  0.63218790  1
  O  O280  1  0.37126646  0.63511882  0.11900669  1
  O  O281  1  0.38595477  0.63896271  0.62116326  1
  O  O282  1  0.86950511  0.12500904  0.14554675  1
  O  O283  1  0.86901852  0.13221033  0.63344320  1
  O  O284  1  0.88912382  0.62231150  0.13822447  1
  O  O285  1  0.89465684  0.63409927  0.62233746  1
  O  O286  1  0.24630196  0.26829106  0.10991484  1
  O  O287  1  0.26361668  0.24434063  0.61983402  1
  O  O288  1  0.25966634  0.75530945  0.11902238  1
  O  O289  1  0.26170032  0.75616294  0.61314776  1
  O  O290  1  0.76930422  0.24951912  0.13713607  1
  O  O291  1  0.76108088  0.24782279  0.61447480  1
  O  O292  1  0.73531286  0.75360638  0.10066951  1
  O  O293  1  0.74117755  0.76061651  0.63459662  1
  O  O294  1  0.25264493  0.23925667  0.38805131  1
  O  O295  1  0.24355391  0.24626651  0.87419748  1
  O  O296  1  0.24658601  0.74417723  0.38060986  1
  O  O297  1  0.24849646  0.74501662  0.88084100  1
  O  O298  1  0.74548306  0.24943091  0.38436068  1
  O  O299  1  0.73898390  0.23998333  0.86819330  1
  O  O300  1  0.73580213  0.73720873  0.37724541  1
  O  O301  1  0.73365145  0.75704248  0.87923909  1
  O  O302  1  0.00772156  0.10863310  -0.00726593  1
  O  O303  1  0.01942184  0.13327572  0.49513979  1
  O  O304  1  0.01935730  0.64248916  0.01557175  1
  O  O305  1  -0.00139463  0.62439090  0.50599197  1
  O  O306  1  0.44892833  0.13879929  0.06131296  1
  O  O307  1  0.50826444  0.11381051  0.49816254  1
  O  O308  1  0.51470813  0.62553346  -0.00673850  1
  O  O309  1  0.49228234  0.61203250  0.50414741  1
  O  O310  1  0.49047044  0.38135322  0.48979199  1
  O  O311  1  0.49015013  0.36795775  0.98281903  1
  O  O312  1  0.51081341  0.88476296  0.48646353  1
  O  O313  1  0.48403493  0.87756006  0.99601228  1
  O  O314  1  0.99797359  0.37610944  0.49714875  1
  O  O315  1  0.98526702  0.34949953  0.99032883  1
  O  O316  1  0.98918861  0.87124838  0.50073771  1
  O  O317  1  0.99390239  0.88325059  0.98946152  1
  O  O318  1  0.49643400  0.49012753  0.37904376  1
  O  O319  1  0.49202887  0.49325415  0.86696109  1
  O  O320  1  0.48884011  0.99046186  0.37969002  1
  O  O321  1  0.50221606  0.98848165  0.86732397  1
  O  O322  1  1.01679278  0.48448481  0.38384217  1
  O  O323  1  0.97111781  0.57220873  0.87781049  1
  O  O324  1  1.05268205  0.97873190  0.39385925  1
  O  O325  1  0.99550131  0.99273696  0.87752901  1
  O  O326  1  0.00400209  -0.00492969  0.10700222  1
  O  O327  1  0.01813786  -0.00388831  0.63928432  1
  O  O328  1  0.01430232  0.51146405  0.13266441  1
  O  O329  1  0.00191584  0.51336093  0.62275172  1
  O  O330  1  0.52189341  0.00280547  0.15492741  1
  O  O331  1  0.50744746  0.00420281  0.61629277  1
  O  O332  1  0.51881100  0.47942457  0.13745109  1
  O  O333  1  0.49922579  0.50656385  0.61783338  1
  O  O334  1  0.24243999  0.38001532  0.24169068  1
  O  O335  1  0.25429348  0.38560157  0.74095556  1
  O  O336  1  0.24783425  0.87535840  0.24281922  1
  O  O337  1  0.25675152  0.89416969  0.76077644  1
  O  O338  1  0.79879941  0.38844476  0.24041364  1
  O  O339  1  0.74830200  0.39467462  0.74494952  1
  O  O340  1  0.73725942  0.85711795  0.24892791  1
  O  O341  1  0.73677403  0.88023347  0.74258393  1
  O  O342  1  0.25090748  0.11213817  0.26389622  1
  O  O343  1  0.25890836  0.13018745  0.76144739  1
  O  O344  1  0.24608542  0.60958915  0.24836485  1
  O  O345  1  0.25011255  0.63754501  0.75777595  1
  O  O346  1  0.76498880  0.12255817  0.26591768  1
  O  O347  1  0.76107198  0.12188026  0.75810650  1
  O  O348  1  0.76519107  0.62661647  0.24548161  1
  O  O349  1  0.75242998  0.59618886  0.71715330  1
  O  O350  1  0.36137286  0.10661443  0.38380219  1
  O  O351  1  0.38171129  0.13438006  0.86313263  1
  O  O352  1  0.37660114  0.60685515  0.37822248  1
  O  O353  1  0.37184865  0.61594790  0.87715346  1
  O  O354  1  0.86603091  0.12803022  0.36903698  1
  O  O355  1  0.86442632  0.11948153  0.86809740  1
  O  O356  1  0.85993564  0.63645078  0.36789753  1
  O  O357  1  0.83863858  0.62189587  0.96636316  1
  O  O358  1  0.12946929  0.38301650  0.13059684  1
  O  O359  1  0.11935510  0.37564043  0.65211384  1
  O  O360  1  0.13907156  0.86230650  0.13401034  1
  O  O361  1  0.12976973  0.88622858  0.62147406  1
  O  O362  1  0.63746712  0.37456062  0.12906738  1
  O  O363  1  0.60420552  0.38829543  0.62696296  1
  O  O364  1  0.61949112  0.88233723  0.14233140  1
  O  O365  1  0.62859787  0.88049981  0.63025558  1
  O  O366  1  0.12510158  0.25869793  0.24840286  1
  O  O367  1  0.10599369  0.24910176  0.75157516  1
  O  O368  1  0.11843754  0.75240169  0.25429140  1
  O  O369  1  0.12227590  0.75040319  0.76072505  1
  O  O370  1  0.63313295  0.24697775  0.26473036  1
  O  O371  1  0.61532982  0.24496025  0.75025653  1
  O  O372  1  0.61214331  0.75335037  0.25532001  1
  O  O373  1  0.61366863  0.76296549  0.75245531  1
  O  O374  1  0.36358548  0.23809277  0.24250950  1
  O  O375  1  0.38560197  0.24559579  0.74319163  1
  O  O376  1  0.39044556  0.75340027  0.24231895  1
  O  O377  1  0.38114788  0.76040694  0.73415141  1
  O  O378  1  0.88945823  0.23760891  0.24473725  1
  O  O379  1  0.87843512  0.24488566  0.74209344  1
  O  O380  1  0.88819004  0.74159220  0.25592606  1
  O  O381  1  0.88328843  0.75151927  0.75552786  1
  O  O382  1  0.37923488  0.49100844  0.49368495  1
  O  O383  1  0.37396451  0.49176313  0.98794508  1
  O  O384  1  0.38575783  1.00101443  0.49659564  1
  O  O385  1  0.35986175  0.98718611  1.00608869  1
  O  O386  1  0.87701185  0.48452493  0.50870540  1
  O  O387  1  0.89058336  0.48056107  1.00451555  1
  O  O388  1  0.86974757  0.97633736  0.51174387  1
  O  O389  1  0.88690383  0.99735238  0.98916484  1
  O  O390  1  0.11635149  -0.00651103  -0.00561835  1
  O  O391  1  0.13823692  0.01619571  0.52447561  1
  O  O392  1  0.13335951  0.51300923  0.00673845  1
  O  O393  1  0.15775990  0.50549530  0.51964489  1
  O  O394  1  0.61111096  -0.00487727  0.00804011  1
  O  O395  1  0.61732105  0.00398909  0.50522308  1
  O  O396  1  0.61947265  0.48737235  0.01640954  1
  O  O397  1  0.60779910  0.49192755  0.50522311  1
  O  O398  1  0.36270622  0.38656706  0.11245164  1
  O  O399  1  0.38514773  0.36473480  0.61455112  1
  O  O400  1  0.37163769  0.86307891  0.11377182  1
  O  O401  1  0.38286572  0.86721258  0.62051793  1
  O  O402  1  0.89013331  0.35026886  0.11396039  1
  O  O403  1  0.88347222  0.36385265  0.61077944  1
  O  O404  1  0.87383729  0.88096273  0.10651535  1
  O  O405  1  0.85521612  0.87209768  0.62776536  1
  O  O406  1  0.14071205  0.12487345  0.38933377  1
  O  O407  1  0.13271969  0.13159968  0.87223942  1
  O  O408  1  0.12559795  0.63585850  0.36687085  1
  O  O409  1  0.13726996  0.63404695  0.88198890  1
  O  O410  1  0.64409552  0.13967593  0.38106479  1
  O  O411  1  0.63706492  0.13335659  0.87201294  1
  O  O412  1  0.63658002  0.63206216  0.37449765  1
  O  O413  1  0.61595605  0.64990591  0.85761231  1
