# generated using pymatgen
data_V79Zn79O256
_symmetry_space_group_name_H-M   'P 1'
_cell_length_a   16.86684391
_cell_length_b   16.89838041
_cell_length_c   16.90044771
_cell_angle_alpha   90.09125095
_cell_angle_beta   89.93677087
_cell_angle_gamma   89.88710482
_symmetry_Int_Tables_number   1
_chemical_formula_structural   V79Zn79O256
_chemical_formula_sum   'V79 Zn79 O256'
_cell_volume   4816.98682233
_cell_formula_units_Z   1
loop_
 _symmetry_equiv_pos_site_id
 _symmetry_equiv_pos_as_xyz
  1  'x, y, z'
loop_
 _atom_site_type_symbol
 _atom_site_label
 _atom_site_symmetry_multiplicity
 _atom_site_fract_x
 _atom_site_fract_y
 _atom_site_fract_z
 _atom_site_occupancy
  V  V0  1  0.62840756  0.61699943  0.00729545  1
  V  V1  1  0.23755266  0.89173364  0.62018455  1
  V  V2  1  0.74474706  0.24618064  0.49921875  1
  V  V3  1  0.12058513  0.74657249  0.38135941  1
  V  V4  1  0.38197311  0.00227105  0.37541805  1
  V  V5  1  0.50349333  0.62627222  0.12763504  1
  V  V6  1  0.49981072  0.86096974  0.37531721  1
  V  V7  1  0.37584893  0.12799944  0.25081496  1
  V  V8  1  0.24718511  0.25603036  0.49203235  1
  V  V9  1  0.87065390  0.00508481  0.37075186  1
  V  V10  1  0.36818612  0.10836985  0.75161557  1
  V  V11  1  0.49704728  -0.00137647  -0.00040651  1
  V  V12  1  0.75162392  0.87646348  0.13563554  1
  V  V13  1  0.37573931  0.63406126  0.25087970  1
  V  V14  1  0.75352594  0.00617244  0.74887712  1
  V  V15  1  0.87450585  0.00418554  0.87870404  1
  V  V16  1  0.23626781  0.49718178  0.23653711  1
  V  V17  1  0.12015993  0.35280225  0.25424090  1
  V  V18  1  0.25322801  0.86823572  0.11610031  1
  V  V19  1  0.00581922  0.61890792  0.11851754  1
  V  V20  1  0.38008343  0.37462439  0.49538956  1
  V  V21  1  0.37838903  0.49653610  0.37207943  1
  V  V22  1  0.61534345  0.85758083  0.25079550  1
  V  V23  1  0.49957803  0.87919856  0.88063602  1
  V  V24  1  0.11970221  0.88670389  0.74188252  1
  V  V25  1  0.37232503  0.25249361  0.62861043  1
  V  V26  1  0.37236183  0.49074872  0.87302914  1
  V  V27  1  0.13365007  0.12944203  -0.00834001  1
  V  V28  1  0.50435074  0.12025771  0.61213411  1
  V  V29  1  0.75427952  0.13291147  0.87541898  1
  V  V30  1  0.75977129  0.62089033  0.87427726  1
  V  V31  1  0.63423477  0.13095163  0.00077623  1
  V  V32  1  0.75394118  0.75625814  0.00406173  1
  V  V33  1  0.74267459  0.61720362  0.37087761  1
  V  V34  1  0.37388067  0.88195246  0.49945360  1
  V  V35  1  0.00098853  -0.00142656  0.00523170  1
  V  V36  1  0.61017192  0.37607904  0.75372123  1
  V  V37  1  0.63429455  0.87783513  0.74985533  1
  V  V38  1  0.13899110  0.74913541  0.87407655  1
  V  V39  1  -0.00445087  0.87712017  0.37330409  1
  V  V40  1  -0.01539081  0.61703590  0.63480324  1
  V  V41  1  0.00387769  0.00144888  0.50291562  1
  V  V42  1  -0.00906784  0.49501077  0.50327872  1
  V  V43  1  0.24900560  -0.00174972  0.24745050  1
  V  V44  1  0.87274048  0.24900095  0.12423717  1
  V  V45  1  0.87070248  0.37278009  -0.00980886  1
  V  V46  1  0.12713444  0.87766774  0.24690564  1
  V  V47  1  0.50909289  0.25917872  0.26020751  1
  V  V48  1  0.00892420  0.12806012  0.12929098  1
  V  V49  1  0.49758279  0.48791308  0.00051267  1
  V  V50  1  0.75513096  0.38831451  0.13533874  1
  V  V51  1  0.00046604  0.35525831  0.38528821  1
  V  V52  1  0.37698540  0.75072014  0.10176080  1
  V  V53  1  0.87550717  0.13003686  0.25209575  1
  V  V54  1  0.12460451  0.12738271  0.50003344  1
  V  V55  1  0.61169366  0.50686919  0.62874784  1
  V  V56  1  0.87705504  0.75341562  0.12610964  1
  V  V57  1  0.01533457  0.37104502  0.86836907  1
  V  V58  1  0.13942167  0.62720716  -0.00542877  1
  V  V59  1  0.75825283  0.37001951  0.62210699  1
  V  V60  1  0.37327019  0.75557530  0.63427404  1
  V  V61  1  0.73264174  0.12974566  0.37356883  1
  V  V62  1  0.24264156  0.62144798  0.37465753  1
  V  V63  1  -0.00736477  0.87326320  0.88044524  1
  V  V64  1  -0.00263964  0.74653910  0.24662978  1
  V  V65  1  0.62618436  0.00064909  0.61538966  1
  V  V66  1  0.61893991  0.25442646  0.87701742  1
  V  V67  1  -0.00884643  0.74157203  0.75306245  1
  V  V68  1  0.37316662  0.26555202  0.11886369  1
  V  V69  1  0.50258499  0.12729083  0.12507114  1
  V  V70  1  -0.01669530  0.12300888  0.62887656  1
  V  V71  1  0.63119133  0.38618292  0.26053851  1
  V  V72  1  -0.00040729  0.50190556  -0.01227711  1
  V  V73  1  0.49967437  0.50570004  0.49888737  1
  V  V74  1  0.12614035  0.61613017  0.51440855  1
  V  V75  1  0.62956662  0.00104823  0.13400289  1
  V  V76  1  0.76045196  0.50292972  0.75410999  1
  V  V77  1  0.62782251  0.74923855  0.87712866  1
  V  V78  1  -0.00927271  0.24679126  0.74636930  1
  Zn  Zn79  1  0.33898776  0.02210963  0.89357263  1
  Zn  Zn80  1  0.86118322  0.87520493  0.51060038  1
  Zn  Zn81  1  0.86262791  0.75486430  0.62755631  1
  Zn  Zn82  1  0.74311977  0.75239939  0.50184649  1
  Zn  Zn83  1  0.86479046  0.59982542  0.24248961  1
  Zn  Zn84  1  0.25941651  0.28190301  -0.00216687  1
  Zn  Zn85  1  0.23310125  0.51680887  0.73181593  1
  Zn  Zn86  1  0.15455680  0.24363069  0.85041260  1
  Zn  Zn87  1  0.23830747  0.13060883  0.36833463  1
  Zn  Zn88  1  0.50849978  0.74797737  0.73724701  1
  Zn  Zn89  1  0.24689267  0.75268078  0.50110555  1
  Zn  Zn90  1  0.87370227  0.48881364  0.36455273  1
  Zn  Zn91  1  0.61853713  0.64045129  0.49678483  1
  Zn  Zn92  1  0.36434978  0.63547063  0.77818277  1
  Zn  Zn93  1  0.49969978  0.24695011  0.75029524  1
  Zn  Zn94  1  0.19193718  0.18631584  0.17648811  1
  Zn  Zn95  1  0.18291779  0.18024844  0.68277331  1
  Zn  Zn96  1  0.18746708  0.68806583  0.18547396  1
  Zn  Zn97  1  0.19482548  0.70247940  0.69222494  1
  Zn  Zn98  1  0.69296358  0.19331883  0.19007369  1
  Zn  Zn99  1  0.68649984  0.18848229  0.68955209  1
  Zn  Zn100  1  0.69091115  0.68205355  0.19455583  1
  Zn  Zn101  1  0.69278128  0.68714017  0.68492986  1
  Zn  Zn102  1  0.30993710  0.31616000  0.30646161  1
  Zn  Zn103  1  0.33986184  0.30508053  0.83351003  1
  Zn  Zn104  1  0.30975142  0.81178312  0.31525852  1
  Zn  Zn105  1  0.30139194  0.85082228  0.82015340  1
  Zn  Zn106  1  0.81712707  0.31029684  0.31749058  1
  Zn  Zn107  1  0.80827479  0.31276964  0.80613800  1
  Zn  Zn108  1  0.78971526  0.82413898  0.34068928  1
  Zn  Zn109  1  0.81216193  0.81460793  0.81296108  1
  Zn  Zn110  1  0.18530795  0.43596875  0.43510300  1
  Zn  Zn111  1  0.19240509  0.44373419  0.92831874  1
  Zn  Zn112  1  0.18680032  0.94164684  0.43298323  1
  Zn  Zn113  1  0.17816339  0.94024197  0.93642607  1
  Zn  Zn114  1  0.68928760  0.44039261  0.44173271  1
  Zn  Zn115  1  0.68799496  0.43564319  0.93925027  1
  Zn  Zn116  1  0.68392859  0.94007270  0.43106855  1
  Zn  Zn117  1  0.68748125  0.94151239  0.94195523  1
  Zn  Zn118  1  0.31263655  0.06146719  0.07014645  1
  Zn  Zn119  1  0.31098511  0.06871192  0.56204319  1
  Zn  Zn120  1  0.32070833  0.55841276  0.05766319  1
  Zn  Zn121  1  0.31403365  0.56618188  0.56808110  1
  Zn  Zn122  1  0.81580584  0.05873529  0.06332328  1
  Zn  Zn123  1  0.80802746  0.06233824  0.55537212  1
  Zn  Zn124  1  0.82020244  0.56253902  0.05910675  1
  Zn  Zn125  1  0.80276656  0.56038613  0.55931253  1
  Zn  Zn126  1  0.44150704  0.44458344  0.18961379  1
  Zn  Zn127  1  0.41064066  0.45212151  0.67935238  1
  Zn  Zn128  1  0.43664483  0.93495647  0.18563308  1
  Zn  Zn129  1  0.44384767  0.93205000  0.68647921  1
  Zn  Zn130  1  0.96325609  0.42073685  0.18172828  1
  Zn  Zn131  1  0.94192375  0.43767669  0.69053622  1
  Zn  Zn132  1  0.93538947  0.94152932  0.19032923  1
  Zn  Zn133  1  0.93519592  0.93929158  0.69135875  1
  Zn  Zn134  1  0.06186102  0.06643008  0.31458547  1
  Zn  Zn135  1  0.05974738  0.06742502  0.81427293  1
  Zn  Zn136  1  0.03409868  0.54193865  0.29713980  1
  Zn  Zn137  1  0.07101335  0.55930966  0.81164460  1
  Zn  Zn138  1  0.55828969  0.06005243  0.31143924  1
  Zn  Zn139  1  0.55995482  0.06678488  0.80793948  1
  Zn  Zn140  1  0.56156360  0.56187441  0.30909302  1
  Zn  Zn141  1  0.54430260  0.56245898  0.80682993  1
  Zn  Zn142  1  0.43976453  0.18898438  0.43725751  1
  Zn  Zn143  1  0.43761701  0.18580746  0.93812041  1
  Zn  Zn144  1  0.43194070  0.68868795  0.44314052  1
  Zn  Zn145  1  0.44662303  0.67567117  0.92332814  1
  Zn  Zn146  1  0.92253570  0.18859837  0.45202609  1
  Zn  Zn147  1  0.94249370  0.19034312  0.93979090  1
  Zn  Zn148  1  0.91823491  0.68666887  0.43080492  1
  Zn  Zn149  1  0.93719507  0.69097159  0.93913025  1
  Zn  Zn150  1  0.10161294  0.34146373  0.04911428  1
  Zn  Zn151  1  0.05635575  0.30370047  0.56323139  1
  Zn  Zn152  1  0.06810651  0.81071280  0.05960873  1
  Zn  Zn153  1  0.02714186  0.82079433  0.57577423  1
  Zn  Zn154  1  0.57250941  0.31030092  0.07297603  1
  Zn  Zn155  1  0.56369460  0.31598732  0.56433393  1
  Zn  Zn156  1  0.56397722  0.80844552  0.06288611  1
  Zn  Zn157  1  0.56325094  0.81846361  0.55990841  1
  O  O158  1  0.11306374  0.12231643  0.12079185  1
  O  O159  1  0.11279148  0.12745328  0.60706900  1
  O  O160  1  0.11676852  0.64152881  0.10415850  1
  O  O161  1  0.13098256  0.63129714  0.61405551  1
  O  O162  1  0.62276699  0.12196960  0.12234813  1
  O  O163  1  0.61344966  0.11585864  0.63035391  1
  O  O164  1  0.61517926  0.63689177  0.11916647  1
  O  O165  1  0.62339139  0.60852227  0.62790454  1
  O  O166  1  0.36814805  0.38648945  0.38099579  1
  O  O167  1  0.39653156  0.38881141  0.87665621  1
  O  O168  1  0.38205537  0.88103865  0.37643814  1
  O  O169  1  0.40178963  0.86826768  0.87608179  1
  O  O170  1  0.89443035  0.37311535  0.37684022  1
  O  O171  1  0.87591421  0.36812492  0.88840261  1
  O  O172  1  0.88877019  0.88743273  0.35835329  1
  O  O173  1  0.88449035  0.88462726  0.87376785  1
  O  O174  1  0.26081761  0.00224896  0.36149628  1
  O  O175  1  0.26132665  -0.04715402  0.86529635  1
  O  O176  1  0.25556542  0.50857294  0.36940989  1
  O  O177  1  0.26949914  0.48090440  0.85437344  1
  O  O178  1  0.75976301  0.02014439  0.38363028  1
  O  O179  1  0.75640627  0.00802544  0.87181617  1
  O  O180  1  0.76057383  0.50758484  0.38504695  1
  O  O181  1  0.74228576  0.50606905  0.86271888  1
  O  O182  1  0.25418336  0.50650728  0.13918883  1
  O  O183  1  0.30341696  0.48936763  0.64787782  1
  O  O184  1  0.26241745  0.98186830  0.13933842  1
  O  O185  1  0.24384140  0.99174521  0.61617064  1
  O  O186  1  0.76638656  0.48765716  0.13074017  1
  O  O187  1  0.73714728  0.49394129  0.63727506  1
  O  O188  1  0.74213712  0.98718229  0.11965856  1
  O  O189  1  0.73753448  1.01155896  0.63435202  1
  O  O190  1  0.00883350  0.35592838  0.27613678  1
  O  O191  1  -0.00400069  0.36353076  0.75979789  1
  O  O192  1  0.00949446  0.87008786  0.25217299  1
  O  O193  1  0.00568557  0.86527977  0.75886857  1
  O  O194  1  0.51342811  0.36612541  0.24272743  1
  O  O195  1  0.50944476  0.37168092  0.74269872  1
  O  O196  1  0.50616859  0.87541690  0.25737362  1
  O  O197  1  0.51497864  0.87517491  0.76639863  1
  O  O198  1  0.49593864  0.13525402  0.24309354  1
  O  O199  1  0.48850464  0.12729066  0.73867595  1
  O  O200  1  0.48745447  0.61736536  0.24005096  1
  O  O201  1  0.47983317  0.65499854  0.79201816  1
  O  O202  1  0.99406639  0.11625669  0.23580903  1
  O  O203  1  0.99681408  0.12866638  0.73702018  1
  O  O204  1  1.01571778  0.63977417  0.23367217  1
  O  O205  1  1.00217402  0.62558331  0.74251906  1
  O  O206  1  0.38206249  0.24919164  0.01518895  1
  O  O207  1  0.37034320  0.25529530  0.50459677  1
  O  O208  1  0.37605183  0.74527942  0.00434164  1
  O  O209  1  0.37095774  0.76867619  0.50379717  1
  O  O210  1  0.88457763  0.26553570  0.00912212  1
  O  O211  1  0.84912747  0.25398055  0.50648731  1
  O  O212  1  0.86586707  0.74849774  0.01403424  1
  O  O213  1  0.87278759  0.75359813  0.50604564  1
  O  O214  1  0.14281463  0.24902143  0.50697800  1
  O  O215  1  0.12732375  0.23136078  1.00704786  1
  O  O216  1  0.11662273  0.73902177  0.48833918  1
  O  O217  1  0.12322922  0.74270577  0.98349588  1
  O  O218  1  0.64125417  0.25930137  0.50461772  1
  O  O219  1  0.62246473  0.23841719  0.99509109  1
  O  O220  1  0.62547423  0.75330039  0.49770545  1
  O  O221  1  0.63777079  0.74168026  0.99784254  1
  O  O222  1  0.49458330  0.24158348  0.13291946  1
  O  O223  1  0.49236560  0.23691017  0.62212645  1
  O  O224  1  0.48585816  0.74295931  0.11925346  1
  O  O225  1  0.48040165  0.77602902  0.62874000  1
  O  O226  1  0.98859382  0.22898431  0.12320113  1
  O  O227  1  0.99681295  0.23957597  0.63490851  1
  O  O228  1  0.99414149  0.74807740  0.12631881  1
  O  O229  1  1.00362837  0.72691974  0.63705485  1
  O  O230  1  0.00350601  0.25818949  0.40577727  1
  O  O231  1  0.00141590  0.25920675  0.86587819  1
  O  O232  1  0.00243503  0.75648826  0.36526883  1
  O  O233  1  -0.00001839  0.75727531  0.87044429  1
  O  O234  1  0.49537409  0.25028311  0.35863477  1
  O  O235  1  0.51429766  0.24295722  0.87246665  1
  O  O236  1  0.49276312  0.76206893  0.37415805  1
  O  O237  1  0.52021528  0.76703029  0.89526116  1
  O  O238  1  0.24392273  0.13518479  0.49493051  1
  O  O239  1  0.23389368  0.11003368  1.00495217  1
  O  O240  1  0.24061790  0.62568396  0.49361405  1
  O  O241  1  0.23735551  0.61966994  1.00348534  1
  O  O242  1  0.74604292  0.13523500  0.48935510  1
  O  O243  1  0.74181502  0.11834769  0.99233311  1
  O  O244  1  0.74104945  0.62478404  0.49076484  1
  O  O245  1  0.74685423  0.63197479  0.99817000  1
  O  O246  1  0.20527478  0.37916920  0.01840652  1
  O  O247  1  0.25962143  0.36375573  0.49714798  1
  O  O248  1  0.24021778  0.87872985  0.01966384  1
  O  O249  1  0.25311901  0.87578421  0.50074803  1
  O  O250  1  0.76669792  0.38182369  0.01147606  1
  O  O251  1  0.74748011  0.37334686  0.51738092  1
  O  O252  1  0.74007220  0.86338153  0.01581819  1
  O  O253  1  0.76228728  0.86360669  0.45362111  1
  O  O254  1  0.13525553  0.50588507  0.25120851  1
  O  O255  1  0.13001578  0.48741619  0.75446230  1
  O  O256  1  0.13517865  0.98927389  0.25813350  1
  O  O257  1  0.11132875  0.98499448  0.75241184  1
  O  O258  1  0.61698696  0.48363221  0.24368931  1
  O  O259  1  0.61772489  0.49613546  0.74225800  1
  O  O260  1  0.61972840  0.99619189  0.23639079  1
  O  O261  1  0.63498750  0.99521187  0.74841963  1
  O  O262  1  0.37124282  0.00853869  0.25384717  1
  O  O263  1  0.37786550  0.00749847  0.74675447  1
  O  O264  1  0.36382854  0.50697143  0.25669613  1
  O  O265  1  0.41066952  0.51179409  0.77606695  1
  O  O266  1  0.87582542  0.01350290  0.26049419  1
  O  O267  1  0.86486774  -0.00270094  0.76187312  1
  O  O268  1  0.92717769  0.50222781  0.25537497  1
  O  O269  1  0.85871774  0.49787019  0.75029142  1
  O  O270  1  0.11351615  0.37801549  0.36740599  1
  O  O271  1  0.11537677  0.36612268  0.87234541  1
  O  O272  1  0.11734492  0.86728750  0.36626790  1
  O  O273  1  0.11270210  0.86465391  0.86490268  1
  O  O274  1  0.63516380  0.37858490  0.36004217  1
  O  O275  1  0.63294100  0.36366490  0.86907670  1
  O  O276  1  0.60936124  0.88232769  0.36060397  1
  O  O277  1  0.62830605  0.86878711  0.86998781  1
  O  O278  1  0.38576728  0.12839541  0.13541720  1
  O  O279  1  0.38637454  0.12893943  0.63023529  1
  O  O280  1  0.37865361  0.63795186  0.12870906  1
  O  O281  1  0.37219095  0.65638391  0.61639123  1
  O  O282  1  0.87582287  0.12875742  0.13294908  1
  O  O283  1  0.88397793  0.12412301  0.61928291  1
  O  O284  1  0.88648789  0.63411100  0.12746944  1
  O  O285  1  0.88429260  0.62138354  0.62674807  1
  O  O286  1  0.26961442  0.24753011  0.12021841  1
  O  O287  1  0.26776805  0.23969369  0.61141172  1
  O  O288  1  0.26389525  0.75779785  0.12821852  1
  O  O289  1  0.25595306  0.77003881  0.61754606  1
  O  O290  1  0.76669208  0.25827383  0.12759462  1
  O  O291  1  0.74439623  0.26285501  0.62352944  1
  O  O292  1  0.75719126  0.75501613  0.12392738  1
  O  O293  1  0.74964591  0.75622873  0.62131530  1
  O  O294  1  0.26013340  0.24743351  0.38767713  1
  O  O295  1  0.25887319  0.25484593  0.88740308  1
  O  O296  1  0.23870100  0.73998208  0.37621180  1
  O  O297  1  0.23660083  0.76147003  0.86836575  1
  O  O298  1  0.74992203  0.24025551  0.38470389  1
  O  O299  1  0.74145985  0.23927356  0.87000111  1
  O  O300  1  0.75728712  0.72167754  0.37320356  1
  O  O301  1  0.74666335  0.74645507  0.88443725  1
  O  O302  1  0.00647781  0.11848481  0.00941612  1
  O  O303  1  0.00093393  0.12025628  0.50942469  1
  O  O304  1  0.00122130  0.61975230  0.00147244  1
  O  O305  1  0.01015337  0.61395917  0.51606939  1
  O  O306  1  0.51144241  0.11974859  0.00967290  1
  O  O307  1  0.49530687  0.12296781  0.51219783  1
  O  O308  1  0.51177669  0.61962104  0.00878635  1
  O  O309  1  0.49964865  0.61126006  0.49578992  1
  O  O310  1  0.48762158  0.38473583  0.50116408  1
  O  O311  1  0.51821121  0.39151267  1.01606878  1
  O  O312  1  0.48992857  0.87922038  0.48274011  1
  O  O313  1  0.51438529  0.88805826  0.99366970  1
  O  O314  1  1.01261532  0.38799661  0.50049964  1
  O  O315  1  1.00048757  0.38172668  0.98655563  1
  O  O316  1  1.00584570  0.88467469  0.48160282  1
  O  O317  1  1.00964528  0.88333313  0.99029327  1
  O  O318  1  0.48574551  0.50347889  0.38013932  1
  O  O319  1  0.50890874  0.50230382  0.89917756  1
  O  O320  1  0.48629308  0.99329904  0.36858344  1
  O  O321  1  0.51105275  0.98989119  0.88447385  1
  O  O322  1  1.00301480  0.49727430  0.39890474  1
  O  O323  1  1.00052036  0.48331506  0.87599724  1
  O  O324  1  0.99208871  0.99616802  0.38007825  1
  O  O325  1  0.99159079  0.99476911  0.88040743  1
  O  O326  1  -0.01116083  0.00992081  0.11424761  1
  O  O327  1  -0.00493159  0.01272870  0.61596320  1
  O  O328  1  0.00451615  0.51361192  0.10747903  1
  O  O329  1  0.00185153  0.50911756  0.62208078  1
  O  O330  1  0.50655831  0.00880083  0.12079792  1
  O  O331  1  0.51176704  0.00961322  0.62779094  1
  O  O332  1  0.49194786  0.51731627  0.11483037  1
  O  O333  1  0.50547665  0.49669343  0.61775761  1
  O  O334  1  0.23306676  0.38754776  0.25479140  1
  O  O335  1  0.18262384  0.35874268  0.67081220  1
  O  O336  1  0.24469900  0.87965056  0.24726055  1
  O  O337  1  0.22511114  0.87049335  0.73415126  1
  O  O338  1  0.74694679  0.37188554  0.24461772  1
  O  O339  1  0.73865321  0.38752319  0.74593602  1
  O  O340  1  0.73110955  0.86946074  0.24600932  1
  O  O341  1  0.74306204  0.88819711  0.75480302  1
  O  O342  1  0.25866715  0.11711776  0.24652418  1
  O  O343  1  0.26894626  0.12618406  0.73862738  1
  O  O344  1  0.25308542  0.61701598  0.25635365  1
  O  O345  1  0.25742018  0.62803798  0.74634801  1
  O  O346  1  0.75797305  0.13281124  0.26622975  1
  O  O347  1  0.74379627  0.11585161  0.76232282  1
  O  O348  1  0.74968426  0.61285627  0.25958874  1
  O  O349  1  0.74269653  0.61107087  0.75880231  1
  O  O350  1  0.37688449  0.12032919  0.36244701  1
  O  O351  1  0.38166847  0.12234616  0.85896035  1
  O  O352  1  0.36347415  0.61923665  0.37091174  1
  O  O353  1  0.36647181  0.60117095  0.89551919  1
  O  O354  1  0.87662324  0.12078078  0.36847429  1
  O  O355  1  0.86678164  0.11800450  0.88301564  1
  O  O356  1  0.87040520  0.61119751  0.36447034  1
  O  O357  1  0.85958851  0.62794742  0.88158467  1
  O  O358  1  0.08715185  0.37629526  0.15745290  1
  O  O359  1  0.12986099  0.38607160  0.62630732  1
  O  O360  1  0.13965698  0.86189099  0.13784773  1
  O  O361  1  0.11813177  0.87131042  0.63433752  1
  O  O362  1  0.65125875  0.37039429  0.13165114  1
  O  O363  1  0.63095240  0.38558566  0.63662991  1
  O  O364  1  0.62688062  0.87887176  0.13687277  1
  O  O365  1  0.61609823  0.89210975  0.63871340  1
  O  O366  1  0.14050132  0.25514610  0.25318429  1
  O  O367  1  0.10733237  0.23841867  0.74805985  1
  O  O368  1  0.11942350  0.75712532  0.25929601  1
  O  O369  1  0.11131917  0.75363491  0.76156667  1
  O  O370  1  0.61371444  0.25686261  0.24640051  1
  O  O371  1  0.62358425  0.25864010  0.75890328  1
  O  O372  1  0.61732649  0.75907727  0.24672493  1
  O  O373  1  0.62879924  0.75816085  0.76074894  1
  O  O374  1  0.38392044  0.24607258  0.24124150  1
  O  O375  1  0.37606819  0.24823042  0.73651355  1
  O  O376  1  0.36956499  0.73574717  0.25218049  1
  O  O377  1  0.36396215  0.76903347  0.73685389  1
  O  O378  1  0.87751313  0.23750807  0.24430690  1
  O  O379  1  0.88965875  0.24784312  0.75579537  1
  O  O380  1  0.88947537  0.74825888  0.24004754  1
  O  O381  1  0.88690346  0.75295128  0.74945958  1
  O  O382  1  0.37940628  0.49450503  0.49192764  1
  O  O383  1  0.38961797  0.49107958  0.99608698  1
  O  O384  1  0.36591110  0.99333252  0.48722384  1
  O  O385  1  0.39180166  1.01201358  0.99954497  1
  O  O386  1  0.89033662  0.49979072  0.50780716  1
  O  O387  1  0.88886596  0.48498656  1.00223482  1
  O  O388  1  0.88437482  0.99791848  0.48895239  1
  O  O389  1  0.88463917  1.00090085  0.98904371  1
  O  O390  1  0.10946860  0.01124502  -0.00583902  1
  O  O391  1  0.11112605  0.00792554  0.49255193  1
  O  O392  1  0.11420902  0.52132892  -0.01841650  1
  O  O393  1  0.12460987  0.51291704  0.50243404  1
  O  O394  1  0.61865354  0.01054713  0.01187574  1
  O  O395  1  0.63023097  -0.00620554  0.51658134  1
  O  O396  1  0.62628398  0.51275218  0.00287244  1
  O  O397  1  0.61384410  0.49430305  0.51512856  1
  O  O398  1  0.38110021  0.36381601  0.13204650  1
  O  O399  1  0.38292857  0.35560842  0.61500462  1
  O  O400  1  0.36837047  0.86034803  0.12699552  1
  O  O401  1  0.36258885  0.88096602  0.61498171  1
  O  O402  1  0.87497040  0.36674393  0.12304777  1
  O  O403  1  0.85691484  0.38054813  0.63533269  1
  O  O404  1  0.86331083  0.86674637  0.13696558  1
  O  O405  1  0.91372289  0.86305269  0.61266748  1
  O  O406  1  0.12191875  0.12652026  0.39012329  1
  O  O407  1  0.12106299  0.13004330  0.88710207  1
  O  O408  1  0.13059262  0.62992954  0.38220028  1
  O  O409  1  0.12293388  0.64053846  0.88092953  1
  O  O410  1  0.63373420  0.12127962  0.36998431  1
  O  O411  1  0.63283714  0.13068481  0.88305056  1
  O  O412  1  0.63590821  0.61179126  0.37658626  1
  O  O413  1  0.63587215  0.63617711  0.88649338  1
