# generated using pymatgen
data_V79Zn79O256
_symmetry_space_group_name_H-M   'P 1'
_cell_length_a   16.94593894
_cell_length_b   16.90555951
_cell_length_c   16.97315827
_cell_angle_alpha   89.92048288
_cell_angle_beta   90.11683553
_cell_angle_gamma   90.06447159
_symmetry_Int_Tables_number   1
_chemical_formula_structural   V79Zn79O256
_chemical_formula_sum   'V79 Zn79 O256'
_cell_volume   4862.46235525
_cell_formula_units_Z   1
loop_
 _symmetry_equiv_pos_site_id
 _symmetry_equiv_pos_as_xyz
  1  'x, y, z'
loop_
 _atom_site_type_symbol
 _atom_site_label
 _atom_site_symmetry_multiplicity
 _atom_site_fract_x
 _atom_site_fract_y
 _atom_site_fract_z
 _atom_site_occupancy
  V  V0  1  0.76133311  0.50347203  0.76588847  1
  V  V1  1  0.62558809  0.62521164  0.50229459  1
  V  V2  1  0.24742295  0.13549114  0.37102737  1
  V  V3  1  0.12062892  0.00361358  0.62141055  1
  V  V4  1  0.24525482  0.37274327  0.12950770  1
  V  V5  1  0.12284444  0.13102854  0.49398411  1
  V  V6  1  0.74846915  0.86980791  0.12337454  1
  V  V7  1  -0.00555133  0.62250735  0.14356215  1
  V  V8  1  0.88402672  0.24921003  0.11817265  1
  V  V9  1  0.24496068  -0.00356333  0.24902785  1
  V  V10  1  0.63392066  0.12553141  -0.00127192  1
  V  V11  1  0.75500662  0.75545571  0.49837902  1
  V  V12  1  -0.01237027  0.37838096  0.87782799  1
  V  V13  1  0.50307841  0.85616887  0.86623381  1
  V  V14  1  0.89282607  0.87821535  0.00395848  1
  V  V15  1  0.62449346  0.87461488  0.25003693  1
  V  V16  1  0.86902185  0.25251265  0.62115648  1
  V  V17  1  0.87276298  0.47519763  0.37206882  1
  V  V18  1  0.12014424  0.87607956  0.75804590  1
  V  V19  1  0.01180477  0.26758609  0.25996264  1
  V  V20  1  0.12248588  0.49666225  0.12602831  1
  V  V21  1  0.38426378  0.00268155  0.87925164  1
  V  V22  1  0.49496450  0.74214088  0.24931066  1
  V  V23  1  0.48934735  0.24134964  0.73767705  1
  V  V24  1  0.35828271  0.49890397  0.87671459  1
  V  V25  1  0.37950590  -0.00330083  0.37416356  1
  V  V26  1  0.63995366  0.11546575  0.49136978  1
  V  V27  1  0.25639389  0.50274045  0.24825928  1
  V  V28  1  0.75070681  0.00959252  0.25441776  1
  V  V29  1  -0.00144632  0.24851230  0.75172704  1
  V  V30  1  0.25771979  0.25345065  0.51668825  1
  V  V31  1  -0.01230488  0.47572355  0.49960394  1
  V  V32  1  0.25570387  0.00527651  0.74959840  1
  V  V33  1  0.10933991  0.62728681  0.48319148  1
  V  V34  1  0.89175219  0.74443737  0.62850966  1
  V  V35  1  0.24644911  0.74883594  -0.00591921  1
  V  V36  1  0.87293425  0.74134694  0.14587972  1
  V  V37  1  0.24560493  0.87397540  0.12846131  1
  V  V38  1  0.62903433  0.24749454  0.87554599  1
  V  V39  1  0.37843871  0.37331584  0.51151793  1
  V  V40  1  0.45752790  0.05023713  0.55610536  1
  V  V41  1  0.62519487  0.62999712  -0.00883113  1
  V  V42  1  0.63151476  0.25122770  0.37404405  1
  V  V43  1  0.62216284  0.37395241  0.74600533  1
  V  V44  1  0.50493459  0.25095154  0.25129370  1
  V  V45  1  0.62623725  0.74969331  0.37413242  1
  V  V46  1  0.63258241  0.00229462  0.63540278  1
  V  V47  1  0.37798370  0.50443787  0.36885055  1
  V  V48  1  0.25162089  0.87538538  0.61307325  1
  V  V49  1  0.25271299  0.25177392  -0.00063861  1
  V  V50  1  0.50325957  0.38481227  0.87653345  1
  V  V51  1  0.74932473  0.36989294  0.12037116  1
  V  V52  1  0.76323032  0.62632427  0.37013713  1
  V  V53  1  0.88951856  0.88375603  0.49965072  1
  V  V54  1  0.86187666  0.11535762  0.76085539  1
  V  V55  1  -0.01394579  0.49984543  -0.00907648  1
  V  V56  1  0.88567570  0.12712798  0.25190616  1
  V  V57  1  0.61997415  -0.00161797  0.12125731  1
  V  V58  1  0.50072828  0.87533866  0.38262384  1
  V  V59  1  0.12944477  0.37882681  0.73796850  1
  V  V60  1  0.11981626  0.00458034  0.11916864  1
  V  V61  1  0.38217387  0.37841431  0.00204789  1
  V  V62  1  0.11697480  0.12389097  -0.00018469  1
  V  V63  1  0.37387358  0.74185353  0.12941402  1
  V  V64  1  0.12279420  0.63374971  -0.00677455  1
  V  V65  1  0.00001072  0.12385527  0.62180632  1
  V  V66  1  0.63044401  0.50020362  0.62343028  1
  V  V67  1  0.37625235  0.12572490  0.24788299  1
  V  V68  1  0.00415561  0.88118210  0.34860635  1
  V  V69  1  0.12716044  0.25431055  0.87478724  1
  V  V70  1  0.75162256  0.87805419  0.64533659  1
  V  V71  1  0.49911087  0.11958834  0.11624161  1
  V  V72  1  0.61726089  0.49671418  0.12161558  1
  V  V73  1  0.74452637  0.49459036  0.25111258  1
  V  V74  1  0.50333695  0.50059959  0.49806610  1
  V  V75  1  0.38041597  0.87779705  0.00227987  1
  V  V76  1  0.00446362  0.74302348  0.76211532  1
  V  V77  1  0.25806236  0.12912697  0.87018491  1
  V  V78  1  0.11818127  0.51043946  0.61494472  1
  Zn  Zn79  1  0.38590533  0.86035522  0.51050401  1
  Zn  Zn80  1  0.06077697  0.82683636  0.93359638  1
  Zn  Zn81  1  0.75722123  0.37918733  0.61809573  1
  Zn  Zn82  1  0.76303807  0.25197853  0.48508967  1
  Zn  Zn83  1  0.27208065  0.52407914  0.71030055  1
  Zn  Zn84  1  0.30320045  0.65665328  0.82192634  1
  Zn  Zn85  1  0.49506723  0.61509170  0.12667905  1
  Zn  Zn86  1  0.24928360  0.62802751  0.36718713  1
  Zn  Zn87  1  0.37821579  0.24956527  0.12443222  1
  Zn  Zn88  1  0.75193281  0.74290337  -0.00040592  1
  Zn  Zn89  1  0.12277755  0.75794816  0.35430982  1
  Zn  Zn90  1  0.87586126  0.01367252  0.38703473  1
  Zn  Zn91  1  0.75889384  0.25288175  -0.01128155  1
  Zn  Zn92  1  0.50240702  0.37432750  0.37132175  1
  Zn  Zn93  1  0.25508037  0.73575839  0.49411268  1
  Zn  Zn94  1  0.18539286  0.18710747  0.18612671  1
  Zn  Zn95  1  0.18652813  0.19025604  0.68869900  1
  Zn  Zn96  1  0.18658257  0.68022599  0.18359240  1
  Zn  Zn97  1  0.21693718  0.70715058  0.69856295  1
  Zn  Zn98  1  0.68733026  0.18560156  0.18736110  1
  Zn  Zn99  1  0.68140714  0.18324949  0.68832227  1
  Zn  Zn100  1  0.68490163  0.68111271  0.18989407  1
  Zn  Zn101  1  0.73269211  0.66753752  0.67075124  1
  Zn  Zn102  1  0.31682460  0.31828454  0.31534851  1
  Zn  Zn103  1  0.31539179  0.32217763  0.80545608  1
  Zn  Zn104  1  0.30978511  0.80856703  0.31554540  1
  Zn  Zn105  1  0.31838975  0.82499386  0.80682203  1
  Zn  Zn106  1  0.80854828  0.30725472  0.29976785  1
  Zn  Zn107  1  0.80861214  0.31327317  0.80313617  1
  Zn  Zn108  1  0.81415751  0.82109485  0.31521196  1
  Zn  Zn109  1  0.81694097  0.94921612  0.83039520  1
  Zn  Zn110  1  0.19177122  0.42810022  0.43620253  1
  Zn  Zn111  1  0.17638126  0.43654065  0.94109401  1
  Zn  Zn112  1  0.17992637  0.94608165  0.43202206  1
  Zn  Zn113  1  0.19390178  0.94297823  0.93865757  1
  Zn  Zn114  1  0.69220472  0.43089801  0.43924324  1
  Zn  Zn115  1  0.68764954  0.43904559  0.94093470  1
  Zn  Zn116  1  0.69198967  0.93793699  0.43618023  1
  Zn  Zn117  1  0.67845969  0.93409455  0.93757789  1
  Zn  Zn118  1  0.30908477  0.06280512  0.06033947  1
  Zn  Zn119  1  0.29766490  0.05978561  0.55651798  1
  Zn  Zn120  1  0.30958588  0.56090737  0.05813582  1
  Zn  Zn121  1  0.30583512  0.56347762  0.54815117  1
  Zn  Zn122  1  0.81150859  0.06182384  0.06434298  1
  Zn  Zn123  1  0.81237835  0.06518885  0.56953377  1
  Zn  Zn124  1  0.80634581  0.56176997  0.06345436  1
  Zn  Zn125  1  0.81689817  0.56075021  0.55734902  1
  Zn  Zn126  1  0.43557823  0.43197399  0.18767834  1
  Zn  Zn127  1  0.42462186  0.48194362  0.67227246  1
  Zn  Zn128  1  0.43639585  0.93230782  0.19029196  1
  Zn  Zn129  1  0.43805451  0.93067867  0.69365622  1
  Zn  Zn130  1  0.93168059  0.43747195  0.18550711  1
  Zn  Zn131  1  0.94076462  0.43912152  0.69034023  1
  Zn  Zn132  1  0.92622113  0.95081987  0.16513876  1
  Zn  Zn133  1  0.93897222  0.93657337  0.68803787  1
  Zn  Zn134  1  0.05968465  0.06192857  0.31092218  1
  Zn  Zn135  1  0.06173899  0.06083896  0.81754023  1
  Zn  Zn136  1  0.07623266  0.50937017  0.32853146  1
  Zn  Zn137  1  0.10508407  0.58206946  0.79128855  1
  Zn  Zn138  1  0.56377330  0.06336551  0.31031793  1
  Zn  Zn139  1  0.56360145  0.06417097  0.81469031  1
  Zn  Zn140  1  0.56912279  0.56210493  0.31327275  1
  Zn  Zn141  1  0.56840597  0.56853548  0.80559331  1
  Zn  Zn142  1  0.43884479  0.18976180  0.43674442  1
  Zn  Zn143  1  0.44280358  0.19396799  0.93112085  1
  Zn  Zn144  1  0.43701179  0.68738500  0.44031480  1
  Zn  Zn145  1  0.44160751  0.68181837  0.94844495  1
  Zn  Zn146  1  0.94106912  0.19387081  0.43269825  1
  Zn  Zn147  1  0.93667668  0.18780402  0.93520870  1
  Zn  Zn148  1  0.94393265  0.69656957  0.43079404  1
  Zn  Zn149  1  0.93734371  0.69633214  0.95130267  1
  Zn  Zn150  1  0.06047688  0.31324880  0.06020393  1
  Zn  Zn151  1  0.06209434  0.30478601  0.55664269  1
  Zn  Zn152  1  0.06074919  0.81422674  0.17720228  1
  Zn  Zn153  1  0.07167040  0.80944165  0.56148914  1
  Zn  Zn154  1  0.56496904  0.30972509  0.06401301  1
  Zn  Zn155  1  0.56624587  0.30985442  0.55897799  1
  Zn  Zn156  1  0.56165449  0.80658313  0.05891751  1
  Zn  Zn157  1  0.57230918  0.81158641  0.57087428  1
  O  O158  1  0.13694268  0.11344250  0.11283769  1
  O  O159  1  0.11872634  0.12335081  0.61892716  1
  O  O160  1  0.10749557  0.61843979  0.11726035  1
  O  O161  1  0.11924494  0.61111810  0.60725449  1
  O  O162  1  0.61691626  0.11817996  0.12018191  1
  O  O163  1  0.63101758  0.10924175  0.61192872  1
  O  O164  1  0.62421044  0.60777947  0.12474579  1
  O  O165  1  0.64180778  0.61778784  0.60826078  1
  O  O166  1  0.38090431  0.38409601  0.38446097  1
  O  O167  1  0.38157582  0.38144685  0.88582348  1
  O  O168  1  0.38156734  0.88459511  0.37728809  1
  O  O169  1  0.37954104  0.88367471  0.88318959  1
  O  O170  1  0.86420460  0.37680602  0.37614654  1
  O  O171  1  0.88900591  0.36259306  0.86972542  1
  O  O172  1  0.88749444  0.87621238  0.38824053  1
  O  O173  1  0.87359842  0.88171317  0.90581923  1
  O  O174  1  0.25998631  0.00764342  0.36729779  1
  O  O175  1  0.25719193  0.01024277  0.86766359  1
  O  O176  1  0.26152430  0.49556491  0.36248919  1
  O  O177  1  0.25844438  0.49517405  0.88449490  1
  O  O178  1  0.76022564  -0.01116712  0.35815676  1
  O  O179  1  0.74242032  0.00558382  0.88680419  1
  O  O180  1  0.75832686  0.50435040  0.37313274  1
  O  O181  1  0.75415593  0.48850428  0.86477657  1
  O  O182  1  0.24521331  0.49143933  0.12747481  1
  O  O183  1  0.21736300  0.48677759  0.61013949  1
  O  O184  1  0.24909864  0.99252150  0.13220378  1
  O  O185  1  0.23937532  0.99968190  0.63266547  1
  O  O186  1  0.74596065  0.48906875  0.13328679  1
  O  O187  1  0.74148105  0.49937078  0.62509912  1
  O  O188  1  0.73820382  0.99075018  0.13489979  1
  O  O189  1  0.74452329  0.98814857  0.62637433  1
  O  O190  1  -0.00169308  0.36696671  0.24512627  1
  O  O191  1  0.00476436  0.36380460  0.75655737  1
  O  O192  1  -0.00726116  0.88171256  0.24607901  1
  O  O193  1  0.01580922  0.87347948  0.74701228  1
  O  O194  1  0.49444471  0.35457460  0.24969673  1
  O  O195  1  0.51404197  0.36714750  0.75818895  1
  O  O196  1  0.50477116  0.86595542  0.26101952  1
  O  O197  1  0.49727342  0.87089433  0.76590414  1
  O  O198  1  0.49169271  0.12866341  0.24190453  1
  O  O199  1  0.50289768  0.14213232  0.75566020  1
  O  O200  1  0.50629626  0.63850216  0.24922384  1
  O  O201  1  0.50578330  0.64538407  0.73455363  1
  O  O202  1  0.98842865  0.13087330  0.24619564  1
  O  O203  1  1.00338332  0.13499671  0.74383620  1
  O  O204  1  1.00007294  0.60632273  0.23793357  1
  O  O205  1  1.01574442  0.64497613  0.75244673  1
  O  O206  1  0.36640169  0.25744919  -0.00078203  1
  O  O207  1  0.36576811  0.25528071  0.49637485  1
  O  O208  1  0.36650823  0.75733627  0.01180754  1
  O  O209  1  0.36820519  0.74973415  0.49959494  1
  O  O210  1  0.87346229  0.24289936  0.01389209  1
  O  O211  1  0.87687189  0.23685178  0.51738846  1
  O  O212  1  0.86818080  0.76027598  0.01685511  1
  O  O213  1  0.87330955  0.76276856  0.50856362  1
  O  O214  1  0.14286256  0.24113802  0.50324056  1
  O  O215  1  0.13495794  0.24649010  0.99555115  1
  O  O216  1  0.11956251  0.73351321  0.48959267  1
  O  O217  1  0.12749009  0.74186015  0.99827044  1
  O  O218  1  0.62116323  0.23240559  0.48690381  1
  O  O219  1  0.62780915  0.24339759  0.99255338  1
  O  O220  1  0.63589048  0.74503620  0.49599749  1
  O  O221  1  0.63284691  0.73728703  1.00491378  1
  O  O222  1  0.50069226  0.23815366  0.13367660  1
  O  O223  1  0.50777069  0.25237409  0.63873712  1
  O  O224  1  0.48941703  0.75413930  0.13534788  1
  O  O225  1  0.50685181  0.74061835  0.64112843  1
  O  O226  1  0.98629683  0.25717966  0.12936514  1
  O  O227  1  0.99284337  0.24132289  0.63298739  1
  O  O228  1  0.98541721  0.73428046  0.13344737  1
  O  O229  1  0.99366218  0.74820179  0.62234947  1
  O  O230  1  0.00138206  0.25264885  0.35920989  1
  O  O231  1  0.00736459  0.25587612  0.86824179  1
  O  O232  1  0.00204659  0.77518138  0.37205094  1
  O  O233  1  -0.00163740  0.75263158  0.86632069  1
  O  O234  1  0.50947961  0.24501937  0.36636061  1
  O  O235  1  0.51086311  0.26161052  0.86657893  1
  O  O236  1  0.50504210  0.75589739  0.36738621  1
  O  O237  1  0.48449277  0.75740222  0.87523089  1
  O  O238  1  0.24696499  0.13701818  0.49031896  1
  O  O239  1  0.24605960  0.13632611  0.99131913  1
  O  O240  1  0.22840710  0.61714913  0.48820248  1
  O  O241  1  0.23114265  0.63436237  1.01424204  1
  O  O242  1  0.74288696  0.13003080  0.50000447  1
  O  O243  1  0.73719659  0.13215400  1.01163977  1
  O  O244  1  0.74762414  0.63799644  0.49214798  1
  O  O245  1  0.73405334  0.62480630  1.00620954  1
  O  O246  1  0.25635697  0.36649465  0.00559783  1
  O  O247  1  0.25861511  0.35883255  0.49734309  1
  O  O248  1  0.25560816  0.86804298  0.00925438  1
  O  O249  1  0.24793450  0.89323083  0.51096541  1
  O  O250  1  0.74897382  0.37292803  0.01599494  1
  O  O251  1  0.74140248  0.35992947  0.50837436  1
  O  O252  1  0.74613385  0.86983259  0.01858684  1
  O  O253  1  0.75989530  0.86422157  0.49863998  1
  O  O254  1  0.13623332  0.50078810  0.22980836  1
  O  O255  1  0.10427652  0.48607974  0.72805328  1
  O  O256  1  0.13935439  1.01297431  0.23693463  1
  O  O257  1  0.13330969  0.99489024  0.74076527  1
  O  O258  1  0.63474883  0.50003458  0.24055043  1
  O  O259  1  0.62791115  0.49211145  0.73972756  1
  O  O260  1  0.63162034  0.99646108  0.24307044  1
  O  O261  1  0.62356794  1.00834148  0.73348857  1
  O  O262  1  0.36781901  0.00777547  0.25546949  1
  O  O263  1  0.36158311  -0.00625654  0.76053105  1
  O  O264  1  0.36992721  0.49303816  0.25690673  1
  O  O265  1  0.36647472  0.48270646  0.77385657  1
  O  O266  1  0.86801360  0.01760884  0.23890605  1
  O  O267  1  0.87987746  0.00925557  0.75287196  1
  O  O268  1  0.86417184  0.49301296  0.26574066  1
  O  O269  1  0.85924060  0.49583853  0.74253470  1
  O  O270  1  0.11348035  0.40789452  0.36399217  1
  O  O271  1  0.11349748  0.37293523  0.86495428  1
  O  O272  1  0.10757497  0.88525837  0.37041475  1
  O  O273  1  0.13963382  0.87285475  0.86143360  1
  O  O274  1  0.62166997  0.35496917  0.37919839  1
  O  O275  1  0.61958701  0.37007650  0.87028500  1
  O  O276  1  0.61929910  0.87041439  0.37040308  1
  O  O277  1  0.60030104  0.86918152  0.89089319  1
  O  O278  1  0.38080191  0.12302154  0.13206015  1
  O  O279  1  0.39394093  0.10080403  0.61276626  1
  O  O280  1  0.37603258  0.63728219  0.11707116  1
  O  O281  1  0.35650148  0.57042949  0.64475977  1
  O  O282  1  0.86607803  0.14275947  0.13568687  1
  O  O283  1  0.88497067  0.12791964  0.63698251  1
  O  O284  1  0.88185152  0.63166283  0.12508005  1
  O  O285  1  0.85938537  0.64701043  0.62257690  1
  O  O286  1  0.25192020  0.25546245  0.11569449  1
  O  O287  1  0.25774427  0.24254437  0.61508417  1
  O  O288  1  0.25630204  0.75782937  0.12027364  1
  O  O289  1  0.23109045  0.77365992  0.60695759  1
  O  O290  1  0.75161197  0.26226478  0.12958464  1
  O  O291  1  0.76587824  0.24360652  0.63077663  1
  O  O292  1  0.75789754  0.75233927  0.13273047  1
  O  O293  1  0.75700353  0.76561269  0.61927833  1
  O  O294  1  0.25481508  0.23752899  0.37306346  1
  O  O295  1  0.24865594  0.24855656  0.88038877  1
  O  O296  1  0.23866223  0.74632107  0.37614447  1
  O  O297  1  0.25933643  0.74929105  0.89470133  1
  O  O298  1  0.73541077  0.24664237  0.36796773  1
  O  O299  1  0.73472626  0.25784243  0.87341392  1
  O  O300  1  0.74761227  0.74700753  0.38027225  1
  O  O301  1  0.78669344  0.71626169  0.87120861  1
  O  O302  1  0.01802097  0.13192718  -0.00626139  1
  O  O303  1  0.01129274  0.13641841  0.50975933  1
  O  O304  1  0.00563164  0.61695665  0.00410011  1
  O  O305  1  0.00590577  0.61740611  0.49098389  1
  O  O306  1  0.50516186  0.13123157  0.01258356  1
  O  O307  1  0.50973424  0.11761025  0.49909814  1
  O  O308  1  0.51775769  0.62872422  0.01344642  1
  O  O309  1  0.51592004  0.61483018  0.48997787  1
  O  O310  1  0.49752680  0.38385740  0.49606000  1
  O  O311  1  0.49069151  0.36563394  0.99235521  1
  O  O312  1  0.50513778  0.86512210  0.48708067  1
  O  O313  1  0.48334780  0.86947965  0.99712628  1
  O  O314  1  0.99630624  0.37664563  0.49640375  1
  O  O315  1  1.00429558  0.38995314  0.99283773  1
  O  O316  1  0.98892254  0.87840584  0.50980833  1
  O  O317  1  0.99280596  0.86286177  1.01509295  1
  O  O318  1  0.49897785  0.49719205  0.37996892  1
  O  O319  1  0.49811875  0.48726402  0.86616334  1
  O  O320  1  0.48998507  0.98941253  0.36586930  1
  O  O321  1  0.48634263  0.99648331  0.87093824  1
  O  O322  1  0.97648623  0.49689726  0.38470722  1
  O  O323  1  0.99956934  0.49430175  0.88797881  1
  O  O324  1  0.99009942  0.98790314  0.36686743  1
  O  O325  1  1.03061380  0.97735840  0.88215425  1
  O  O326  1  0.02277097  0.00045567  0.12951381  1
  O  O327  1  0.00953647  0.01298647  0.63116767  1
  O  O328  1  0.00150975  0.50539523  0.11619852  1
  O  O329  1  -0.00043328  0.49170789  0.60626720  1
  O  O330  1  0.50848724  0.00726548  0.13572538  1
  O  O331  1  0.51508564  -0.01424980  0.61817057  1
  O  O332  1  0.51366312  0.49463288  0.13326086  1
  O  O333  1  0.51878809  0.50093344  0.60921071  1
  O  O334  1  0.25702569  0.37953096  0.23500873  1
  O  O335  1  0.22972242  0.38067868  0.75367503  1
  O  O336  1  0.25800444  0.88702636  0.24174619  1
  O  O337  1  0.23769725  0.88733409  0.73606489  1
  O  O338  1  0.74790593  0.38412405  0.23862587  1
  O  O339  1  0.73821027  0.38365858  0.74275034  1
  O  O340  1  0.74439418  0.88128034  0.24136933  1
  O  O341  1  0.76291383  0.87543300  0.74201726  1
  O  O342  1  0.25864445  0.11937213  0.25335203  1
  O  O343  1  0.24388532  0.11913420  0.76001657  1
  O  O344  1  0.25146473  0.60738445  0.24636726  1
  O  O345  1  0.21380356  0.60962494  0.75945574  1
  O  O346  1  0.75672903  0.11580029  0.24580961  1
  O  O347  1  0.76374250  0.12422299  0.74682605  1
  O  O348  1  0.74576443  0.61180685  0.26180755  1
  O  O349  1  0.73657877  0.60364276  0.75780696  1
  O  O350  1  0.36991666  0.11595218  0.36721821  1
  O  O351  1  0.36501469  0.11951987  0.88407293  1
  O  O352  1  0.37378438  0.60798287  0.38012639  1
  O  O353  1  0.37824499  0.60348090  0.88806884  1
  O  O354  1  0.87650154  0.12831274  0.35828860  1
  O  O355  1  0.87854175  0.12970771  0.85916809  1
  O  O356  1  0.86388290  0.62743041  0.38239049  1
  O  O357  1  0.84270759  0.66658025  0.87087025  1
  O  O358  1  0.13672457  0.38330864  0.11254756  1
  O  O359  1  0.11651285  0.36812237  0.63695776  1
  O  O360  1  0.13775886  0.88974463  0.12355243  1
  O  O361  1  0.12976110  0.88901150  0.62755913  1
  O  O362  1  0.63490988  0.38479914  0.12222532  1
  O  O363  1  0.62581814  0.38269552  0.63222727  1
  O  O364  1  0.62691790  0.87965079  0.13019679  1
  O  O365  1  0.64282240  0.88461459  0.62535403  1
  O  O366  1  0.10892258  0.24693689  0.23973505  1
  O  O367  1  0.11803719  0.25961458  0.75349486  1
  O  O368  1  0.12801683  0.75323353  0.24153932  1
  O  O369  1  0.11659174  0.76854558  0.74077293  1
  O  O370  1  0.61594733  0.23336680  0.26462990  1
  O  O371  1  0.62180813  0.25595249  0.75635580  1
  O  O372  1  0.61810425  0.75503569  0.25510664  1
  O  O373  1  0.54566793  0.70805200  0.70425728  1
  O  O374  1  0.38166994  0.23692085  0.25099851  1
  O  O375  1  0.39015097  0.25799213  0.75322710  1
  O  O376  1  0.38241888  0.75611541  0.24095786  1
  O  O377  1  0.32172385  0.73571726  0.74364451  1
  O  O378  1  0.88406395  0.24249274  0.24169540  1
  O  O379  1  0.88316575  0.23765116  0.74225866  1
  O  O380  1  0.86964862  0.74731764  0.24477902  1
  O  O381  1  0.89858969  0.75810100  0.73375522  1
  O  O382  1  0.38664219  0.49274591  0.48923085  1
  O  O383  1  0.37226189  0.48629463  0.99435928  1
  O  O384  1  0.38540625  0.99884595  0.49306350  1
  O  O385  1  0.36484163  0.98982298  0.99076187  1
  O  O386  1  0.87962702  0.49405239  0.49066316  1
  O  O387  1  0.88794203  0.50696509  1.00292257  1
  O  O388  1  0.86747717  0.98718161  0.50312266  1
  O  O389  1  0.88170847  0.97647084  1.04239678  1
  O  O390  1  0.13619640  0.00872639  0.01153938  1
  O  O391  1  0.13313526  0.01833781  0.51193016  1
  O  O392  1  0.11805002  0.51099191  0.01086925  1
  O  O393  1  0.10414228  0.50043832  0.50224692  1
  O  O394  1  0.62494901  0.00842840  0.01651217  1
  O  O395  1  0.63304111  0.00956145  0.50461917  1
  O  O396  1  0.62867069  0.50610639  0.01607849  1
  O  O397  1  0.62301510  0.50549103  0.50144438  1
  O  O398  1  0.36668494  0.37102398  0.11595457  1
  O  O399  1  0.38105537  0.38769400  0.60942795  1
  O  O400  1  0.36590807  0.87007589  0.11953772  1
  O  O401  1  0.35663052  0.88559128  0.62388562  1
  O  O402  1  0.86123977  0.36170347  0.12934666  1
  O  O403  1  0.87776128  0.35459835  0.63320617  1
  O  O404  1  0.86544890  0.85593747  0.12964718  1
  O  O405  1  0.86776118  0.87057834  0.61716487  1
  O  O406  1  0.13565657  0.11489663  0.38336854  1
  O  O407  1  0.13845759  0.13370595  0.88084095  1
  O  O408  1  0.11879492  0.61160791  0.37976070  1
  O  O409  1  0.12064512  0.61897434  0.89643324  1
  O  O410  1  0.62485577  0.12433928  0.38664588  1
  O  O411  1  0.61568186  0.13460080  0.88953459  1
  O  O412  1  0.63809474  0.63027467  0.38429971  1
  O  O413  1  0.61936150  0.61861469  0.89210361  1
