# generated using pymatgen
data_V79Zn79O256
_symmetry_space_group_name_H-M   'P 1'
_cell_length_a   16.95169404
_cell_length_b   16.87965138
_cell_length_c   16.90491974
_cell_angle_alpha   89.94561480
_cell_angle_beta   90.08773140
_cell_angle_gamma   89.88127904
_symmetry_Int_Tables_number   1
_chemical_formula_structural   V79Zn79O256
_chemical_formula_sum   'V79 Zn79 O256'
_cell_volume   4837.13326790
_cell_formula_units_Z   1
loop_
 _symmetry_equiv_pos_site_id
 _symmetry_equiv_pos_as_xyz
  1  'x, y, z'
loop_
 _atom_site_type_symbol
 _atom_site_label
 _atom_site_symmetry_multiplicity
 _atom_site_fract_x
 _atom_site_fract_y
 _atom_site_fract_z
 _atom_site_occupancy
  V  V0  1  0.85990006  0.00140175  0.38220279  1
  V  V1  1  0.50239476  0.62027203  0.12149221  1
  V  V2  1  0.24793832  0.74460597  0.49694112  1
  V  V3  1  0.37620146  0.74832652  0.12505644  1
  V  V4  1  0.62359603  0.50119770  0.11901974  1
  V  V5  1  0.62804520  0.01687807  0.62535252  1
  V  V6  1  0.24547890  0.12507692  0.88260173  1
  V  V7  1  0.11824722  0.50111757  0.62021762  1
  V  V8  1  0.00920989  0.88007322  0.36464719  1
  V  V9  1  0.24804176  0.49409482  0.25267869  1
  V  V10  1  0.50021886  0.38565241  0.36980373  1
  V  V11  1  0.88872113  0.62148915  0.25313792  1
  V  V12  1  0.50655827  0.86202415  0.87128355  1
  V  V13  1  0.86236892  0.25724564  0.61075746  1
  V  V14  1  0.01341420  0.11368843  0.11641820  1
  V  V15  1  0.11472758  0.37701211  0.75286495  1
  V  V16  1  0.63278796  0.74477439  0.37763391  1
  V  V17  1  0.00868010  0.37487363  0.39171008  1
  V  V18  1  0.23984560  0.12992719  0.37956853  1
  V  V19  1  0.49416664  0.38764473  0.88421394  1
  V  V20  1  0.75021197  0.24490887  -0.00233389  1
  V  V21  1  0.37886146  0.12675617  0.74476405  1
  V  V22  1  0.88127507  0.37951212  -0.00527902  1
  V  V23  1  0.75168708  0.50627198  0.25425616  1
  V  V24  1  0.36981652  0.62301822  0.26587695  1
  V  V25  1  0.01907742  0.01034266  0.50955158  1
  V  V26  1  0.37205831  0.37428842  0.49315513  1
  V  V27  1  0.87633948  0.49288855  0.38956286  1
  V  V28  1  0.36852942  0.38822179  0.00148170  1
  V  V29  1  0.00814549  0.51216433  0.00193892  1
  V  V30  1  0.11404955  0.73912566  0.86731331  1
  V  V31  1  0.62489347  0.24312004  0.87887006  1
  V  V32  1  0.69000205  0.21399032  0.43659555  1
  V  V33  1  0.50292804  0.00267734  0.00029316  1
  V  V34  1  0.49845515  0.25362109  0.25778795  1
  V  V35  1  0.37523986  0.25410278  0.62445843  1
  V  V36  1  0.50314810  0.12624555  0.12530652  1
  V  V37  1  0.12337069  0.75179734  0.36362476  1
  V  V38  1  0.89722370  0.87131187  -0.00058664  1
  V  V39  1  0.50482629  0.87645423  0.37487935  1
  V  V40  1  0.37758955  0.00080077  0.87283594  1
  V  V41  1  0.23714705  -0.00532377  0.24807622  1
  V  V42  1  0.00569391  0.25116335  0.25429292  1
  V  V43  1  0.87771667  0.50096279  0.87297718  1
  V  V44  1  0.87699858  0.24962580  0.12568762  1
  V  V45  1  0.74176325  0.75049670  -0.00126115  1
  V  V46  1  0.48898114  0.50581708  0.50038822  1
  V  V47  1  0.49800347  0.25022492  0.74779662  1
  V  V48  1  0.87935440  0.74512387  0.13288264  1
  V  V49  1  0.63698855  0.62350629  0.49594521  1
  V  V50  1  0.50013434  0.01282790  0.50732299  1
  V  V51  1  0.12286062  0.38047877  0.23263037  1
  V  V52  1  0.62317541  0.50061987  0.62192774  1
  V  V53  1  0.37853425  0.87559884  -0.00097327  1
  V  V54  1  0.38498514  0.61903012  0.75450883  1
  V  V55  1  0.24837665  -0.00163662  0.74333192  1
  V  V56  1  0.74992520  0.49649824  0.74657163  1
  V  V57  1  0.38789498  0.73943460  0.62540704  1
  V  V58  1  0.75549026  0.85923196  0.62324325  1
  V  V59  1  0.25027865  0.50750154  0.76032439  1
  V  V60  1  0.86947803  0.11418073  0.24829172  1
  V  V61  1  0.36852938  0.25173973  0.12029895  1
  V  V62  1  0.62454246  0.37629298  0.74979719  1
  V  V63  1  0.50424296  0.75288635  0.25248674  1
  V  V64  1  0.11967300  0.62459679  0.49800164  1
  V  V65  1  0.37357151  0.12307947  0.24716047  1
  V  V66  1  0.24932980  0.87322161  0.62417139  1
  V  V67  1  0.25215203  0.73978641  -0.01525676  1
  V  V68  1  -0.00479690  0.22719807  0.75004084  1
  V  V69  1  0.12061416  0.24969163  0.88208233  1
  V  V70  1  0.88100624  0.00568354  0.88116101  1
  V  V71  1  0.37527412  0.00070480  0.37429719  1
  V  V72  1  0.87145559  0.63613071  0.74580946  1
  V  V73  1  0.11825718  0.87871954  0.75043773  1
  V  V74  1  0.63002833  -0.00617376  0.13791644  1
  V  V75  1  -0.00486259  0.63589025  0.62355367  1
  V  V76  1  0.75159592  0.37710037  0.12565007  1
  V  V77  1  0.23802808  0.87642787  0.12652210  1
  V  V78  1  0.62089019  0.86149056  0.74973813  1
  Zn  Zn79  1  0.75661211  0.87175828  0.13887062  1
  Zn  Zn80  1  0.88293847  0.85471412  0.51180532  1
  Zn  Zn81  1  0.02363458  0.61982202  0.13199605  1
  Zn  Zn82  1  0.63648491  0.11904232  -0.00027559  1
  Zn  Zn83  1  0.68977963  0.92669030  0.29268503  1
  Zn  Zn84  1  0.24724325  0.37792951  0.62291384  1
  Zn  Zn85  1  0.85890130  0.12361831  0.74997745  1
  Zn  Zn86  1  0.24538412  0.25096967  0.00668984  1
  Zn  Zn87  1  0.63322022  0.37016152  0.25135448  1
  Zn  Zn88  1  0.61825066  0.62593092  -0.00987068  1
  Zn  Zn89  1  0.74146602  0.00409206  0.77056675  1
  Zn  Zn90  1  0.37717316  0.87159403  0.50198157  1
  Zn  Zn91  1  -0.01566374  0.76342630  0.74811115  1
  Zn  Zn92  1  0.23966781  0.24778481  0.49752769  1
  Zn  Zn93  1  0.74081419  0.63173266  0.87129903  1
  Zn  Zn94  1  0.18677784  0.19010967  0.19657086  1
  Zn  Zn95  1  0.18943208  0.19055130  0.69162451  1
  Zn  Zn96  1  0.19301997  0.67547686  0.18226276  1
  Zn  Zn97  1  0.18932649  0.68791511  0.68539442  1
  Zn  Zn98  1  0.68352778  0.18218024  0.26717717  1
  Zn  Zn99  1  0.69317799  0.18452952  0.69498167  1
  Zn  Zn100  1  0.69214223  0.68680298  0.18992752  1
  Zn  Zn101  1  0.68237362  0.68178350  0.68384888  1
  Zn  Zn102  1  0.31171771  0.31250622  0.31237934  1
  Zn  Zn103  1  0.30660830  0.31920958  0.81446684  1
  Zn  Zn104  1  0.31178640  0.81188259  0.31260635  1
  Zn  Zn105  1  0.32138557  0.80966585  0.80462116  1
  Zn  Zn106  1  0.82177028  0.31600314  0.31689115  1
  Zn  Zn107  1  0.81233752  0.31276692  0.81285042  1
  Zn  Zn108  1  0.82748772  0.80156617  0.33513873  1
  Zn  Zn109  1  0.80527829  0.82580830  0.81952664  1
  Zn  Zn110  1  0.18912131  0.44066676  0.43092651  1
  Zn  Zn111  1  0.18696186  0.43617139  0.93656618  1
  Zn  Zn112  1  0.18866541  0.93805979  0.43922758  1
  Zn  Zn113  1  0.18919183  0.92413347  0.93178173  1
  Zn  Zn114  1  0.68950988  0.42553289  0.43550197  1
  Zn  Zn115  1  0.68959463  0.43747326  0.93391470  1
  Zn  Zn116  1  0.68627369  0.93817756  0.45490384  1
  Zn  Zn117  1  0.69239770  0.92888726  0.94386907  1
  Zn  Zn118  1  0.19091338  0.05906733  0.06221717  1
  Zn  Zn119  1  0.31473859  0.06341896  0.56083502  1
  Zn  Zn120  1  0.30260555  0.56186833  0.07317221  1
  Zn  Zn121  1  0.30457573  0.56291805  0.56636794  1
  Zn  Zn122  1  0.81825750  0.05716231  0.06359021  1
  Zn  Zn123  1  0.80790332  0.07973234  0.56135743  1
  Zn  Zn124  1  0.81339846  0.56659698  0.06376748  1
  Zn  Zn125  1  0.81079933  0.56214568  0.56666815  1
  Zn  Zn126  1  0.43070462  0.44126866  0.18335917  1
  Zn  Zn127  1  0.43787962  0.43742172  0.68556998  1
  Zn  Zn128  1  0.43671971  0.93744632  0.18805810  1
  Zn  Zn129  1  0.43799873  0.93146379  0.68539576  1
  Zn  Zn130  1  0.93998808  0.44162759  0.18478045  1
  Zn  Zn131  1  0.93618324  0.43808362  0.68222112  1
  Zn  Zn132  1  0.94084190  0.93269710  0.18340578  1
  Zn  Zn133  1  0.93402032  0.95155988  0.68860641  1
  Zn  Zn134  1  0.05661505  0.06481830  0.31570526  1
  Zn  Zn135  1  0.06050127  0.05645274  0.92876655  1
  Zn  Zn136  1  0.06421769  0.55534803  0.32272470  1
  Zn  Zn137  1  0.05782955  0.56364889  0.80925434  1
  Zn  Zn138  1  0.56138956  0.07211938  0.32407355  1
  Zn  Zn139  1  0.56376786  0.06044752  0.80906967  1
  Zn  Zn140  1  0.56265936  0.56193571  0.30810851  1
  Zn  Zn141  1  0.56049898  0.56854240  0.81214397  1
  Zn  Zn142  1  0.49683108  0.22504330  0.47766649  1
  Zn  Zn143  1  0.43585178  0.19090727  0.93606708  1
  Zn  Zn144  1  0.44208458  0.68987738  0.44254980  1
  Zn  Zn145  1  0.43572997  0.68028230  0.93599543  1
  Zn  Zn146  1  0.93634286  0.18557106  0.43772115  1
  Zn  Zn147  1  0.93743544  0.18952171  0.93829778  1
  Zn  Zn148  1  0.93894888  0.68702209  0.43435455  1
  Zn  Zn149  1  0.92968807  0.68917884  0.93493737  1
  Zn  Zn150  1  0.05854047  0.31516790  0.06129966  1
  Zn  Zn151  1  0.05424956  0.30661813  0.57921160  1
  Zn  Zn152  1  0.07407955  0.77820201  0.06840547  1
  Zn  Zn153  1  0.06171913  0.81890855  0.55856448  1
  Zn  Zn154  1  0.56145601  0.31284898  0.06518233  1
  Zn  Zn155  1  0.67187717  0.31008217  0.57047188  1
  Zn  Zn156  1  0.56284754  0.81450720  0.06550677  1
  Zn  Zn157  1  0.56828357  0.81591315  0.56083300  1
  O  O158  1  0.11885883  0.12867335  0.12576186  1
  O  O159  1  0.13024519  0.15971121  0.59405090  1
  O  O160  1  0.11727696  0.67299470  0.10498596  1
  O  O161  1  0.11555053  0.62184592  0.61870078  1
  O  O162  1  0.60890340  0.11268171  0.12359194  1
  O  O163  1  0.61930136  0.11534619  0.63188539  1
  O  O164  1  0.61671851  0.61748201  0.12908486  1
  O  O165  1  0.62361628  0.61390811  0.60913230  1
  O  O166  1  0.37791703  0.37510656  0.38451386  1
  O  O167  1  0.38553977  0.37174650  0.88599557  1
  O  O168  1  0.38309084  0.88583528  0.37401135  1
  O  O169  1  0.38463468  0.88196074  0.87754923  1
  O  O170  1  0.89235474  0.38481729  0.37072882  1
  O  O171  1  0.86769400  0.38679801  0.88553808  1
  O  O172  1  0.88991219  0.89871941  0.37029558  1
  O  O173  1  0.88152929  0.86997107  0.89475036  1
  O  O174  1  0.25874843  0.00295011  0.36864220  1
  O  O175  1  0.26305065  0.00244896  0.86470008  1
  O  O176  1  0.23689421  0.51233830  0.35334670  1
  O  O177  1  0.24554147  0.50045019  0.85951811  1
  O  O178  1  0.75646152  -0.00918071  0.37513007  1
  O  O179  1  0.76880945  -0.01703274  0.88276386  1
  O  O180  1  0.76520000  0.48294513  0.36539596  1
  O  O181  1  0.75760740  0.50253114  0.86376504  1
  O  O182  1  0.23204539  0.53058607  0.15489090  1
  O  O183  1  0.23269352  0.49941698  0.63092637  1
  O  O184  1  0.24955883  0.98473536  0.13071771  1
  O  O185  1  0.26312304  0.98910196  0.63386431  1
  O  O186  1  0.74561557  0.49411365  0.13224868  1
  O  O187  1  0.73781734  0.49893878  0.63452133  1
  O  O188  1  0.73122748  1.00015432  0.12075392  1
  O  O189  1  0.73153279  1.00251486  0.61637265  1
  O  O190  1  0.01055551  0.37038919  0.24684321  1
  O  O191  1  0.01339085  0.38142039  0.75265729  1
  O  O192  1  0.00449854  0.88297354  0.26508647  1
  O  O193  1  0.01582524  0.87792057  0.73853854  1
  O  O194  1  0.48599142  0.37280493  0.25998938  1
  O  O195  1  0.50394158  0.37150918  0.76191464  1
  O  O196  1  0.49647574  0.86586851  0.26137021  1
  O  O197  1  0.51152768  0.87669083  0.75622302  1
  O  O198  1  0.49200884  0.13299147  0.24711010  1
  O  O199  1  0.48718912  0.13548198  0.76014577  1
  O  O200  1  0.48947034  0.63178662  0.24287418  1
  O  O201  1  0.48338810  0.60641874  0.73774507  1
  O  O202  1  0.99801513  0.13492173  0.24080115  1
  O  O203  1  0.99931183  0.13015262  0.75122952  1
  O  O204  1  0.99193724  0.61110865  0.24777768  1
  O  O205  1  0.98682078  0.62972991  0.74178128  1
  O  O206  1  0.37220754  0.25531263  0.00737654  1
  O  O207  1  0.38854697  0.26063593  0.51157125  1
  O  O208  1  0.37238185  0.75781530  0.00437955  1
  O  O209  1  0.36625710  0.74845820  0.50709747  1
  O  O210  1  0.87133548  0.25954436  0.00464315  1
  O  O211  1  0.88005399  0.25215675  0.51203528  1
  O  O212  1  0.86795100  0.75562199  0.01064992  1
  O  O213  1  0.86223777  0.76567819  0.44498924  1
  O  O214  1  0.12911837  0.22259029  0.54093320  1
  O  O215  1  0.12649667  0.25921330  0.98627866  1
  O  O216  1  0.13171271  0.74383736  0.49679895  1
  O  O217  1  0.14418291  0.76097490  0.97335976  1
  O  O218  1  0.60673242  0.23711583  0.50153442  1
  O  O219  1  0.63242421  0.24907830  0.99660055  1
  O  O220  1  0.61673959  0.73427693  0.49051098  1
  O  O221  1  0.63787765  0.74760093  1.01283046  1
  O  O222  1  0.48893574  0.24319852  0.12938397  1
  O  O223  1  0.48849761  0.25543396  0.64425200  1
  O  O224  1  0.49499609  0.74559181  0.13430335  1
  O  O225  1  0.48583292  0.75337510  0.61458878  1
  O  O226  1  0.99197151  0.24592271  0.12994085  1
  O  O227  1  0.98246749  0.24997531  0.64652437  1
  O  O228  1  0.98042384  0.74430464  0.12989575  1
  O  O229  1  1.00241996  0.74152409  0.62863179  1
  O  O230  1  -0.00979687  0.26297211  0.36245428  1
  O  O231  1  0.01516478  0.24407369  0.86918310  1
  O  O232  1  0.01424349  0.76657182  0.37706946  1
  O  O233  1  0.01114384  0.74688253  0.86922967  1
  O  O234  1  0.49217561  0.26639102  0.36541571  1
  O  O235  1  0.50592040  0.25911732  0.86858166  1
  O  O236  1  0.50422692  0.75883276  0.37042712  1
  O  O237  1  0.49822672  0.76361299  0.88290565  1
  O  O238  1  0.25932715  0.12491992  0.48285614  1
  O  O239  1  0.25324392  0.12712957  0.98592929  1
  O  O240  1  0.23661581  0.63566814  0.50417306  1
  O  O241  1  0.26169850  0.64196163  1.00067586  1
  O  O242  1  0.74779782  0.15000300  0.48711197  1
  O  O243  1  0.75341982  0.14081451  1.01126105  1
  O  O244  1  0.73547340  0.61912632  0.49746914  1
  O  O245  1  0.75066752  0.63899697  1.00036000  1
  O  O246  1  0.26528783  0.37022593  -0.00889912  1
  O  O247  1  0.25657449  0.36843702  0.49635882  1
  O  O248  1  0.26387178  0.86821180  0.00858261  1
  O  O249  1  0.25276600  0.86741528  0.50958155  1
  O  O250  1  0.75858994  0.37090908  0.00937792  1
  O  O251  1  0.72563666  0.32404473  0.47120112  1
  O  O252  1  0.75300787  0.85952248  0.01532754  1
  O  O253  1  0.74894096  0.87232227  0.52002973  1
  O  O254  1  0.12554058  0.48646240  0.25071739  1
  O  O255  1  0.13188939  0.49754039  0.74472590  1
  O  O256  1  0.13895335  1.00111758  0.25594334  1
  O  O257  1  0.14224898  0.98421847  0.75185834  1
  O  O258  1  0.63557238  0.49671108  0.24267563  1
  O  O259  1  0.62863707  0.49586312  0.74224963  1
  O  O260  1  0.62083160  1.00550384  0.24380567  1
  O  O261  1  0.61997890  0.99301407  0.73500068  1
  O  O262  1  0.36914511  0.00469358  0.25458380  1
  O  O263  1  0.37455400  0.00599719  0.75601346  1
  O  O264  1  0.36090295  0.51242317  0.24553141  1
  O  O265  1  0.35993086  0.50662979  0.73891594  1
  O  O266  1  0.88147043  0.01058720  0.25313570  1
  O  O267  1  0.87064148  0.00170430  0.76806081  1
  O  O268  1  0.86898048  0.50489729  0.25233588  1
  O  O269  1  0.86627486  0.50444179  0.75375977  1
  O  O270  1  0.11068223  0.37807324  0.36685555  1
  O  O271  1  0.13439794  0.35799188  0.86454981  1
  O  O272  1  0.11812244  0.86727429  0.37823353  1
  O  O273  1  0.13342124  0.86243624  0.85425482  1
  O  O274  1  0.60369281  0.38195943  0.36538623  1
  O  O275  1  0.61256483  0.36923231  0.87146228  1
  O  O276  1  0.62081345  0.86473586  0.37833429  1
  O  O277  1  0.61963952  0.88234657  0.85932390  1
  O  O278  1  0.38626462  0.13020127  0.13771988  1
  O  O279  1  0.37032367  0.13365717  0.63805907  1
  O  O280  1  0.38238396  0.63559982  0.13194694  1
  O  O281  1  0.37303426  0.63522849  0.62515825  1
  O  O282  1  0.88996513  0.13010661  0.13044678  1
  O  O283  1  0.86497906  0.14716625  0.63375205  1
  O  O284  1  0.87637213  0.62556309  0.14154422  1
  O  O285  1  0.88277784  0.61968214  0.63325697  1
  O  O286  1  0.26382258  0.24120599  0.12645680  1
  O  O287  1  0.26612591  0.25445573  0.62450039  1
  O  O288  1  0.26419205  0.76013713  0.11594938  1
  O  O289  1  0.25798161  0.75516447  0.61556735  1
  O  O290  1  0.76534497  0.26156733  0.11776307  1
  O  O291  1  0.75469692  0.25685803  0.63198592  1
  O  O292  1  0.76236339  0.74558653  0.12088940  1
  O  O293  1  0.74926781  0.75958658  0.63043674  1
  O  O294  1  0.25355714  0.23433625  0.37376846  1
  O  O295  1  0.23934969  0.23967497  0.86954666  1
  O  O296  1  0.23788335  0.76273122  0.38725524  1
  O  O297  1  0.26166840  0.75175943  0.88371597  1
  O  O298  1  0.73961094  0.24812483  0.34555010  1
  O  O299  1  0.73692839  0.26145653  0.88809264  1
  O  O300  1  0.72848248  0.74417759  0.37021324  1
  O  O301  1  0.75146429  0.75378479  0.89450997  1
  O  O302  1  0.00396747  0.12728839  0.01263551  1
  O  O303  1  0.00336922  0.10871139  0.48557497  1
  O  O304  1  -0.00654689  0.61475668  -0.00177798  1
  O  O305  1  0.00792672  0.63223074  0.50934721  1
  O  O306  1  0.49500374  0.11526697  0.00770451  1
  O  O307  1  0.49065200  0.11044886  0.49751820  1
  O  O308  1  0.49931969  0.63125817  0.01720201  1
  O  O309  1  0.50451821  0.60779380  0.49540660  1
  O  O310  1  0.48989633  0.38702807  0.48247560  1
  O  O311  1  0.49134215  0.37274087  0.99042526  1
  O  O312  1  0.49959513  0.88081979  0.48680815  1
  O  O313  1  0.49645519  0.88193874  0.99328795  1
  O  O314  1  1.01196551  0.36390541  0.49007368  1
  O  O315  1  0.98582202  0.38687687  1.00485427  1
  O  O316  1  0.99547116  0.88758558  0.49286172  1
  O  O317  1  0.99448345  0.85707675  1.01045226  1
  O  O318  1  0.49689059  0.49443878  0.38148576  1
  O  O319  1  0.50189315  0.48574741  0.87435296  1
  O  O320  1  0.49639914  0.99546664  0.38297906  1
  O  O321  1  0.49382394  0.99552691  0.88131143  1
  O  O322  1  0.99107139  0.48532201  0.38035085  1
  O  O323  1  0.98449525  0.50608063  0.88126259  1
  O  O324  1  1.00137388  0.99143182  0.38474439  1
  O  O325  1  0.98198960  0.99314988  0.87925783  1
  O  O326  1  0.00284545  0.01592599  0.13048921  1
  O  O327  1  -0.00827077  0.00163129  0.60672380  1
  O  O328  1  -0.00223378  0.50552683  0.10818149  1
  O  O329  1  0.01160965  0.51236378  0.63045138  1
  O  O330  1  0.50412482  0.00454190  0.11917830  1
  O  O331  1  0.50357701  -0.00566985  0.61236497  1
  O  O332  1  0.51048657  0.50867437  0.13493227  1
  O  O333  1  0.51040445  0.49056463  0.60774627  1
  O  O334  1  0.23998316  0.38519204  0.25126307  1
  O  O335  1  0.24077740  0.38758182  0.74610076  1
  O  O336  1  0.25822233  0.87865463  0.23363925  1
  O  O337  1  0.25240850  0.88058364  0.74209676  1
  O  O338  1  0.75507892  0.38188536  0.23687191  1
  O  O339  1  0.73501929  0.38465244  0.76061842  1
  O  O340  1  0.76403943  0.85788269  0.25231802  1
  O  O341  1  0.73636303  0.88206868  0.74178791  1
  O  O342  1  0.25696108  0.11554449  0.25665706  1
  O  O343  1  0.25707294  0.11636270  0.75601304  1
  O  O344  1  0.26916512  0.63843203  0.25730855  1
  O  O345  1  0.25666202  0.61255063  0.74316775  1
  O  O346  1  0.77154543  0.12255396  0.23145911  1
  O  O347  1  0.74544379  0.11791241  0.76553751  1
  O  O348  1  0.75896160  0.61066091  0.25194392  1
  O  O349  1  0.75506470  0.61443281  0.74635905  1
  O  O350  1  0.36980296  0.11103627  0.36066441  1
  O  O351  1  0.36837919  0.11818822  0.86687509  1
  O  O352  1  0.38462962  0.62800611  0.36374671  1
  O  O353  1  0.38073504  0.62639739  0.85474314  1
  O  O354  1  0.87974169  0.11402325  0.35800479  1
  O  O355  1  0.87434967  0.10850946  0.88924063  1
  O  O356  1  0.88647564  0.60321807  0.36411784  1
  O  O357  1  0.86706028  0.61772063  0.86307179  1
  O  O358  1  0.12624680  0.37527308  0.13316876  1
  O  O359  1  0.12339713  0.38408332  0.63321577  1
  O  O360  1  0.14179909  0.86255820  0.11953058  1
  O  O361  1  0.14068641  0.86414859  0.63805836  1
  O  O362  1  0.63459917  0.38208662  0.12591438  1
  O  O363  1  0.62049550  0.38369801  0.64117296  1
  O  O364  1  0.61996266  0.89104491  0.13070034  1
  O  O365  1  0.63203797  0.87906162  0.63461747  1
  O  O366  1  0.11658876  0.26501588  0.24828544  1
  O  O367  1  0.11200364  0.25504842  0.75383878  1
  O  O368  1  0.13557963  0.74427126  0.26686935  1
  O  O369  1  0.12879947  0.75889343  0.75612020  1
  O  O370  1  0.60198498  0.25671883  0.23505954  1
  O  O371  1  0.61731472  0.25836136  0.75874217  1
  O  O372  1  0.61206640  0.73746376  0.26355882  1
  O  O373  1  0.62528354  0.76210880  0.74570957  1
  O  O374  1  0.37940518  0.24416898  0.24243324  1
  O  O375  1  0.37823712  0.24643866  0.74817583  1
  O  O376  1  0.38452618  0.74391225  0.24523922  1
  O  O377  1  0.37316088  0.73409261  0.73495522  1
  O  O378  1  0.88526922  0.24303485  0.24039835  1
  O  O379  1  0.88982881  0.24204634  0.77155318  1
  O  O380  1  0.87302450  0.72614539  0.25264027  1
  O  O381  1  0.86799571  0.74023475  0.75936357  1
  O  O382  1  0.38369877  0.49465353  0.50835208  1
  O  O383  1  0.36730902  0.48784589  1.01203254  1
  O  O384  1  0.38522009  0.99486668  0.49269239  1
  O  O385  1  0.38576518  0.98817892  0.98860441  1
  O  O386  1  0.86604865  0.49892564  0.48803269  1
  O  O387  1  0.87686122  0.49698969  0.99173032  1
  O  O388  1  0.87014714  1.00994118  0.48411463  1
  O  O389  1  0.87690290  0.98040944  1.00071975  1
  O  O390  1  0.13207596  -0.00280554  -0.00933203  1
  O  O391  1  0.11970517  -0.00283583  0.50679470  1
  O  O392  1  0.10582207  0.49614097  -0.01326578  1
  O  O393  1  0.13117385  0.51300897  0.50651488  1
  O  O394  1  0.61413716  -0.00068073  0.00707870  1
  O  O395  1  0.60946383  0.00078732  0.51064205  1
  O  O396  1  0.63461392  0.50257090  0.01551192  1
  O  O397  1  0.62043396  0.50450444  0.50149745  1
  O  O398  1  0.38153421  0.36573126  0.11077604  1
  O  O399  1  0.37334639  0.37080248  0.61429412  1
  O  O400  1  0.37935614  0.86538259  0.11505201  1
  O  O401  1  0.36724158  0.85972110  0.62614200  1
  O  O402  1  0.87046892  0.36999026  0.11820113  1
  O  O403  1  0.87350072  0.35796548  0.63610843  1
  O  O404  1  0.87612407  0.86561445  0.11816336  1
  O  O405  1  0.85920903  0.87954167  0.62858397  1
  O  O406  1  0.14137383  0.12199705  0.37003598  1
  O  O407  1  0.13306052  0.13760370  0.87389838  1
  O  O408  1  0.11209631  0.64052946  0.38577214  1
  O  O409  1  0.12780798  0.64002676  0.86256418  1
  O  O410  1  0.63168865  0.14662953  0.37030080  1
  O  O411  1  0.61505436  0.13859091  0.88080836  1
  O  O412  1  0.61694437  0.63156952  0.38545938  1
  O  O413  1  0.62735506  0.62414762  0.87766150  1
