# generated using pymatgen
data_V79Zn79O256
_symmetry_space_group_name_H-M   'P 1'
_cell_length_a   16.83438000
_cell_length_b   16.83167745
_cell_length_c   16.83248230
_cell_angle_alpha   89.99556546
_cell_angle_beta   89.96254680
_cell_angle_gamma   89.95472738
_symmetry_Int_Tables_number   1
_chemical_formula_structural   V79Zn79O256
_chemical_formula_sum   'V79 Zn79 O256'
_cell_volume   4769.49571697
_cell_formula_units_Z   1
loop_
 _symmetry_equiv_pos_site_id
 _symmetry_equiv_pos_as_xyz
  1  'x, y, z'
loop_
 _atom_site_type_symbol
 _atom_site_label
 _atom_site_symmetry_multiplicity
 _atom_site_fract_x
 _atom_site_fract_y
 _atom_site_fract_z
 _atom_site_occupancy
  V  V0  1  -0.00316220  0.24527192  0.25335314  1
  V  V1  1  0.87055783  0.37642552  0.00123958  1
  V  V2  1  0.37278469  0.75349822  0.12568698  1
  V  V3  1  -0.00438938  0.49121323  0.49573963  1
  V  V4  1  0.36490643  0.24964791  0.12072755  1
  V  V5  1  -0.00143194  0.62945913  0.12846879  1
  V  V6  1  0.37459341  0.50184996  0.86775312  1
  V  V7  1  0.37991684  0.87513416  -0.00427674  1
  V  V8  1  0.38314645  0.24722412  0.62104474  1
  V  V9  1  0.87324136  0.75200244  0.60564926  1
  V  V10  1  0.64068374  0.49792357  0.12722927  1
  V  V11  1  0.88157864  0.24123928  0.63494934  1
  V  V12  1  0.50053799  0.62175749  0.12455253  1
  V  V13  1  0.62912956  0.63127928  -0.01399656  1
  V  V14  1  0.00562748  -0.00681424  -0.01815589  1
  V  V15  1  -0.00975459  0.87994744  0.38400646  1
  V  V16  1  0.87046466  0.49411248  0.36962321  1
  V  V17  1  0.75151537  0.24785483  -0.00181552  1
  V  V18  1  0.11929471  0.62382030  0.50193053  1
  V  V19  1  -0.01470997  0.01000689  0.50251179  1
  V  V20  1  0.86017798  0.63182647  0.24392356  1
  V  V21  1  0.25062267  0.13993934  0.87494560  1
  V  V22  1  0.24905449  0.76153868  0.50703620  1
  V  V23  1  0.74664918  0.87255848  0.61768095  1
  V  V24  1  0.36842667  0.76300159  0.63126436  1
  V  V25  1  0.11944202  0.49919066  0.62865232  1
  V  V26  1  0.50354590  0.37348492  0.86617626  1
  V  V27  1  0.50193459  0.75658706  0.25174655  1
  V  V28  1  0.11337706  0.87003975  0.75704699  1
  V  V29  1  0.62768856  0.25436366  0.87078587  1
  V  V30  1  0.00272765  0.36637238  0.86860872  1
  V  V31  1  0.62775742  0.87724872  0.25169289  1
  V  V32  1  0.36819259  0.36932099  -0.00340547  1
  V  V33  1  0.24684902  0.37475024  0.62265516  1
  V  V34  1  0.24826594  0.62825455  0.86949007  1
  V  V35  1  0.50224721  0.13351315  0.12798216  1
  V  V36  1  0.76756690  0.00527457  0.76856546  1
  V  V37  1  0.11426685  0.38295011  0.24641697  1
  V  V38  1  0.62358087  0.01906235  0.63086432  1
  V  V39  1  0.12860417  0.87510783  0.24402365  1
  V  V40  1  0.24551167  0.24430244  0.49730421  1
  V  V41  1  0.24973013  0.11972627  0.37373210  1
  V  V42  1  0.25448199  0.61697048  0.37604254  1
  V  V43  1  0.87779322  0.88200041  -0.00512925  1
  V  V44  1  0.13035840  0.14007981  -0.00420116  1
  V  V45  1  0.25358483  -0.00325207  0.24319226  1
  V  V46  1  0.62698218  0.75104819  0.39213044  1
  V  V47  1  0.00054491  0.11880872  0.12591602  1
  V  V48  1  0.75956814  0.74753679  -0.00490934  1
  V  V49  1  0.63156916  0.12420698  -0.00437628  1
  V  V50  1  0.48525313  0.62337687  0.62747263  1
  V  V51  1  0.37286640  0.38221541  0.48989341  1
  V  V52  1  0.87352295  0.51323804  0.86570939  1
  V  V53  1  0.50366486  -0.00457879  -0.00543700  1
  V  V54  1  0.12194053  0.75106062  0.37458030  1
  V  V55  1  0.12086293  0.35974610  0.74972836  1
  V  V56  1  0.00353699  0.50093411  0.00499995  1
  V  V57  1  0.61563846  0.24409646  0.37213485  1
  V  V58  1  0.74401785  0.37482671  0.63141345  1
  V  V59  1  0.25228242  -0.01033888  0.74715609  1
  V  V60  1  0.25900737  0.49724616  0.24376031  1
  V  V61  1  0.50406940  0.75290046  0.76009694  1
  V  V62  1  0.49636570  0.38047054  0.36338791  1
  V  V63  1  0.63463144  -0.00137857  0.12917804  1
  V  V64  1  -0.00778665  0.74741089  0.76842078  1
  V  V65  1  0.38239825  0.12923508  0.74689599  1
  V  V66  1  0.74112145  0.51234304  0.75318734  1
  V  V67  1  0.24693633  0.75573482  0.00387124  1
  V  V68  1  0.87384798  0.24875105  0.12550614  1
  V  V69  1  0.12099571  0.24880680  0.37510850  1
  V  V70  1  0.12692891  0.62437398  0.00526964  1
  V  V71  1  0.62220159  0.50564762  0.61928326  1
  V  V72  1  0.74483271  0.24517738  0.49981853  1
  V  V73  1  0.74496782  0.62504287  0.39575505  1
  V  V74  1  0.12181327  0.00614539  0.61884326  1
  V  V75  1  0.63963710  0.37533550  0.24506809  1
  V  V76  1  0.76088526  0.12023127  0.36933064  1
  V  V77  1  0.37797289  0.12683199  0.25069865  1
  V  V78  1  0.49966800  0.51186907  0.49160723  1
  Zn  Zn79  1  0.51646935  0.24761403  0.73663638  1
  Zn  Zn80  1  0.62872232  0.87376950  0.76672095  1
  Zn  Zn81  1  0.50238500  0.49761782  -0.00231235  1
  Zn  Zn82  1  0.13114153  -0.00836859  0.11677097  1
  Zn  Zn83  1  0.24047937  0.37646331  0.11416497  1
  Zn  Zn84  1  -0.00877826  0.75646438  0.24477407  1
  Zn  Zn85  1  0.87328386  0.37297040  0.49843310  1
  Zn  Zn86  1  0.25230082  0.50388650  0.74509252  1
  Zn  Zn87  1  0.77545358  0.85919596  0.13855972  1
  Zn  Zn88  1  0.77992538  -0.00111330  0.26005389  1
  Zn  Zn89  1  0.38371156  0.61826441  0.25947254  1
  Zn  Zn90  1  0.37903776  -0.00180064  0.87172431  1
  Zn  Zn91  1  0.42468003  -0.08063727  0.42182934  1
  Zn  Zn92  1  0.50348424  0.01540251  0.51275632  1
  Zn  Zn93  1  -0.01336691  0.62385876  0.63632077  1
  Zn  Zn94  1  0.18441567  0.18678400  0.18747875  1
  Zn  Zn95  1  0.19106961  0.18174300  0.68354668  1
  Zn  Zn96  1  0.18585678  0.68259055  0.18687369  1
  Zn  Zn97  1  0.18049242  0.68897967  0.68751285  1
  Zn  Zn98  1  0.68981063  0.18875632  0.18879160  1
  Zn  Zn99  1  0.70770296  0.18378991  0.69617409  1
  Zn  Zn100  1  0.68600686  0.68988501  0.18139417  1
  Zn  Zn101  1  0.68490739  0.68943670  0.68174062  1
  Zn  Zn102  1  0.31017643  0.30953085  0.30697625  1
  Zn  Zn103  1  0.31304225  0.31688330  0.80624738  1
  Zn  Zn104  1  0.30697661  0.80761270  0.30854934  1
  Zn  Zn105  1  0.31739162  0.80818840  0.81542218  1
  Zn  Zn106  1  0.81010705  0.30666508  0.31165145  1
  Zn  Zn107  1  0.81118344  0.31880700  0.81289455  1
  Zn  Zn108  1  0.80702265  0.81190245  0.32176248  1
  Zn  Zn109  1  0.81173361  0.81837236  0.81259457  1
  Zn  Zn110  1  0.18292221  0.43455691  0.43217869  1
  Zn  Zn111  1  0.18606738  0.43946958  0.93306560  1
  Zn  Zn112  1  0.18455734  0.94049377  0.43410662  1
  Zn  Zn113  1  0.19219553  0.93942236  0.93227099  1
  Zn  Zn114  1  0.68566518  0.43553855  0.43785345  1
  Zn  Zn115  1  0.68851038  0.43955185  0.93848722  1
  Zn  Zn116  1  0.67625374  0.94211741  0.44201944  1
  Zn  Zn117  1  0.69093342  0.92902675  0.93604659  1
  Zn  Zn118  1  0.31363148  0.06221701  0.06149870  1
  Zn  Zn119  1  0.31591542  0.05855433  0.56233799  1
  Zn  Zn120  1  0.31453208  0.55988676  0.05889378  1
  Zn  Zn121  1  0.30951433  0.56358348  0.55937797  1
  Zn  Zn122  1  0.81761473  0.05991778  0.06196983  1
  Zn  Zn123  1  0.80289120  0.06154661  0.56579048  1
  Zn  Zn124  1  0.81407642  0.56523355  0.05846714  1
  Zn  Zn125  1  0.81442613  0.56342918  0.56707468  1
  Zn  Zn126  1  0.43869630  0.43510917  0.18160202  1
  Zn  Zn127  1  0.43764394  0.43332207  0.68355570  1
  Zn  Zn128  1  0.44040383  0.94105714  0.18378141  1
  Zn  Zn129  1  0.44009608  0.93658013  0.68419337  1
  Zn  Zn130  1  0.93230878  0.43895849  0.18875640  1
  Zn  Zn131  1  0.93178648  0.43189804  0.68532538  1
  Zn  Zn132  1  0.94287895  0.93615255  0.18518053  1
  Zn  Zn133  1  0.93566620  0.93238610  0.68352835  1
  Zn  Zn134  1  0.06065118  0.05954569  0.31378665  1
  Zn  Zn135  1  0.07059622  0.06572202  0.80881645  1
  Zn  Zn136  1  0.05730657  0.56382235  0.31243085  1
  Zn  Zn137  1  0.06233058  0.56432846  0.81672276  1
  Zn  Zn138  1  0.55647004  0.05721232  0.31619738  1
  Zn  Zn139  1  0.57103165  0.06068011  0.81053696  1
  Zn  Zn140  1  0.56844330  0.56358944  0.31081249  1
  Zn  Zn141  1  0.55727123  0.56418463  0.80588379  1
  Zn  Zn142  1  0.43684868  0.18429743  0.43655037  1
  Zn  Zn143  1  0.44173316  0.18654260  0.93675155  1
  Zn  Zn144  1  0.42579324  0.72480697  0.42685763  1
  Zn  Zn145  1  0.43514575  0.68337396  0.94073904  1
  Zn  Zn146  1  0.93475359  0.18725766  0.44534352  1
  Zn  Zn147  1  0.94289577  0.18643327  0.93851994  1
  Zn  Zn148  1  0.93523318  0.68370264  0.43372953  1
  Zn  Zn149  1  0.93736594  0.69021612  0.94014694  1
  Zn  Zn150  1  0.05822985  0.31544645  0.06407178  1
  Zn  Zn151  1  0.05981717  0.30772742  0.56211255  1
  Zn  Zn152  1  0.05968751  0.80942728  0.05808575  1
  Zn  Zn153  1  0.06126645  0.82115624  0.57418140  1
  Zn  Zn154  1  0.55946750  0.31534406  0.05879786  1
  Zn  Zn155  1  0.56342571  0.32081500  0.55450382  1
  Zn  Zn156  1  0.56830419  0.81251970  0.06195711  1
  Zn  Zn157  1  0.55854829  0.82036791  0.57347004  1
  O  O158  1  0.12051234  0.12522431  0.10936870  1
  O  O159  1  0.11656504  0.10642588  0.64160379  1
  O  O160  1  0.11542078  0.62183506  0.11596301  1
  O  O161  1  0.12235502  0.61514043  0.61640495  1
  O  O162  1  0.62031387  0.12186762  0.11958974  1
  O  O163  1  0.63195612  0.11933619  0.63548288  1
  O  O164  1  0.61956600  0.61205511  0.12147768  1
  O  O165  1  0.61306454  0.61205611  0.62356729  1
  O  O166  1  0.38137970  0.36689089  0.38037105  1
  O  O167  1  0.38085562  0.37895683  0.87896106  1
  O  O168  1  0.39105378  0.82609208  0.37710588  1
  O  O169  1  0.37439429  0.87667596  0.89049560  1
  O  O170  1  0.86433365  0.39094516  0.37327244  1
  O  O171  1  0.88602545  0.38324098  0.88169430  1
  O  O172  1  0.89139641  0.86976535  0.37421048  1
  O  O173  1  0.87989994  0.86890964  0.89557514  1
  O  O174  1  0.24544550  0.01131078  0.36491933  1
  O  O175  1  0.25474586  0.00963643  0.86101465  1
  O  O176  1  0.24283213  0.50751519  0.36394966  1
  O  O177  1  0.25603189  0.50961079  0.87170333  1
  O  O178  1  0.73972716  0.01666660  0.37748189  1
  O  O179  1  0.75669579  -0.00599936  0.87003278  1
  O  O180  1  0.75836349  0.51312337  0.38198459  1
  O  O181  1  0.75992912  0.49368951  0.86280912  1
  O  O182  1  0.24994079  0.50080786  0.13889050  1
  O  O183  1  0.23694356  0.49420768  0.62271915  1
  O  O184  1  0.24712981  1.00454574  0.13663678  1
  O  O185  1  0.24110323  1.00834754  0.64054481  1
  O  O186  1  0.73984882  0.50014137  0.12178566  1
  O  O187  1  0.74324150  0.49699784  0.63242624  1
  O  O188  1  0.73996454  1.00568366  0.13048821  1
  O  O189  1  0.74352704  0.99016669  0.63575603  1
  O  O190  1  0.00819209  0.36675212  0.24561806  1
  O  O191  1  0.00396142  0.38011161  0.76141962  1
  O  O192  1  0.01095976  0.87283948  0.26412779  1
  O  O193  1  0.00722190  0.86769994  0.75378382  1
  O  O194  1  0.50456289  0.38048253  0.25863801  1
  O  O195  1  0.49721832  0.36876538  0.76103356  1
  O  O196  1  0.50871439  0.86482550  0.24501783  1
  O  O197  1  0.49707772  0.85677253  0.74650915  1
  O  O198  1  0.49057909  0.11799931  0.23930336  1
  O  O199  1  0.48610827  0.12982423  0.75982587  1
  O  O200  1  0.50236699  0.63207455  0.24051687  1
  O  O201  1  0.49867725  0.63359200  0.73569277  1
  O  O202  1  1.01171540  0.13451913  0.23722081  1
  O  O203  1  0.97385753  0.13236364  0.78149250  1
  O  O204  1  0.99091909  0.62801978  0.24320223  1
  O  O205  1  1.01190784  0.64202507  0.74918223  1
  O  O206  1  0.37885593  0.25734976  0.00652749  1
  O  O207  1  0.36478790  0.26090981  0.50330801  1
  O  O208  1  0.37013035  0.75558831  0.00673999  1
  O  O209  1  0.35536072  0.74060140  0.51601787  1
  O  O210  1  0.87118721  0.25474322  0.00194100  1
  O  O211  1  0.86204132  0.25454472  0.50589968  1
  O  O212  1  0.86651258  0.75423456  0.00328126  1
  O  O213  1  0.87600757  0.75204837  0.50556946  1
  O  O214  1  0.13500815  0.25754794  0.48999891  1
  O  O215  1  0.12121380  0.23912270  0.99928314  1
  O  O216  1  0.13083997  0.74294324  0.49986146  1
  O  O217  1  0.13566353  0.73962369  1.00499630  1
  O  O218  1  0.63116951  0.26131023  0.48071248  1
  O  O219  1  0.63392798  0.24464078  0.99819430  1
  O  O220  1  0.61506000  0.75351363  0.48979425  1
  O  O221  1  0.62884231  0.73571426  0.99944366  1
  O  O222  1  0.49372533  0.23869146  0.11970785  1
  O  O223  1  0.48859498  0.26134919  0.62138693  1
  O  O224  1  0.49663733  0.74174315  0.13152299  1
  O  O225  1  0.48293526  0.74168446  0.62507324  1
  O  O226  1  0.99447064  0.24120694  0.13038740  1
  O  O227  1  0.98202962  0.25339773  0.62092259  1
  O  O228  1  0.99981653  0.73473938  0.12477177  1
  O  O229  1  0.98421986  0.75301326  0.62963201  1
  O  O230  1  0.00649213  0.23980764  0.36510747  1
  O  O231  1  -0.00044427  0.26786291  0.87875242  1
  O  O232  1  0.00984323  0.75762131  0.37803676  1
  O  O233  1  0.00471495  0.74699460  0.86840397  1
  O  O234  1  0.51041803  0.26195185  0.37739947  1
  O  O235  1  0.51109884  0.25719958  0.87480591  1
  O  O236  1  0.52165094  0.73294528  0.36148583  1
  O  O237  1  0.48890320  0.73909656  0.85854861  1
  O  O238  1  0.25705958  0.13663459  0.49017824  1
  O  O239  1  0.24082485  0.12086416  0.98859319  1
  O  O240  1  0.23514129  0.62517739  0.49349053  1
  O  O241  1  0.24338498  0.63024983  0.99662330  1
  O  O242  1  0.74638396  0.13764528  0.48894604  1
  O  O243  1  0.74301230  0.13350277  1.00374989  1
  O  O244  1  0.74638347  0.62629458  0.49455806  1
  O  O245  1  0.74101840  0.63410626  1.00042302  1
  O  O246  1  0.26088067  0.38007618  -0.00254215  1
  O  O247  1  0.25422801  0.36894791  0.50053086  1
  O  O248  1  0.25720420  0.86337706  -0.00269342  1
  O  O249  1  0.24421465  0.85978333  0.49647231  1
  O  O250  1  0.76273994  0.36806778  -0.00139316  1
  O  O251  1  0.74875560  0.36716627  0.50803995  1
  O  O252  1  0.76606704  0.87168309  0.00808766  1
  O  O253  1  0.74378474  0.88010979  0.51729087  1
  O  O254  1  0.12402662  0.48653258  0.25482208  1
  O  O255  1  0.12133537  0.49562253  0.73716072  1
  O  O256  1  0.13305874  0.99116447  0.24799898  1
  O  O257  1  0.13465434  0.99227774  0.74707962  1
  O  O258  1  0.62556996  0.49094639  0.23731262  1
  O  O259  1  0.63513677  0.50126672  0.74263591  1
  O  O260  1  0.62037653  0.98930161  0.24408288  1
  O  O261  1  0.63834834  0.99669112  0.74596266  1
  O  O262  1  0.36745522  0.01091227  0.24323591  1
  O  O263  1  0.36585930  0.00784028  0.74652246  1
  O  O264  1  0.36324678  0.49930123  0.24971260  1
  O  O265  1  0.37217407  0.49280393  0.76155893  1
  O  O266  1  0.88892870  0.01114075  0.24491488  1
  O  O267  1  0.86756784  -0.00765485  0.74943516  1
  O  O268  1  0.87734290  0.51076783  0.26309253  1
  O  O269  1  0.86806083  0.50053317  0.75979640  1
  O  O270  1  0.12722123  0.36112855  0.35992144  1
  O  O271  1  0.11133030  0.38340624  0.86517031  1
  O  O272  1  0.12026546  0.86620029  0.36818393  1
  O  O273  1  0.13267131  0.87636973  0.85650004  1
  O  O274  1  0.61929531  0.37454657  0.35977367  1
  O  O275  1  0.61597154  0.36681263  0.88471287  1
  O  O276  1  0.63369404  0.85909547  0.36715609  1
  O  O277  1  0.61397962  0.87333848  0.87996846  1
  O  O278  1  0.38199197  0.13178699  0.12705267  1
  O  O279  1  0.36482912  0.13728185  0.63582213  1
  O  O280  1  0.38736419  0.63180192  0.12005539  1
  O  O281  1  0.37984026  0.62489127  0.62595675  1
  O  O282  1  0.88981682  0.13678077  0.11216481  1
  O  O283  1  0.86341623  0.14229728  0.62149115  1
  O  O284  1  0.87898634  0.61946984  0.13836492  1
  O  O285  1  0.87164513  0.64355719  0.62408290  1
  O  O286  1  0.26000777  0.25165875  0.12524659  1
  O  O287  1  0.25382318  0.25448691  0.61426574  1
  O  O288  1  0.26128981  0.73968451  0.11677551  1
  O  O289  1  0.25383719  0.74565238  0.61733696  1
  O  O290  1  0.76300918  0.24599463  0.11494301  1
  O  O291  1  0.74712951  0.25898663  0.61730509  1
  O  O292  1  0.74116279  0.75379980  0.10674776  1
  O  O293  1  0.76012999  0.75946123  0.62975324  1
  O  O294  1  0.24213503  0.24379975  0.37873848  1
  O  O295  1  0.25387478  0.23940640  0.87188342  1
  O  O296  1  0.23744172  0.74024261  0.38779677  1
  O  O297  1  0.25820523  0.73517554  0.88668186  1
  O  O298  1  0.73980155  0.24371487  0.37920673  1
  O  O299  1  0.74384472  0.25797152  0.88846027  1
  O  O300  1  0.73914155  0.73762117  0.37846718  1
  O  O301  1  0.74960918  0.75941521  0.89471335  1
  O  O302  1  0.01315943  0.11605729  0.00013095  1
  O  O303  1  0.00323721  0.10911538  0.49321237  1
  O  O304  1  0.00597592  0.62017757  0.00609766  1
  O  O305  1  0.00928398  0.61697101  0.49942336  1
  O  O306  1  0.51001108  0.11831899  0.00929486  1
  O  O307  1  0.48850156  0.12763478  0.51504453  1
  O  O308  1  0.51304730  0.62498155  0.00780892  1
  O  O309  1  0.48928470  0.61443835  0.50560115  1
  O  O310  1  0.49063300  0.38586539  0.48680334  1
  O  O311  1  0.48912609  0.37641439  0.98811214  1
  O  O312  1  0.50043536  0.89143792  0.51132359  1
  O  O313  1  0.49366322  0.88406609  1.00898918  1
  O  O314  1  0.99780865  0.38726285  0.49891836  1
  O  O315  1  0.99537565  0.38306285  0.98980454  1
  O  O316  1  1.00714757  0.88182866  0.48874554  1
  O  O317  1  0.99861912  0.88657023  0.99920830  1
  O  O318  1  0.50419021  0.49523136  0.37998415  1
  O  O319  1  0.49296385  0.49281717  0.87357639  1
  O  O320  1  0.50542322  0.99877952  0.39341882  1
  O  O321  1  0.49918762  1.00952481  0.89055302  1
  O  O322  1  0.98193319  0.50881924  0.38292055  1
  O  O323  1  0.98796286  0.49752092  0.88225346  1
  O  O324  1  1.00788934  0.98881560  0.38850439  1
  O  O325  1  1.00653148  1.00110964  0.88332654  1
  O  O326  1  0.00908307  0.01048623  0.11367339  1
  O  O327  1  0.00870604  -0.00835543  0.61157396  1
  O  O328  1  -0.01061995  0.50922010  0.11237896  1
  O  O329  1  0.00283967  0.50242755  0.61681181  1
  O  O330  1  0.51142431  0.01019039  0.11664949  1
  O  O331  1  0.51954619  0.00328067  0.63945815  1
  O  O332  1  0.50541471  0.50940207  0.12172213  1
  O  O333  1  0.50222196  0.50417608  0.61667552  1
  O  O334  1  0.24125425  0.38691100  0.24933560  1
  O  O335  1  0.23814010  0.37916399  0.74195514  1
  O  O336  1  0.24238929  0.88417118  0.25686252  1
  O  O337  1  0.25180948  0.88713025  0.75340145  1
  O  O338  1  0.73905702  0.37601941  0.24814217  1
  O  O339  1  0.75089043  0.38741827  0.73799199  1
  O  O340  1  0.74400457  0.88034688  0.25081312  1
  O  O341  1  0.74830265  0.88392037  0.74561750  1
  O  O342  1  0.25582293  0.11806493  0.25379088  1
  O  O343  1  0.25696973  0.12106166  0.76163621  1
  O  O344  1  0.24707395  0.61111035  0.25689064  1
  O  O345  1  0.24058388  0.62658911  0.76575724  1
  O  O346  1  0.74650099  0.12494465  0.26458671  1
  O  O347  1  0.75733426  0.10730738  0.75972002  1
  O  O348  1  0.75836746  0.62625704  0.24965074  1
  O  O349  1  0.74737497  0.61144554  0.74577029  1
  O  O350  1  0.36293567  0.13641454  0.36070159  1
  O  O351  1  0.36490046  0.12440165  0.87039738  1
  O  O352  1  0.35812490  0.63562057  0.37607186  1
  O  O353  1  0.36047640  0.61299303  0.88441950  1
  O  O354  1  0.86010412  0.13015657  0.37593162  1
  O  O355  1  0.91732787  0.12908474  0.83374783  1
  O  O356  1  0.86020276  0.62067105  0.36771446  1
  O  O357  1  0.87454068  0.61133942  0.88018244  1
  O  O358  1  0.12647153  0.36867105  0.13988093  1
  O  O359  1  0.12516866  0.38119944  0.62982223  1
  O  O360  1  0.11825866  0.87030151  0.13984308  1
  O  O361  1  0.12557796  0.89086304  0.64258389  1
  O  O362  1  0.61927498  0.38531322  0.13314592  1
  O  O363  1  0.63117738  0.38943013  0.62093563  1
  O  O364  1  0.62750016  0.88540930  0.13361090  1
  O  O365  1  0.63864355  0.87211240  0.63864977  1
  O  O366  1  0.11652347  0.25781320  0.25472284  1
  O  O367  1  0.12584082  0.26039859  0.74242098  1
  O  O368  1  0.12832046  0.75449977  0.26068793  1
  O  O369  1  0.11498038  0.76438856  0.74168755  1
  O  O370  1  0.62753911  0.26484962  0.25727619  1
  O  O371  1  0.63204194  0.24327016  0.76649408  1
  O  O372  1  0.61933359  0.76041683  0.24780437  1
  O  O373  1  0.60778993  0.74659141  0.74591300  1
  O  O374  1  0.37151112  0.23848932  0.23677089  1
  O  O375  1  0.37500149  0.24583402  0.73732895  1
  O  O376  1  0.38215850  0.74168341  0.23864967  1
  O  O377  1  0.37677202  0.74776015  0.73669734  1
  O  O378  1  0.88549109  0.25829232  0.23896332  1
  O  O379  1  0.86440679  0.25590503  0.73495637  1
  O  O380  1  0.87370023  0.73584374  0.25745476  1
  O  O381  1  0.89042503  0.75373765  0.75569592  1
  O  O382  1  0.37965363  0.48902840  0.50115670  1
  O  O383  1  0.37815930  0.48987211  0.98890097  1
  O  O384  1  0.38451702  0.99600295  0.50331664  1
  O  O385  1  0.38464209  0.99139074  1.00340570  1
  O  O386  1  0.87959516  0.50162568  0.49084308  1
  O  O387  1  0.87860368  0.49404513  0.98973893  1
  O  O388  1  0.88605253  1.00234884  0.50707303  1
  O  O389  1  0.89117030  0.99397982  0.99891617  1
  O  O390  1  0.11831499  0.00340291  -0.00194183  1
  O  O391  1  0.13013559  0.00008028  0.51615950  1
  O  O392  1  0.11245124  0.50620868  -0.00293989  1
  O  O393  1  0.11629507  0.50303701  0.50536098  1
  O  O394  1  0.62402152  0.00691598  0.00880349  1
  O  O395  1  0.62771467  0.00323109  0.52590650  1
  O  O396  1  0.62628703  0.50783916  0.01114651  1
  O  O397  1  0.61117491  0.49691269  0.50508956  1
  O  O398  1  0.37402329  0.36632624  0.11513475  1
  O  O399  1  0.36668648  0.36838834  0.61397372  1
  O  O400  1  0.37973644  0.86124920  0.11769300  1
  O  O401  1  0.37058875  0.86187080  0.62548919  1
  O  O402  1  0.88669607  0.36382493  0.11115897  1
  O  O403  1  0.86089647  0.36888950  0.61990126  1
  O  O404  1  0.88618204  0.87295722  0.10925064  1
  O  O405  1  0.86226636  0.86227117  0.62679942  1
  O  O406  1  0.13696120  0.13710311  0.36570592  1
  O  O407  1  0.13754349  0.12616595  0.88320697  1
  O  O408  1  0.12779932  0.63148146  0.38195305  1
  O  O409  1  0.13904852  0.61789278  0.88952051  1
  O  O410  1  0.62310315  0.14306635  0.36656255  1
  O  O411  1  0.61977503  0.13597413  0.89021401  1
  O  O412  1  0.63964171  0.63216910  0.37168879  1
  O  O413  1  0.62220702  0.61546865  0.88817063  1
