# generated using pymatgen
data_V79Zn79O256
_symmetry_space_group_name_H-M   'P 1'
_cell_length_a   16.93302387
_cell_length_b   16.91109125
_cell_length_c   16.91958421
_cell_angle_alpha   89.80397355
_cell_angle_beta   90.05248960
_cell_angle_gamma   89.85732545
_symmetry_Int_Tables_number   1
_chemical_formula_structural   V79Zn79O256
_chemical_formula_sum   'V79 Zn79 O256'
_cell_volume   4844.97751519
_cell_formula_units_Z   1
loop_
 _symmetry_equiv_pos_site_id
 _symmetry_equiv_pos_as_xyz
  1  'x, y, z'
loop_
 _atom_site_type_symbol
 _atom_site_label
 _atom_site_symmetry_multiplicity
 _atom_site_fract_x
 _atom_site_fract_y
 _atom_site_fract_z
 _atom_site_occupancy
  V  V0  1  0.73331010  0.35808811  0.60866274  1
  V  V1  1  0.75681755  0.87241326  0.12938924  1
  V  V2  1  0.12444500  0.11713789  0.01359112  1
  V  V3  1  0.12290480  0.86596893  0.75605987  1
  V  V4  1  0.73659628  0.62522098  0.37647114  1
  V  V5  1  0.74857756  -0.00035703  0.75792512  1
  V  V6  1  0.36949349  0.86884030  0.50814173  1
  V  V7  1  0.51099269  0.24428421  0.25283928  1
  V  V8  1  0.50430135  0.78365071  0.26852214  1
  V  V9  1  0.62843870  -0.01034925  0.12952370  1
  V  V10  1  0.87593793  0.63330171  0.24291323  1
  V  V11  1  0.24808542  0.00432024  0.25273923  1
  V  V12  1  -0.00674237  0.88052039  0.87534720  1
  V  V13  1  0.75817097  0.50560287  0.75497489  1
  V  V14  1  0.87369817  0.24698423  0.62117898  1
  V  V15  1  0.50385330  0.87756078  0.88095398  1
  V  V16  1  0.24237208  0.62297372  0.87738305  1
  V  V17  1  0.12615249  -0.00380761  0.62411962  1
  V  V18  1  0.62592787  0.87784555  0.74589073  1
  V  V19  1  0.50915897  0.62702836  0.14898974  1
  V  V20  1  0.87381237  0.37721420  -0.00116263  1
  V  V21  1  0.12580156  0.24165210  0.36602332  1
  V  V22  1  0.00080445  0.12132347  0.62513188  1
  V  V23  1  0.62244505  0.73431386  0.88140697  1
  V  V24  1  0.74907802  0.49264594  0.24053823  1
  V  V25  1  0.51338595  0.11893069  0.61869159  1
  V  V26  1  0.87850103  0.12367779  0.24616938  1
  V  V27  1  -0.00823670  -0.00609572  0.49998601  1
  V  V28  1  0.75485240  0.73452648  0.51563933  1
  V  V29  1  0.13109043  0.38080479  0.23716422  1
  V  V30  1  0.25861338  0.61332687  0.37318943  1
  V  V31  1  0.87790391  0.11914538  0.75764329  1
  V  V32  1  0.49951601  0.25264226  0.75160173  1
  V  V33  1  0.51044058  -0.00474016  0.49905234  1
  V  V34  1  0.00671595  0.50065218  0.00310624  1
  V  V35  1  0.50331014  0.12269701  0.11997188  1
  V  V36  1  0.49012875  0.50860095  0.49239730  1
  V  V37  1  0.12677187  0.63076811  0.49865237  1
  V  V38  1  0.62914148  0.37219161  0.24941775  1
  V  V39  1  0.39133427  0.36884407  -0.00628727  1
  V  V40  1  -0.01457845  0.63457970  0.63417653  1
  V  V41  1  0.13059375  0.75127978  0.37561059  1
  V  V42  1  0.24571312  0.24066250  0.49368899  1
  V  V43  1  0.37656964  -0.00603651  0.37708371  1
  V  V44  1  0.89234920  0.25029321  0.12924035  1
  V  V45  1  0.75078489  0.73724124  0.00084078  1
  V  V46  1  0.74201340  0.14294577  0.38881506  1
  V  V47  1  0.00017779  0.50379001  0.49746792  1
  V  V48  1  0.12343726  0.88108990  0.24602262  1
  V  V49  1  0.00289122  0.36951385  0.36634180  1
  V  V50  1  0.24352567  0.74713181  0.00206532  1
  V  V51  1  0.87166098  0.36943680  0.49616342  1
  V  V52  1  0.24949411  -0.00389684  0.74858781  1
  V  V53  1  0.75197090  0.12730919  0.87697768  1
  V  V54  1  0.24365664  0.49120546  0.74388015  1
  V  V55  1  -0.00994221  0.00576785  0.01170489  1
  V  V56  1  0.38647816  0.49273434  0.87185200  1
  V  V57  1  0.76733720  0.87485290  0.62898197  1
  V  V58  1  0.37941059  -0.00135156  0.88101896  1
  V  V59  1  0.86668907  0.00264904  0.37229280  1
  V  V60  1  0.37523166  0.63104363  0.73573561  1
  V  V61  1  0.61889090  0.37756706  0.75401777  1
  V  V62  1  0.24887526  0.12394425  0.87598750  1
  V  V63  1  -0.00590737  0.37940627  0.87149440  1
  V  V64  1  0.37517928  0.87165346  0.00355628  1
  V  V65  1  0.74632943  0.25209171  0.01263485  1
  V  V66  1  0.00912278  0.62943557  0.12182328  1
  V  V67  1  0.25270800  0.87336561  0.12780484  1
  V  V68  1  -0.01040570  0.87284221  0.37646491  1
  V  V69  1  0.24607847  0.26062864  0.00621739  1
  V  V70  1  0.37545354  0.12295229  0.74813540  1
  V  V71  1  0.00309060  0.25445566  0.74920280  1
  V  V72  1  0.37259013  0.12812180  0.25773769  1
  V  V73  1  0.12382873  0.25175346  0.86929924  1
  V  V74  1  0.62365446  0.50699504  0.61244578  1
  V  V75  1  0.87757588  0.50033392  0.36951336  1
  V  V76  1  0.50297929  0.36097712  0.38571186  1
  V  V77  1  0.12144646  0.49339043  0.62625861  1
  V  V78  1  0.37179059  0.25020345  0.61938045  1
  Zn  Zn79  1  0.11743042  0.74328848  0.87837019  1
  Zn  Zn80  1  0.25151050  0.85400739  0.62733316  1
  Zn  Zn81  1  0.61695696  0.12092096  -0.00499399  1
  Zn  Zn82  1  0.86876932  0.87913783  -0.00306722  1
  Zn  Zn83  1  0.26138285  0.50717043  0.23477064  1
  Zn  Zn84  1  0.37445424  0.25572022  0.13206293  1
  Zn  Zn85  1  0.12754157  0.11723668  0.49057509  1
  Zn  Zn86  1  0.62179797  0.25257885  0.87742613  1
  Zn  Zn87  1  0.18442097  0.56082200  0.06223449  1
  Zn  Zn88  1  0.24041129  0.36894448  0.62429327  1
  Zn  Zn89  1  0.50078996  0.63771422  0.60822649  1
  Zn  Zn90  1  0.62996559  0.50280428  0.10582465  1
  Zn  Zn91  1  -0.00412058  0.75716442  0.24241499  1
  Zn  Zn92  1  0.49701470  0.75594755  0.73763300  1
  Zn  Zn93  1  0.36053621  0.38038060  0.49410867  1
  Zn  Zn94  1  0.18786471  0.19322875  0.19074643  1
  Zn  Zn95  1  0.18789118  0.18295521  0.68507349  1
  Zn  Zn96  1  0.19173760  0.69362653  0.19398082  1
  Zn  Zn97  1  0.17890773  0.67865979  0.68981006  1
  Zn  Zn98  1  0.69040860  0.17673356  0.19731414  1
  Zn  Zn99  1  0.68689354  0.18462675  0.68904985  1
  Zn  Zn100  1  0.68463319  0.68960203  0.18770951  1
  Zn  Zn101  1  0.68451313  0.68967013  0.69313666  1
  Zn  Zn102  1  0.32983134  0.34346256  0.29370123  1
  Zn  Zn103  1  0.31183438  0.30965530  0.81079616  1
  Zn  Zn104  1  0.31843300  0.80934313  0.31325944  1
  Zn  Zn105  1  0.30964582  0.81024695  0.81643882  1
  Zn  Zn106  1  0.81171638  0.30677034  0.31118980  1
  Zn  Zn107  1  0.80867856  0.31358241  0.80714528  1
  Zn  Zn108  1  0.77708150  0.83279165  0.33646611  1
  Zn  Zn109  1  0.80667604  0.81184746  0.82526793  1
  Zn  Zn110  1  0.18600597  0.43347017  0.43618377  1
  Zn  Zn111  1  0.18463913  0.43600248  0.92744062  1
  Zn  Zn112  1  0.18867589  0.93450467  0.43458541  1
  Zn  Zn113  1  0.18596817  0.93718990  0.93945913  1
  Zn  Zn114  1  0.68413613  0.43651748  0.42851819  1
  Zn  Zn115  1  0.69066579  0.44467364  0.93342693  1
  Zn  Zn116  1  0.69188081  0.93848717  0.44811299  1
  Zn  Zn117  1  0.68314121  0.93950071  0.94726867  1
  Zn  Zn118  1  0.31148102  0.06313087  0.06876064  1
  Zn  Zn119  1  0.31555148  0.06118906  0.56118849  1
  Zn  Zn120  1  0.37066934  0.54157235  0.07989229  1
  Zn  Zn121  1  0.30903972  0.69079883  0.55396671  1
  Zn  Zn122  1  0.80704191  0.06306633  0.06642734  1
  Zn  Zn123  1  0.80772932  0.06026090  0.56628858  1
  Zn  Zn124  1  0.81901694  0.56065470  0.06086960  1
  Zn  Zn125  1  0.81020814  0.55269288  0.56549493  1
  Zn  Zn126  1  0.44350213  0.43444172  0.19133954  1
  Zn  Zn127  1  0.43538477  0.44101033  0.67989510  1
  Zn  Zn128  1  0.43752581  0.94116116  0.18605890  1
  Zn  Zn129  1  0.43954997  0.93548551  0.68638878  1
  Zn  Zn130  1  0.94099976  0.43795064  0.18223991  1
  Zn  Zn131  1  0.93481903  0.43471650  0.68024513  1
  Zn  Zn132  1  0.93268047  0.93965738  0.18733613  1
  Zn  Zn133  1  0.93897488  0.93781322  0.69327705  1
  Zn  Zn134  1  0.05591545  0.06129637  0.30659935  1
  Zn  Zn135  1  0.06242855  0.06035885  0.81898406  1
  Zn  Zn136  1  0.06952912  0.56009451  0.30621100  1
  Zn  Zn137  1  0.05741589  0.55985266  0.81125256  1
  Zn  Zn138  1  0.56837260  0.05613074  0.31551342  1
  Zn  Zn139  1  0.56431137  0.06434779  0.81239327  1
  Zn  Zn140  1  0.55970135  0.55330753  0.31398772  1
  Zn  Zn141  1  0.56187542  0.56148621  0.80349137  1
  Zn  Zn142  1  0.43741781  0.18421563  0.43711049  1
  Zn  Zn143  1  0.43430176  0.18906003  0.93525455  1
  Zn  Zn144  1  0.44468224  0.69562330  0.42119933  1
  Zn  Zn145  1  0.42922744  0.69096766  0.92639097  1
  Zn  Zn146  1  0.94045295  0.18257631  0.43618989  1
  Zn  Zn147  1  0.93760075  0.18815839  0.94098181  1
  Zn  Zn148  1  0.93163934  0.69387179  0.43884177  1
  Zn  Zn149  1  0.94031667  0.69548870  0.94483432  1
  Zn  Zn150  1  0.06162616  0.31041139  0.05729838  1
  Zn  Zn151  1  0.05966399  0.30978043  0.55484535  1
  Zn  Zn152  1  0.06076494  0.81792382  0.06170359  1
  Zn  Zn153  1  0.06034115  0.81153239  0.56478147  1
  Zn  Zn154  1  0.58194872  0.35030408  0.04079638  1
  Zn  Zn155  1  0.56279757  0.31090916  0.57167490  1
  Zn  Zn156  1  0.56209324  0.80486346  0.06617899  1
  Zn  Zn157  1  0.57282923  0.81166356  0.55312631  1
  O  O158  1  0.12779898  0.13265570  0.11156401  1
  O  O159  1  0.11776939  0.10918698  0.62848584  1
  O  O160  1  0.11285392  0.62621467  0.13037137  1
  O  O161  1  0.11168732  0.61214721  0.61537817  1
  O  O162  1  0.61349882  0.12366619  0.12536384  1
  O  O163  1  0.61239299  0.12651867  0.62589791  1
  O  O164  1  0.61313598  0.61314188  0.13325485  1
  O  O165  1  0.62315569  0.60868803  0.62971185  1
  O  O166  1  0.39733351  0.36083472  0.38519758  1
  O  O167  1  0.36802894  0.38504562  0.87591143  1
  O  O168  1  0.37262026  0.88700075  0.38871751  1
  O  O169  1  0.38223316  0.88192421  0.87914392  1
  O  O170  1  0.88339976  0.38051825  0.37677499  1
  O  O171  1  0.88598575  0.36126726  0.88422168  1
  O  O172  1  0.88257046  0.88531769  0.36382291  1
  O  O173  1  0.88902361  0.87691008  0.87398332  1
  O  O174  1  0.25903959  -0.00325527  0.36277317  1
  O  O175  1  0.25631895  0.00263022  0.86570214  1
  O  O176  1  0.24803324  0.51135888  0.37900964  1
  O  O177  1  0.25181877  0.50413618  0.86237146  1
  O  O178  1  0.76621042  0.00620778  0.38382271  1
  O  O179  1  0.74735766  0.01431154  0.87069073  1
  O  O180  1  0.76113645  0.50786946  0.36795590  1
  O  O181  1  0.75137026  0.49209246  0.85540485  1
  O  O182  1  0.27012046  0.52815119  0.12354017  1
  O  O183  1  0.23929347  0.49797876  0.63736368  1
  O  O184  1  0.25524780  0.98721581  0.13943428  1
  O  O185  1  0.24243322  1.00123266  0.63633096  1
  O  O186  1  0.75115829  0.50261424  0.13726287  1
  O  O187  1  0.73486848  0.48438783  0.62304371  1
  O  O188  1  0.74069631  0.98704614  0.12258328  1
  O  O189  1  0.75976504  0.98910452  0.64627502  1
  O  O190  1  0.00870172  0.38283543  0.26101574  1
  O  O191  1  -0.00818477  0.36341180  0.75543637  1
  O  O192  1  0.00636434  0.87867753  0.25630262  1
  O  O193  1  0.00969645  0.88497337  0.76705501  1
  O  O194  1  0.50712360  0.36252902  0.26361772  1
  O  O195  1  0.50819662  0.36681242  0.73994068  1
  O  O196  1  0.50575669  0.88448590  0.25601166  1
  O  O197  1  0.50797082  0.87656737  0.75918600  1
  O  O198  1  0.49333613  0.12855724  0.24795441  1
  O  O199  1  0.49583000  0.12898779  0.73728996  1
  O  O200  1  0.49375040  0.62066737  0.24905099  1
  O  O201  1  0.48167746  0.62206524  0.74380121  1
  O  O202  1  0.97965258  0.12896086  0.25625409  1
  O  O203  1  0.99470988  0.12957667  0.74770560  1
  O  O204  1  0.99207823  0.61996770  0.23826429  1
  O  O205  1  1.00009432  0.61751726  0.73315641  1
  O  O206  1  0.35656781  0.25752171  -0.01231248  1
  O  O207  1  0.36442167  0.24513991  0.50595023  1
  O  O208  1  0.35772765  0.76604837  -0.01387274  1
  O  O209  1  0.38046351  0.76505474  0.49609263  1
  O  O210  1  0.86877909  0.25209775  0.01140984  1
  O  O211  1  0.88629576  0.25803983  0.50962210  1
  O  O212  1  0.85430928  0.75443239  -0.00954293  1
  O  O213  1  0.85045957  0.75881375  0.48726643  1
  O  O214  1  0.12927796  0.24366409  0.49260254  1
  O  O215  1  0.13319962  0.24192079  0.99179313  1
  O  O216  1  0.11341955  0.74078619  0.48799122  1
  O  O217  1  0.13946234  0.75874608  0.99945351  1
  O  O218  1  0.67506087  0.29458633  0.55234279  1
  O  O219  1  0.63952815  0.25519780  0.99873347  1
  O  O220  1  0.66216088  0.77166023  0.49116561  1
  O  O221  1  0.62767780  0.74976907  0.98718126  1
  O  O222  1  0.49626520  0.23676383  0.14217093  1
  O  O223  1  0.49218002  0.23742334  0.62828784  1
  O  O224  1  0.51863766  0.74191352  0.15207378  1
  O  O225  1  0.51567956  0.74726533  0.62540535  1
  O  O226  1  0.98960372  0.24000282  0.11631031  1
  O  O227  1  0.99492614  0.24476796  0.63143519  1
  O  O228  1  1.00026842  0.73515612  0.12183202  1
  O  O229  1  0.99994200  0.73392678  0.62049780  1
  O  O230  1  0.01185613  0.26101261  0.38512511  1
  O  O231  1  0.00598316  0.25410323  0.86809656  1
  O  O232  1  0.00323644  0.76042258  0.37136348  1
  O  O233  1  0.00649165  0.77319130  0.89269541  1
  O  O234  1  0.50623073  0.25184823  0.37075476  1
  O  O235  1  0.50099433  0.23930936  0.85488386  1
  O  O236  1  0.51521408  0.76249362  0.36897740  1
  O  O237  1  0.50790860  0.75924694  0.86960123  1
  O  O238  1  0.24542573  0.13423729  0.50422606  1
  O  O239  1  0.24131631  0.13151518  0.99602521  1
  O  O240  1  0.23323744  0.62711778  0.48854554  1
  O  O241  1  0.24902017  0.63325213  0.98934827  1
  O  O242  1  0.75596975  0.12295273  0.48950181  1
  O  O243  1  0.75208951  0.13971324  0.99387500  1
  O  O244  1  0.75238021  0.62705212  0.49131163  1
  O  O245  1  0.75178218  0.63641991  1.00792123  1
  O  O246  1  0.24734521  0.36205058  -0.00579709  1
  O  O247  1  0.24656928  0.36051822  0.50370964  1
  O  O248  1  0.25397232  0.87204610  0.00917046  1
  O  O249  1  0.26435608  0.88033919  0.50444073  1
  O  O250  1  0.76292557  0.35830426  -0.01008716  1
  O  O251  1  0.76923767  0.39129285  0.49605162  1
  O  O252  1  0.75074154  0.86712118  0.00505245  1
  O  O253  1  0.76157029  0.88931795  0.53014942  1
  O  O254  1  0.13771423  0.48527869  0.25100141  1
  O  O255  1  0.13550319  0.50304369  0.74222641  1
  O  O256  1  0.13376791  0.99155011  0.25855028  1
  O  O257  1  0.13271133  0.99332316  0.74537328  1
  O  O258  1  0.63792394  0.49041690  0.25432555  1
  O  O259  1  0.62877969  0.48981584  0.74255627  1
  O  O260  1  0.62436663  1.00667024  0.22941940  1
  O  O261  1  0.63666999  0.99168618  0.75661938  1
  O  O262  1  0.36938067  0.00648084  0.25876049  1
  O  O263  1  0.36668158  0.00167152  0.75734904  1
  O  O264  1  0.35623483  0.45083730  0.25823913  1
  O  O265  1  0.36415403  0.50524910  0.75234237  1
  O  O266  1  0.87583565  0.01377750  0.25712382  1
  O  O267  1  0.87056128  0.01337919  0.75307844  1
  O  O268  1  0.86925698  0.49902019  0.25554344  1
  O  O269  1  0.85627965  0.48846225  0.73803226  1
  O  O270  1  0.11815147  0.36622634  0.36694392  1
  O  O271  1  0.11185259  0.35974610  0.87674591  1
  O  O272  1  0.11565618  0.86970081  0.36775837  1
  O  O273  1  0.12033355  0.87568054  0.86828752  1
  O  O274  1  0.61485240  0.37299093  0.36477878  1
  O  O275  1  0.62739944  0.37133526  0.85566387  1
  O  O276  1  0.67363170  0.86637621  0.36815214  1
  O  O277  1  0.61430608  0.87557061  0.87143379  1
  O  O278  1  0.38610149  0.12535115  0.13557018  1
  O  O279  1  0.37934753  0.13340341  0.63031817  1
  O  O280  1  0.41430837  0.65332050  0.08599603  1
  O  O281  1  0.37248248  0.62771422  0.63347731  1
  O  O282  1  0.86628627  0.13532052  0.13751429  1
  O  O283  1  0.88228753  0.12886429  0.63429310  1
  O  O284  1  0.88359669  0.62043380  0.13855592  1
  O  O285  1  0.88693930  0.61896291  0.61536325  1
  O  O286  1  0.25454064  0.24742804  0.10863599  1
  O  O287  1  0.25491255  0.24908891  0.61894074  1
  O  O288  1  0.24962521  0.76277218  0.11973176  1
  O  O289  1  0.23579852  0.74403601  0.61945364  1
  O  O290  1  0.75217623  0.24713274  0.11344655  1
  O  O291  1  0.77235734  0.24707795  0.64363481  1
  O  O292  1  0.73627322  0.76020753  0.10880353  1
  O  O293  1  0.75173765  0.75519523  0.62162110  1
  O  O294  1  0.23170974  0.25235112  0.38343120  1
  O  O295  1  0.24068998  0.24459732  0.87833296  1
  O  O296  1  0.23476376  0.74737414  0.37087532  1
  O  O297  1  0.24515104  0.73979543  0.88168262  1
  O  O298  1  0.75392814  0.24423329  0.38520426  1
  O  O299  1  0.74773984  0.24041946  0.87704010  1
  O  O300  1  0.75796675  0.72293960  0.36909590  1
  O  O301  1  0.73157759  0.74994042  0.88670549  1
  O  O302  1  0.01362460  0.11644386  -0.00600751  1
  O  O303  1  0.00439218  0.11214341  0.50741723  1
  O  O304  1  -0.00885499  0.61643717  0.01128711  1
  O  O305  1  0.00370985  0.61631524  0.49975837  1
  O  O306  1  0.49727744  0.13882809  0.01647634  1
  O  O307  1  0.49641435  0.11669245  0.51257346  1
  O  O308  1  0.47801730  0.65016198  0.02672621  1
  O  O309  1  0.49384084  0.61237574  0.49090770  1
  O  O310  1  0.50883070  0.37131258  0.49086501  1
  O  O311  1  0.48587661  0.34529571  0.97780677  1
  O  O312  1  0.49034548  0.89057395  0.51038369  1
  O  O313  1  0.48941358  0.86610407  0.99036532  1
  O  O314  1  0.99150288  0.38488087  0.49125631  1
  O  O315  1  0.99359643  0.37938297  0.99141459  1
  O  O316  1  1.00446728  0.88309843  0.48883938  1
  O  O317  1  0.99734124  0.89040941  0.99605689  1
  O  O318  1  0.50536832  0.48334639  0.38861612  1
  O  O319  1  0.48414714  0.49730326  0.86119882  1
  O  O320  1  0.49244547  1.00772388  0.39141520  1
  O  O321  1  0.48867233  0.99364790  0.87035540  1
  O  O322  1  0.99644718  0.49302868  0.37948845  1
  O  O323  1  1.00290039  0.48719093  0.88197400  1
  O  O324  1  0.99281823  0.99261691  0.38201463  1
  O  O325  1  1.00782759  0.98894980  0.89036919  1
  O  O326  1  0.00061885  -0.00259873  0.11131674  1
  O  O327  1  0.00561860  -0.00042322  0.61930580  1
  O  O328  1  -0.00109536  0.51126852  0.11394022  1
  O  O329  1  0.00238142  0.50273550  0.61327947  1
  O  O330  1  0.50599727  0.01594422  0.12633707  1
  O  O331  1  0.49499361  0.01298369  0.61792318  1
  O  O332  1  0.48158966  0.52113001  0.12729726  1
  O  O333  1  0.50905339  0.50240268  0.61135877  1
  O  O334  1  0.22896224  0.35607205  0.24264655  1
  O  O335  1  0.25223865  0.38710111  0.74695220  1
  O  O336  1  0.24434704  0.88012747  0.24606832  1
  O  O337  1  0.24334670  0.88237746  0.75027941  1
  O  O338  1  0.74314014  0.38237767  0.25844353  1
  O  O339  1  0.73389706  0.37293654  0.73302273  1
  O  O340  1  0.75605648  0.85980270  0.22705795  1
  O  O341  1  0.74529468  0.88140103  0.75500402  1
  O  O342  1  0.26074714  0.11656614  0.23981690  1
  O  O343  1  0.25457747  0.11566470  0.75563711  1
  O  O344  1  0.24369896  0.62398206  0.26841091  1
  O  O345  1  0.25884722  0.61434341  0.75513432  1
  O  O346  1  0.76793519  0.13422718  0.26876998  1
  O  O347  1  0.75696092  0.11889716  0.75708487  1
  O  O348  1  0.76138155  0.61565437  0.25591091  1
  O  O349  1  0.74503571  0.60438191  0.73984718  1
  O  O350  1  0.37767073  0.11502990  0.36477922  1
  O  O351  1  0.37016182  0.11632294  0.86962032  1
  O  O352  1  0.35524168  0.63339234  0.38599045  1
  O  O353  1  0.36523148  0.60893040  0.86879858  1
  O  O354  1  0.87070523  0.12084192  0.36907915  1
  O  O355  1  0.86737176  0.13462112  0.86573094  1
  O  O356  1  0.87995327  0.61124711  0.36311771  1
  O  O357  1  0.87976636  0.65758624  0.84082172  1
  O  O358  1  0.11007467  0.36914234  0.13912394  1
  O  O359  1  0.11883933  0.38889090  0.61758066  1
  O  O360  1  0.13302634  0.87188936  0.13885574  1
  O  O361  1  0.12276209  0.88461350  0.63496555  1
  O  O362  1  0.61144731  0.38188445  0.14760694  1
  O  O363  1  0.61951433  0.39324777  0.63658588  1
  O  O364  1  0.62929008  0.88574747  0.11908607  1
  O  O365  1  0.64052762  0.86958762  0.64330450  1
  O  O366  1  0.12047430  0.25365627  0.26213710  1
  O  O367  1  0.11391304  0.24111104  0.75615593  1
  O  O368  1  0.11827101  0.76179258  0.25864106  1
  O  O369  1  0.12663088  0.76301371  0.75360784  1
  O  O370  1  0.61841143  0.25435792  0.24766448  1
  O  O371  1  0.61561530  0.26196406  0.74115478  1
  O  O372  1  0.60938391  0.75133571  0.24477872  1
  O  O373  1  0.62735758  0.76014558  0.76707584  1
  O  O374  1  0.38321536  0.24288589  0.25242858  1
  O  O375  1  0.37986604  0.24418672  0.74121401  1
  O  O376  1  0.40179346  0.76212171  0.25632977  1
  O  O377  1  0.37419470  0.73378863  0.75801145  1
  O  O378  1  0.87665598  0.24804236  0.23478860  1
  O  O379  1  0.88784491  0.24161193  0.74358272  1
  O  O380  1  0.87775270  0.73207548  0.25377104  1
  O  O381  1  0.86989299  0.71192011  0.78813922  1
  O  O382  1  0.39345329  0.49034202  0.50616072  1
  O  O383  1  0.37899616  0.48108366  0.98105666  1
  O  O384  1  0.38053221  0.99409482  0.49384277  1
  O  O385  1  0.36410695  0.99129013  0.98726568  1
  O  O386  1  0.88442658  0.49385488  0.48843961  1
  O  O387  1  0.88439005  0.48512404  1.00312011  1
  O  O388  1  0.88729322  1.00376790  0.49381085  1
  O  O389  1  0.88757873  1.00938231  1.00124209  1
  O  O390  1  0.12534750  0.01391472  0.00251872  1
  O  O391  1  0.11898510  -0.00279072  0.50885061  1
  O  O392  1  0.11413206  0.49674941  -0.00269764  1
  O  O393  1  0.11551627  0.50701242  0.50318515  1
  O  O394  1  0.62581011  0.00897930  0.01740817  1
  O  O395  1  0.60949092  -0.00546347  0.50122860  1
  O  O396  1  0.61201077  0.45704447  0.00639299  1
  O  O397  1  0.61879556  0.49545980  0.50869146  1
  O  O398  1  0.38806883  0.37017880  0.09815881  1
  O  O399  1  0.37583714  0.35848093  0.62033992  1
  O  O400  1  0.36844663  0.88186543  0.11280072  1
  O  O401  1  0.37093986  0.87893671  0.61407337  1
  O  O402  1  0.88312231  0.36025105  0.11482859  1
  O  O403  1  0.86403257  0.36470004  0.61330678  1
  O  O404  1  0.86202876  0.88020570  0.11794485  1
  O  O405  1  0.86540113  0.86425177  0.64979131  1
  O  O406  1  0.11566527  0.13760546  0.37197908  1
  O  O407  1  0.12967091  0.13461248  0.88251680  1
  O  O408  1  0.12550016  0.63231928  0.38052701  1
  O  O409  1  0.13672039  0.62509758  0.86531340  1
  O  O410  1  0.64435180  0.12160307  0.37066738  1
  O  O411  1  0.63352084  0.13148653  0.87713166  1
  O  O412  1  0.63860488  0.61625193  0.37209653  1
  O  O413  1  0.61293679  0.63563830  0.87301434  1
