# generated using pymatgen
data_V79Zn79O256
_symmetry_space_group_name_H-M   'P 1'
_cell_length_a   16.93974987
_cell_length_b   16.87627606
_cell_length_c   16.87858859
_cell_angle_alpha   89.86222893
_cell_angle_beta   89.91293968
_cell_angle_gamma   90.00834932
_symmetry_Int_Tables_number   1
_chemical_formula_structural   V79Zn79O256
_chemical_formula_sum   'V79 Zn79 O256'
_cell_volume   4825.22956382
_cell_formula_units_Z   1
loop_
 _symmetry_equiv_pos_site_id
 _symmetry_equiv_pos_as_xyz
  1  'x, y, z'
loop_
 _atom_site_type_symbol
 _atom_site_label
 _atom_site_symmetry_multiplicity
 _atom_site_fract_x
 _atom_site_fract_y
 _atom_site_fract_z
 _atom_site_occupancy
  V  V0  1  0.12155476  0.50499437  0.62603020  1
  V  V1  1  0.37686379  0.88349625  0.49916527  1
  V  V2  1  0.24409849  0.12608505  0.87878751  1
  V  V3  1  0.75478102  0.75647076  0.00138836  1
  V  V4  1  0.87779710  0.63053294  0.73577407  1
  V  V5  1  0.50294426  0.87130995  0.87529344  1
  V  V6  1  0.00005249  0.62334279  0.12025425  1
  V  V7  1  0.25032073  0.24961064  -0.00256536  1
  V  V8  1  -0.00126523  0.24967559  0.74784224  1
  V  V9  1  0.50240438  0.62407348  0.61780555  1
  V  V10  1  0.00092639  0.75358770  0.73491671  1
  V  V11  1  0.49819644  0.00257477  0.00587370  1
  V  V12  1  0.37431948  0.74961794  0.62509465  1
  V  V13  1  0.26170940  0.37524582  0.11613975  1
  V  V14  1  0.36857814  0.87058920  0.00018974  1
  V  V15  1  0.74907422  0.25080916  0.00302438  1
  V  V16  1  0.47185765  0.13114270  0.66000998  1
  V  V17  1  0.37577828  0.48096480  0.37784884  1
  V  V18  1  0.74587390  0.49770783  0.74838590  1
  V  V19  1  0.24746865  0.00547510  0.25950237  1
  V  V20  1  0.25212117  0.00591657  0.74867612  1
  V  V21  1  0.24283908  0.87730556  0.13115842  1
  V  V22  1  0.62480334  0.00100816  0.12929188  1
  V  V23  1  0.49830657  0.88341071  0.37858444  1
  V  V24  1  0.62207056  0.62916310  -0.00085918  1
  V  V25  1  0.62672560  0.87219094  0.25538546  1
  V  V26  1  0.62248700  0.12091594  0.49865440  1
  V  V27  1  0.10131192  0.62018595  0.50114584  1
  V  V28  1  0.87922426  0.37834178  -0.00022852  1
  V  V29  1  0.74941350  0.25050320  0.48952755  1
  V  V30  1  0.00289558  0.76467352  0.25118844  1
  V  V31  1  0.74389563  0.63148714  0.87488463  1
  V  V32  1  0.11299903  0.00659124  0.63147232  1
  V  V33  1  0.37522793  0.00743935  0.87185900  1
  V  V34  1  0.36633857  0.62025671  0.75118162  1
  V  V35  1  0.87853455  0.62409744  0.25840626  1
  V  V36  1  0.11755434  0.27115892  0.36867152  1
  V  V37  1  0.12968911  0.12717894  0.48866630  1
  V  V38  1  0.87830575  0.24987921  0.62175851  1
  V  V39  1  0.36552268  0.49357316  0.88033139  1
  V  V40  1  0.62638829  0.50145426  0.61929353  1
  V  V41  1  0.73091670  0.63622762  0.37639490  1
  V  V42  1  0.24325303  0.87684979  0.63074369  1
  V  V43  1  0.87673888  0.86593647  0.49836855  1
  V  V44  1  0.88679106  0.38816383  0.48791122  1
  V  V45  1  0.12124368  0.48970440  0.12133798  1
  V  V46  1  0.24896553  0.74606106  0.49947782  1
  V  V47  1  0.50246901  0.74964376  0.25867282  1
  V  V48  1  -0.00325604  0.37984367  0.87311248  1
  V  V49  1  0.87943924  0.12199449  0.74476501  1
  V  V50  1  0.89409017  0.12521632  0.25041195  1
  V  V51  1  0.25566914  0.26023511  0.50778775  1
  V  V52  1  0.00168691  0.86794420  0.88158956  1
  V  V53  1  0.13187787  0.63375249  -0.00287839  1
  V  V54  1  0.62571814  0.49920180  0.12572757  1
  V  V55  1  0.12200694  0.76188993  0.37146113  1
  V  V56  1  0.74908009  -0.00428650  0.73941426  1
  V  V57  1  0.75395217  0.11793521  0.36847332  1
  V  V58  1  0.89134000  0.24552835  0.12639047  1
  V  V59  1  0.37160072  0.74986844  0.12474657  1
  V  V60  1  0.50478884  0.74814620  0.75355952  1
  V  V61  1  0.37466890  0.62339435  0.25598979  1
  V  V62  1  0.74852480  0.12368567  0.87438004  1
  V  V63  1  0.00924223  0.01009160  0.00188773  1
  V  V64  1  0.74764333  0.37507031  0.62538627  1
  V  V65  1  0.13547164  0.38270498  0.74476980  1
  V  V66  1  0.49880020  0.48584488  0.49975618  1
  V  V67  1  0.50983376  0.37527504  0.87287901  1
  V  V68  1  0.87470789  0.50308663  0.87905821  1
  V  V69  1  0.38698218  0.24165441  0.12841002  1
  V  V70  1  0.62232853  0.25198344  0.86202405  1
  V  V71  1  0.73670557  0.75243271  0.51139862  1
  V  V72  1  0.62650937  0.87690699  0.74409803  1
  V  V73  1  0.87406267  -0.00607557  0.88133641  1
  V  V74  1  0.61806376  0.36815137  0.26546215  1
  V  V75  1  0.24834282  0.49201478  0.25026657  1
  V  V76  1  0.61912387  0.12736719  0.00569011  1
  V  V77  1  0.75355477  0.50171462  0.25818292  1
  V  V78  1  -0.00639945  0.00242119  0.47712845  1
  Zn  Zn79  1  0.12303382  0.01447592  0.12897941  1
  Zn  Zn80  1  0.75486596  0.87783473  0.12240685  1
  Zn  Zn81  1  0.76277420  -0.00586016  0.25091102  1
  Zn  Zn82  1  0.13793656  0.76159020  0.86772894  1
  Zn  Zn83  1  0.49363521  0.49557863  0.00489478  1
  Zn  Zn84  1  0.37453806  0.12918352  0.25389465  1
  Zn  Zn85  1  0.61202737  0.00074775  0.61530795  1
  Zn  Zn86  1  0.37157883  0.01563188  0.38129896  1
  Zn  Zn87  1  0.12300840  0.25123217  0.87461167  1
  Zn  Zn88  1  0.75182899  0.37470423  0.13055192  1
  Zn  Zn89  1  0.24638115  0.62064353  0.37663125  1
  Zn  Zn90  1  0.88004295  0.75855169  0.12263822  1
  Zn  Zn91  1  0.37275877  0.36867051  0.53449876  1
  Zn  Zn92  1  0.25235142  0.63324706  0.87839480  1
  Zn  Zn93  1  0.49916693  0.62483700  0.12557541  1
  Zn  Zn94  1  0.18790985  0.19146881  0.19595657  1
  Zn  Zn95  1  0.18597742  0.18597312  0.68799541  1
  Zn  Zn96  1  0.18786783  0.68498918  0.18597657  1
  Zn  Zn97  1  0.18236410  0.68666737  0.68550127  1
  Zn  Zn98  1  0.68879714  0.18814544  0.18791267  1
  Zn  Zn99  1  0.69213806  0.18278996  0.68118438  1
  Zn  Zn100  1  0.68773226  0.68741391  0.18608824  1
  Zn  Zn101  1  0.68557591  0.68589752  0.68760322  1
  Zn  Zn102  1  0.29824437  0.30005731  0.31375431  1
  Zn  Zn103  1  0.32021292  0.31381689  0.80712864  1
  Zn  Zn104  1  0.31175131  0.81445763  0.31429911  1
  Zn  Zn105  1  0.31464496  0.81259410  0.81079849  1
  Zn  Zn106  1  0.81523665  0.31198244  0.30979625  1
  Zn  Zn107  1  0.80960130  0.31166675  0.81212248  1
  Zn  Zn108  1  0.81773921  0.81697709  0.31843267  1
  Zn  Zn109  1  0.81380477  0.81228833  0.81047486  1
  Zn  Zn110  1  0.19028761  0.43924833  0.44475225  1
  Zn  Zn111  1  0.18071228  0.43954812  0.93961650  1
  Zn  Zn112  1  0.18621933  0.94003362  0.44388463  1
  Zn  Zn113  1  0.18639978  0.93428738  0.93544287  1
  Zn  Zn114  1  0.69389709  0.43947973  0.43856271  1
  Zn  Zn115  1  0.68844611  0.43873218  0.93947768  1
  Zn  Zn116  1  0.69344249  0.93488645  0.43662036  1
  Zn  Zn117  1  0.68380342  0.93905210  0.93264212  1
  Zn  Zn118  1  0.31053844  0.06502406  0.06581747  1
  Zn  Zn119  1  0.30969434  0.07017840  0.56617112  1
  Zn  Zn120  1  0.31175805  0.56471202  0.06268728  1
  Zn  Zn121  1  0.31059064  0.55618045  0.56686146  1
  Zn  Zn122  1  0.81381153  0.06276008  0.06435084  1
  Zn  Zn123  1  0.81507864  0.06136125  0.55840367  1
  Zn  Zn124  1  0.81086694  0.56852253  0.06716194  1
  Zn  Zn125  1  0.81334139  0.56659817  0.55302051  1
  Zn  Zn126  1  0.44093607  0.43316903  0.19060395  1
  Zn  Zn127  1  0.44779861  0.44174627  0.70133304  1
  Zn  Zn128  1  0.43357872  0.93828807  0.19142224  1
  Zn  Zn129  1  0.43809374  0.94263005  0.68364683  1
  Zn  Zn130  1  0.93497314  0.43933642  0.18511086  1
  Zn  Zn131  1  0.93780712  0.44131822  0.68067409  1
  Zn  Zn132  1  0.93632759  0.93995444  0.18187901  1
  Zn  Zn133  1  0.93076061  0.92768914  0.68459865  1
  Zn  Zn134  1  0.07242659  0.06323637  0.30678012  1
  Zn  Zn135  1  0.06318425  0.05920144  0.81411657  1
  Zn  Zn136  1  0.06822688  0.56886304  0.30712400  1
  Zn  Zn137  1  0.06016719  0.56557594  0.81013697  1
  Zn  Zn138  1  0.56905466  0.06032574  0.32441427  1
  Zn  Zn139  1  0.56210310  0.06322040  0.81372442  1
  Zn  Zn140  1  0.56001523  0.55524769  0.31464912  1
  Zn  Zn141  1  0.55966290  0.55927392  0.81217123  1
  Zn  Zn142  1  0.43385449  0.19027419  0.43844292  1
  Zn  Zn143  1  0.43537465  0.19438289  0.93975747  1
  Zn  Zn144  1  0.43718103  0.68646791  0.43785044  1
  Zn  Zn145  1  0.43582392  0.68397404  0.93760726  1
  Zn  Zn146  1  0.94357117  0.18823563  0.43631792  1
  Zn  Zn147  1  0.93365157  0.18754443  0.93215355  1
  Zn  Zn148  1  0.93204636  0.69483932  0.43337260  1
  Zn  Zn149  1  0.93499390  0.68517085  0.93674468  1
  Zn  Zn150  1  0.07210876  0.18832159  0.05633804  1
  Zn  Zn151  1  0.06463252  0.31464762  0.56132258  1
  Zn  Zn152  1  0.06043342  0.81366475  0.05990477  1
  Zn  Zn153  1  0.06158520  0.82006260  0.55553656  1
  Zn  Zn154  1  0.56175946  0.31948321  0.06073263  1
  Zn  Zn155  1  0.56441226  0.30247061  0.57243572  1
  Zn  Zn156  1  0.56269816  0.81194404  0.06719081  1
  Zn  Zn157  1  0.56058578  0.81360017  0.56174406  1
  O  O158  1  0.13489830  0.12694013  0.12330759  1
  O  O159  1  0.12507640  0.11073269  0.61782048  1
  O  O160  1  0.11940288  0.62238641  0.11526827  1
  O  O161  1  0.12087495  0.62080947  0.61064379  1
  O  O162  1  0.62765983  0.11813655  0.11451150  1
  O  O163  1  0.63501186  0.12076090  0.60611362  1
  O  O164  1  0.62283251  0.61684205  0.11936099  1
  O  O165  1  0.61361068  0.61429838  0.62873887  1
  O  O166  1  0.37083804  0.38213960  0.36792856  1
  O  O167  1  0.38524149  0.38777208  0.87033364  1
  O  O168  1  0.38103965  0.87462056  0.38470961  1
  O  O169  1  0.38265136  0.88316944  0.88290750  1
  O  O170  1  0.87161445  0.37027639  0.38926834  1
  O  O171  1  0.87581578  0.38325152  0.87841450  1
  O  O172  1  0.87126455  0.88133526  0.39410686  1
  O  O173  1  0.88361762  0.88593011  0.86996540  1
  O  O174  1  0.25162905  -0.01174313  0.36293066  1
  O  O175  1  0.25498904  0.00452318  0.86948023  1
  O  O176  1  0.25830971  0.49992298  0.36847456  1
  O  O177  1  0.26277207  0.49997558  0.87908301  1
  O  O178  1  0.75706249  0.01408235  0.37302228  1
  O  O179  1  0.75692868  0.00395550  0.86915866  1
  O  O180  1  0.74577540  0.51835694  0.36666898  1
  O  O181  1  0.75576930  0.50602452  0.86593703  1
  O  O182  1  0.24761850  0.49152587  0.12844924  1
  O  O183  1  0.22656450  0.50386244  0.62028479  1
  O  O184  1  0.25057480  0.98825629  0.13078284  1
  O  O185  1  0.24429465  0.99488810  0.63270451  1
  O  O186  1  0.74169170  0.50385185  0.13700603  1
  O  O187  1  0.74430790  0.49676162  0.62717879  1
  O  O188  1  0.73691082  1.00006175  0.12617516  1
  O  O189  1  0.75040578  1.00456754  0.63832775  1
  O  O190  1  -0.00014095  0.41184781  0.28536394  1
  O  O191  1  -0.00240889  0.36807624  0.75766684  1
  O  O192  1  0.00304659  0.86301973  0.24403428  1
  O  O193  1  -0.00946356  0.85905516  0.75843599  1
  O  O194  1  0.51816834  0.38048650  0.25318275  1
  O  O195  1  0.51064671  0.37901619  0.77057808  1
  O  O196  1  0.50415753  0.86815480  0.25756908  1
  O  O197  1  0.50205420  0.86852583  0.75609464  1
  O  O198  1  0.51039976  0.16137327  0.28046758  1
  O  O199  1  0.48870623  0.13182919  0.76107053  1
  O  O200  1  0.49093854  0.63113056  0.25225054  1
  O  O201  1  0.49450437  0.63180029  0.74267367  1
  O  O202  1  0.99263268  0.12578927  0.25056121  1
  O  O203  1  0.98983331  0.13561928  0.75906772  1
  O  O204  1  0.99501998  0.62987004  0.24048330  1
  O  O205  1  0.98335743  0.63487081  0.75567047  1
  O  O206  1  0.36198464  0.24646587  0.01453027  1
  O  O207  1  0.36209034  0.25484146  0.49839710  1
  O  O208  1  0.38351395  0.75893596  0.01151630  1
  O  O209  1  0.36674855  0.75687164  0.50522413  1
  O  O210  1  0.86811043  0.25449597  0.00576957  1
  O  O211  1  0.86973625  0.25017415  0.50915578  1
  O  O212  1  0.85853538  0.74574361  -0.00004204  1
  O  O213  1  0.87260377  0.76087232  0.50229802  1
  O  O214  1  0.12639047  0.23871946  0.49830573  1
  O  O215  1  0.14358983  0.25339946  0.99061025  1
  O  O216  1  0.12693650  0.74120722  0.49158874  1
  O  O217  1  0.11839724  0.73700331  0.99384144  1
  O  O218  1  0.64358440  0.24098749  0.50580008  1
  O  O219  1  0.63228890  0.24329294  0.99648800  1
  O  O220  1  0.63658972  0.75490565  0.50116617  1
  O  O221  1  0.63229812  0.73736347  1.00642266  1
  O  O222  1  0.48535393  0.25624105  0.11977079  1
  O  O223  1  0.50636579  0.22055380  0.62271935  1
  O  O224  1  0.48777410  0.75118220  0.13823881  1
  O  O225  1  0.49465708  0.74174213  0.63020125  1
  O  O226  1  0.98895119  0.24924842  0.11372395  1
  O  O227  1  0.98863051  0.25683322  0.63681545  1
  O  O228  1  1.00541219  0.74363749  0.13799422  1
  O  O229  1  1.00421558  0.75786723  0.63577357  1
  O  O230  1  0.01795278  0.24863388  0.37647024  1
  O  O231  1  -0.00242031  0.26063883  0.86494218  1
  O  O232  1  0.01231837  0.74794296  0.36378984  1
  O  O233  1  -0.00448707  0.76226653  0.87467796  1
  O  O234  1  0.50891368  0.21990165  0.33012964  1
  O  O235  1  0.50832939  0.26262502  0.88165014  1
  O  O236  1  0.49450097  0.75888672  0.36517333  1
  O  O237  1  0.49207888  0.75907645  0.86491563  1
  O  O238  1  0.23453192  0.12731949  0.50076642  1
  O  O239  1  0.25315807  0.13173313  0.98891590  1
  O  O240  1  0.25121685  0.63964892  0.50126569  1
  O  O241  1  0.23531366  0.62815433  1.00361035  1
  O  O242  1  0.75251004  0.13134873  0.48730561  1
  O  O243  1  0.74205776  0.13165651  0.99482334  1
  O  O244  1  0.75445300  0.63763640  0.48461711  1
  O  O245  1  0.74307480  0.63356139  0.99300880  1
  O  O246  1  0.24905199  0.37226161  0.01037946  1
  O  O247  1  0.25227527  0.36611372  0.51027631  1
  O  O248  1  0.26252544  0.88257980  0.00974078  1
  O  O249  1  0.25558598  0.86401814  0.50732378  1
  O  O250  1  0.76096573  0.36625406  -0.00054216  1
  O  O251  1  0.75987784  0.36862371  0.50699453  1
  O  O252  1  0.73817573  0.85878800  -0.00538058  1
  O  O253  1  0.75631121  0.85918576  0.49496181  1
  O  O254  1  0.14113971  0.51358374  0.23430301  1
  O  O255  1  0.12224639  0.49317943  0.74262788  1
  O  O256  1  0.14104637  0.99587801  0.24617435  1
  O  O257  1  0.13406440  1.00287300  0.73879005  1
  O  O258  1  0.63344895  0.49498549  0.24473731  1
  O  O259  1  0.63892823  0.50590890  0.73950580  1
  O  O260  1  0.62037671  0.99465522  0.24094902  1
  O  O261  1  0.63400613  0.99511107  0.75171861  1
  O  O262  1  0.36412080  0.00406068  0.25156157  1
  O  O263  1  0.36524747  -0.00839167  0.76293617  1
  O  O264  1  0.37083703  0.50518333  0.25735598  1
  O  O265  1  0.38109076  0.51150508  0.76416617  1
  O  O266  1  0.87629301  0.02142595  0.23773289  1
  O  O267  1  0.86958829  0.00476952  0.75628021  1
  O  O268  1  0.86248254  0.51145766  0.24071980  1
  O  O269  1  0.86587637  0.51168849  0.75543762  1
  O  O270  1  0.12136272  0.37119973  0.38715982  1
  O  O271  1  0.11232543  0.38077083  0.86390659  1
  O  O272  1  0.12650815  0.86001240  0.38195708  1
  O  O273  1  0.10707113  0.87702199  0.87206079  1
  O  O274  1  0.63163344  0.37854858  0.36569471  1
  O  O275  1  0.62091106  0.36662333  0.87955780  1
  O  O276  1  0.61457006  0.88455518  0.36393661  1
  O  O277  1  0.60882260  0.88104928  0.86416332  1
  O  O278  1  0.37720949  0.13608094  0.12971881  1
  O  O279  1  0.37283715  0.12782638  0.63894951  1
  O  O280  1  0.37542786  0.63213425  0.13525108  1
  O  O281  1  0.38262478  0.62703323  0.63242787  1
  O  O282  1  0.87269424  0.13876097  0.13169824  1
  O  O283  1  0.86894397  0.13467836  0.63666715  1
  O  O284  1  0.88383299  0.63201197  0.13373805  1
  O  O285  1  0.87157195  0.62011387  0.63762088  1
  O  O286  1  0.25296981  0.26512245  0.11872162  1
  O  O287  1  0.24039103  0.24343257  0.60748719  1
  O  O288  1  0.26218312  0.76175992  0.13432816  1
  O  O289  1  0.25147117  0.75803101  0.61958162  1
  O  O290  1  0.75662831  0.25080424  0.11154865  1
  O  O291  1  0.76064443  0.25805669  0.62006246  1
  O  O292  1  0.75104977  0.74952318  0.11075692  1
  O  O293  1  0.74920650  0.74084807  0.61084456  1
  O  O294  1  0.23301123  0.25499081  0.39641113  1
  O  O295  1  0.26066163  0.24184779  0.87824219  1
  O  O296  1  0.23833046  0.74786104  0.38071567  1
  O  O297  1  0.24907503  0.74903810  0.87362175  1
  O  O298  1  0.75807574  0.24034323  0.38360580  1
  O  O299  1  0.74459840  0.24569539  0.88449561  1
  O  O300  1  0.75044699  0.73881068  0.37595933  1
  O  O301  1  0.75293370  0.73965940  0.88303712  1
  O  O302  1  0.00349974  0.11647583  -0.00970388  1
  O  O303  1  0.01212353  0.11152458  0.49722275  1
  O  O304  1  0.00440414  0.62914797  0.01365881  1
  O  O305  1  0.00350640  0.62821839  0.49605497  1
  O  O306  1  0.50871874  0.11468575  -0.00721244  1
  O  O307  1  0.52475525  0.13518702  0.48254780  1
  O  O308  1  0.51093438  0.62277079  0.00150196  1
  O  O309  1  0.49062339  0.61367152  0.51312474  1
  O  O310  1  0.49396475  0.38171623  0.51856253  1
  O  O311  1  0.50400074  0.38135767  0.98509601  1
  O  O312  1  0.48895874  0.86972117  0.49160212  1
  O  O313  1  0.49463722  0.88105110  0.99368408  1
  O  O314  1  0.98467597  0.37151255  0.50504651  1
  O  O315  1  0.98330118  0.37183847  0.98376718  1
  O  O316  1  0.99111136  0.89041179  0.49981918  1
  O  O317  1  0.99750924  0.88342301  0.98709578  1
  O  O318  1  0.48979722  0.50281392  0.39082940  1
  O  O319  1  0.49617412  0.49132637  0.87907806  1
  O  O320  1  0.49179673  0.98751533  0.36931409  1
  O  O321  1  0.49245083  0.99233395  0.88379875  1
  O  O322  1  1.00114684  0.46872745  0.33692995  1
  O  O323  1  0.98359489  0.49337975  0.86618234  1
  O  O324  1  1.00658120  0.99947457  0.37880041  1
  O  O325  1  0.99326242  0.99153846  0.87970966  1
  O  O326  1  0.00440098  -0.00427832  0.10544733  1
  O  O327  1  0.01338764  -0.00539387  0.63208663  1
  O  O328  1  0.01406840  0.50680386  0.13296099  1
  O  O329  1  0.01723925  0.50103241  0.62792815  1
  O  O330  1  0.50775517  -0.00705644  0.11384742  1
  O  O331  1  0.49908330  0.02747001  0.63508221  1
  O  O332  1  0.51090720  0.50251417  0.12489395  1
  O  O333  1  0.50699148  0.50478177  0.62175738  1
  O  O334  1  0.25397941  0.38660788  0.23693984  1
  O  O335  1  0.23192734  0.37326347  0.75765650  1
  O  O336  1  0.25700074  0.88240912  0.23673227  1
  O  O337  1  0.25365419  0.88414649  0.73824071  1
  O  O338  1  0.74784441  0.38840102  0.25075568  1
  O  O339  1  0.76034127  0.38737238  0.73886061  1
  O  O340  1  0.73816963  0.87714733  0.25401506  1
  O  O341  1  0.73700010  0.88126263  0.75817483  1
  O  O342  1  0.25182430  0.10841403  0.24893214  1
  O  O343  1  0.25027365  0.11372319  0.75795125  1
  O  O344  1  0.26125795  0.61632909  0.24970319  1
  O  O345  1  0.26361611  0.63129783  0.74811755  1
  O  O346  1  0.75360928  0.12493344  0.26035477  1
  O  O347  1  0.75866906  0.11613489  0.75532237  1
  O  O348  1  0.75621260  0.62532368  0.25961616  1
  O  O349  1  0.75822375  0.62147332  0.75599224  1
  O  O350  1  0.37599325  0.12796020  0.36823514  1
  O  O351  1  0.36802491  0.11210412  0.88239559  1
  O  O352  1  0.37193093  0.61756538  0.36708515  1
  O  O353  1  0.37458355  0.61597843  0.86783213  1
  O  O354  1  0.87017074  0.13556886  0.35719214  1
  O  O355  1  0.86792151  0.11765372  0.86391079  1
  O  O356  1  0.87462290  0.62608752  0.36136711  1
  O  O357  1  0.86387418  0.61705788  0.87161185  1
  O  O358  1  0.13592526  0.39118780  0.12477674  1
  O  O359  1  0.12116490  0.38430557  0.63764161  1
  O  O360  1  0.14248967  0.87286941  0.11699225  1
  O  O361  1  0.13690453  0.88936038  0.61384391  1
  O  O362  1  0.63096758  0.38751264  0.12825921  1
  O  O363  1  0.63996522  0.38161680  0.62239207  1
  O  O364  1  0.62720254  0.88412601  0.13496541  1
  O  O365  1  0.61103917  0.88462137  0.63906780  1
  O  O366  1  0.13990001  0.26032506  0.26958381  1
  O  O367  1  0.11493747  0.26238050  0.74952132  1
  O  O368  1  0.11808517  0.74324743  0.26243129  1
  O  O369  1  0.10389155  0.73434019  0.75625069  1
  O  O370  1  0.63761465  0.27114377  0.24259472  1
  O  O371  1  0.63654831  0.24247982  0.76342795  1
  O  O372  1  0.61367469  0.76050284  0.24129837  1
  O  O373  1  0.61227225  0.75790204  0.74401434  1
  O  O374  1  0.36468248  0.25136769  0.23256139  1
  O  O375  1  0.37075594  0.29540693  0.70105855  1
  O  O376  1  0.38076821  0.74245472  0.24671362  1
  O  O377  1  0.38628185  0.74367582  0.74337040  1
  O  O378  1  0.87555767  0.24558615  0.23334767  1
  O  O379  1  0.87836737  0.24307529  0.74407016  1
  O  O380  1  0.89258265  0.74525521  0.25433528  1
  O  O381  1  0.88060705  0.73827489  0.75046214  1
  O  O382  1  0.37870417  0.48824390  0.49769870  1
  O  O383  1  0.37714179  0.50998663  0.98544284  1
  O  O384  1  0.36278531  0.98662018  0.50129614  1
  O  O385  1  0.38233945  0.99219883  0.99550295  1
  O  O386  1  0.87302310  0.48793675  0.50020073  1
  O  O387  1  0.86355996  0.49272547  0.99043990  1
  O  O388  1  0.89161398  1.00787296  0.49383556  1
  O  O389  1  0.88472416  1.00971087  0.98784581  1
  O  O390  1  0.11131827  -0.00090931  -0.00496289  1
  O  O391  1  0.11641602  0.00760028  0.50762938  1
  O  O392  1  0.12734818  0.51081690  0.01546616  1
  O  O393  1  0.12111606  0.51440241  0.50515829  1
  O  O394  1  0.61790179  0.00649337  0.00603655  1
  O  O395  1  0.63325553  0.01354511  0.49701914  1
  O  O396  1  0.63270681  0.51146728  0.01076967  1
  O  O397  1  0.61631399  0.49488272  0.51110365  1
  O  O398  1  0.36511431  0.37234307  0.12428669  1
  O  O399  1  0.36976552  0.36488982  0.65792969  1
  O  O400  1  0.36923524  0.86878688  0.11783925  1
  O  O401  1  0.36845581  0.87018655  0.61860580  1
  O  O402  1  0.87545582  0.36551211  0.11827716  1
  O  O403  1  0.86651035  0.36857723  0.61773728  1
  O  O404  1  0.86697263  0.87105207  0.12945379  1
  O  O405  1  0.86789675  0.89072565  0.60028323  1
  O  O406  1  0.12695134  0.12840685  0.38669041  1
  O  O407  1  0.13888154  0.12966488  0.86800764  1
  O  O408  1  0.12586004  0.62894501  0.38902678  1
  O  O409  1  0.12451943  0.61590443  0.89106674  1
  O  O410  1  0.64591563  0.12542766  0.38254713  1
  O  O411  1  0.62914913  0.13139612  0.88606944  1
  O  O412  1  0.63186024  0.62926558  0.37034922  1
  O  O413  1  0.63578637  0.61645001  0.88252713  1
