# generated using pymatgen
data_V79Zn79O256
_symmetry_space_group_name_H-M   'P 1'
_cell_length_a   16.94060027
_cell_length_b   16.93087026
_cell_length_c   16.92025204
_cell_angle_alpha   89.96959644
_cell_angle_beta   89.98751311
_cell_angle_gamma   89.82526161
_symmetry_Int_Tables_number   1
_chemical_formula_structural   V79Zn79O256
_chemical_formula_sum   'V79 Zn79 O256'
_cell_volume   4853.02818715
_cell_formula_units_Z   1
loop_
 _symmetry_equiv_pos_site_id
 _symmetry_equiv_pos_as_xyz
  1  'x, y, z'
loop_
 _atom_site_type_symbol
 _atom_site_label
 _atom_site_symmetry_multiplicity
 _atom_site_fract_x
 _atom_site_fract_y
 _atom_site_fract_z
 _atom_site_occupancy
  V  V0  1  0.61676336  0.00019374  0.62158231  1
  V  V1  1  0.49932226  0.25018701  0.75427918  1
  V  V2  1  -0.01155737  0.37766068  0.87542864  1
  V  V3  1  0.87100212  0.50315143  0.37284413  1
  V  V4  1  0.37587583  0.62260648  0.25350476  1
  V  V5  1  0.24914949  0.12595562  0.87554745  1
  V  V6  1  0.11936046  0.87143897  0.24901361  1
  V  V7  1  0.49520628  0.63280301  0.63567504  1
  V  V8  1  0.25939517  0.75143626  0.49919409  1
  V  V9  1  0.50323140  0.37299951  0.87723141  1
  V  V10  1  0.00758123  0.11676510  0.62602040  1
  V  V11  1  0.63080802  0.49735676  0.12451339  1
  V  V12  1  0.62772933  0.63212018  -0.00823026  1
  V  V13  1  -0.00523386  0.13099814  0.12692449  1
  V  V14  1  0.62762327  0.37402064  0.25379788  1
  V  V15  1  0.25144309  0.87594182  0.11610497  1
  V  V16  1  0.37053041  0.50381521  0.37794515  1
  V  V17  1  0.50662176  0.11841741  0.12978182  1
  V  V18  1  0.85583365  0.23413825  0.60469551  1
  V  V19  1  0.76080386  0.86503972  0.62404575  1
  V  V20  1  -0.00452284  0.25539690  0.74161044  1
  V  V21  1  0.12674977  0.73923648  0.38080750  1
  V  V22  1  0.87543020  0.12531883  0.75104098  1
  V  V23  1  0.61502954  0.50314911  0.61892025  1
  V  V24  1  0.35818565  0.50251757  0.87815447  1
  V  V25  1  0.12280143  0.25593894  0.87555273  1
  V  V26  1  0.87214316  0.75233725  0.12391570  1
  V  V27  1  0.12205972  0.12677904  -0.00051220  1
  V  V28  1  0.62025801  0.37177080  0.74944437  1
  V  V29  1  0.37362961  0.76789135  0.62856478  1
  V  V30  1  0.75409273  0.74668985  -0.00889727  1
  V  V31  1  0.12343880  0.50007751  0.12774016  1
  V  V32  1  0.24303112  0.37784798  0.13558691  1
  V  V33  1  0.37291511  0.25176887  0.12750310  1
  V  V34  1  0.86476989  0.36387272  0.03034996  1
  V  V35  1  0.61748277  0.62974150  0.49244509  1
  V  V36  1  0.74876869  0.50217349  0.25044523  1
  V  V37  1  0.86358550  -0.00330105  0.37733918  1
  V  V38  1  0.87251774  0.87642625  0.00157955  1
  V  V39  1  0.36800265  0.25978944  0.62657278  1
  V  V40  1  0.86576047  0.36865982  0.48864720  1
  V  V41  1  0.24728069  -0.00080197  0.25996107  1
  V  V42  1  0.74677395  0.37293627  0.61562017  1
  V  V43  1  0.49058642  -0.01350614  0.48030901  1
  V  V44  1  0.50029410  0.38291097  0.37922000  1
  V  V45  1  0.24418237  0.14057561  0.37684781  1
  V  V46  1  0.37286184  0.12091919  0.25597054  1
  V  V47  1  0.24838097  0.50509808  0.72620950  1
  V  V48  1  0.01555285  0.24873028  0.25253142  1
  V  V49  1  0.00480302  0.49863298  0.50201730  1
  V  V50  1  0.49992253  0.01175154  -0.00074265  1
  V  V51  1  0.87770933  -0.00350285  0.87522622  1
  V  V52  1  0.42857520  0.83313535  -0.04867136  1
  V  V53  1  0.38071256  0.75455932  0.13151577  1
  V  V54  1  0.61874758  0.86322643  0.77175938  1
  V  V55  1  0.61630221  0.76272541  0.36212713  1
  V  V56  1  0.12353476  0.00017282  0.12366218  1
  V  V57  1  0.00068466  -0.00373122  -0.00391264  1
  V  V58  1  0.70593966  0.93530333  0.17232476  1
  V  V59  1  0.50200748  0.25053827  0.25842267  1
  V  V60  1  0.87250149  0.62511146  0.25079280  1
  V  V61  1  0.11884200  0.87659562  0.76247989  1
  V  V62  1  0.86324676  0.12651448  0.25540559  1
  V  V63  1  0.37304975  0.37702030  0.00443471  1
  V  V64  1  0.37796381  0.00579784  0.87910598  1
  V  V65  1  0.50162240  0.49908270  0.00370298  1
  V  V66  1  0.75396157  0.50019463  0.75231272  1
  V  V67  1  -0.00600877  0.50106010  -0.00237624  1
  V  V68  1  0.75070941  -0.00371415  0.75279314  1
  V  V69  1  0.01440542  0.36932366  0.36846050  1
  V  V70  1  0.00147477  0.87919425  0.38406466  1
  V  V71  1  0.12745920  0.12308728  0.50257191  1
  V  V72  1  0.37794150  0.12781986  0.74771606  1
  V  V73  1  0.75549442  0.74511010  0.49580154  1
  V  V74  1  0.23945609  0.73747449  -0.00671060  1
  V  V75  1  0.00376668  0.62732462  0.11475386  1
  V  V76  1  0.13223076  0.37528005  0.73071614  1
  V  V77  1  0.37199769  0.37932739  0.50296223  1
  V  V78  1  0.74440963  0.13970968  0.87447090  1
  Zn  Zn79  1  0.23798027  0.00488780  0.71961587  1
  Zn  Zn80  1  0.36689262  0.63550602  0.75767193  1
  Zn  Zn81  1  0.52758223  0.14970565  0.59350773  1
  Zn  Zn82  1  0.23770860  0.50730386  0.25724750  1
  Zn  Zn83  1  0.50852524  0.63978479  0.12957107  1
  Zn  Zn84  1  -0.00177258  0.74785128  0.25260166  1
  Zn  Zn85  1  0.63398842  0.12949010  -0.00057770  1
  Zn  Zn86  1  0.88324905  0.63408269  0.75494600  1
  Zn  Zn87  1  0.24571201  0.25339035  0.00369314  1
  Zn  Zn88  1  0.13671609  0.61114230  0.51635910  1
  Zn  Zn89  1  0.23995779  0.26003227  0.50609026  1
  Zn  Zn90  1  -0.00486390  0.64330077  0.63625411  1
  Zn  Zn91  1  0.75663408  0.61504552  0.87351093  1
  Zn  Zn92  1  0.00486771  -0.00269230  0.50412427  1
  Zn  Zn93  1  0.31322299  -0.07926028  0.42654674  1
  Zn  Zn94  1  0.18672963  0.18682288  0.18672163  1
  Zn  Zn95  1  0.18936985  0.18759541  0.68888625  1
  Zn  Zn96  1  0.18979446  0.68687121  0.18250009  1
  Zn  Zn97  1  0.18013039  0.69432661  0.68251877  1
  Zn  Zn98  1  0.68352211  0.19025748  0.18553438  1
  Zn  Zn99  1  0.68510332  0.18583187  0.56411281  1
  Zn  Zn100  1  0.68962570  0.68756181  0.18236860  1
  Zn  Zn101  1  0.68572492  0.68766563  0.68825505  1
  Zn  Zn102  1  0.31436340  0.31708064  0.31379263  1
  Zn  Zn103  1  0.31076874  0.31816751  0.81508518  1
  Zn  Zn104  1  0.29812050  0.79789708  0.30442222  1
  Zn  Zn105  1  0.27496197  0.80198954  0.79421743  1
  Zn  Zn106  1  0.83646476  0.32903471  0.26750906  1
  Zn  Zn107  1  0.80897013  0.31409505  0.79839471  1
  Zn  Zn108  1  0.80683272  0.81239942  0.31531008  1
  Zn  Zn109  1  0.81805312  0.81068086  0.81224354  1
  Zn  Zn110  1  0.19083937  0.43799998  0.43645799  1
  Zn  Zn111  1  0.18148015  0.43820248  0.94819246  1
  Zn  Zn112  1  0.19532086  0.93978052  0.56732904  1
  Zn  Zn113  1  0.19019278  0.93342324  0.92633853  1
  Zn  Zn114  1  0.68543480  0.44505317  0.43430199  1
  Zn  Zn115  1  0.69050528  0.42929006  0.93844440  1
  Zn  Zn116  1  0.68439015  0.93245107  0.44637470  1
  Zn  Zn117  1  0.65983935  0.91112303  0.97886175  1
  Zn  Zn118  1  0.31000427  0.06392528  0.06547858  1
  Zn  Zn119  1  0.34306690  0.06930831  0.55114227  1
  Zn  Zn120  1  0.31121078  0.56544865  0.06829062  1
  Zn  Zn121  1  0.31681018  0.57002269  0.55481346  1
  Zn  Zn122  1  0.81656303  0.07416570  0.05892504  1
  Zn  Zn123  1  0.81959975  0.04972681  0.56542158  1
  Zn  Zn124  1  0.81456312  0.55926982  0.06215241  1
  Zn  Zn125  1  0.81348101  0.56661165  0.56877623  1
  Zn  Zn126  1  0.43815700  0.44007502  0.19102184  1
  Zn  Zn127  1  0.43425754  0.44339068  0.68874613  1
  Zn  Zn128  1  0.41520528  0.91300468  0.25556382  1
  Zn  Zn129  1  0.44083146  0.93646182  0.70064274  1
  Zn  Zn130  1  0.94231328  0.43927873  0.18506135  1
  Zn  Zn131  1  0.96008340  0.47370794  0.70642507  1
  Zn  Zn132  1  0.92969778  0.94144674  0.18858686  1
  Zn  Zn133  1  0.94494120  0.92999455  0.69008780  1
  Zn  Zn134  1  0.06505465  0.06195874  0.31437746  1
  Zn  Zn135  1  0.06464555  0.06064617  0.80984028  1
  Zn  Zn136  1  0.05338907  0.56080558  0.30979555  1
  Zn  Zn137  1  0.06937504  0.55634379  0.81215146  1
  Zn  Zn138  1  0.57531888  -0.05400305  0.30094587  1
  Zn  Zn139  1  0.56797672  0.06188427  0.81181284  1
  Zn  Zn140  1  0.55789602  0.56655078  0.31142416  1
  Zn  Zn141  1  0.56133804  0.55917695  0.81211670  1
  Zn  Zn142  1  0.44334461  0.18646577  0.44166471  1
  Zn  Zn143  1  0.43593489  0.18953879  0.94084089  1
  Zn  Zn144  1  0.44166769  0.69303175  0.43656289  1
  Zn  Zn145  1  0.43242354  0.67373057  0.94305033  1
  Zn  Zn146  1  0.94049679  0.18126713  0.43197122  1
  Zn  Zn147  1  0.93433172  0.19275968  0.93735269  1
  Zn  Zn148  1  0.96185875  0.71078867  0.47263645  1
  Zn  Zn149  1  0.92861812  0.69056287  0.91499089  1
  Zn  Zn150  1  0.05795462  0.31599755  0.06326586  1
  Zn  Zn151  1  0.05131058  0.30388218  0.55431895  1
  Zn  Zn152  1  0.06124932  0.81206584  0.05896288  1
  Zn  Zn153  1  0.06578221  0.81146093  0.58484838  1
  Zn  Zn154  1  0.56140681  0.31330856  0.07093941  1
  Zn  Zn155  1  0.55617388  0.31728860  0.56192009  1
  Zn  Zn156  1  0.53839585  0.86371223  0.12290875  1
  Zn  Zn157  1  0.56807107  0.81549609  0.57013041  1
  O  O158  1  0.11667735  0.12040074  0.11990776  1
  O  O159  1  0.11439920  0.13237403  0.62293587  1
  O  O160  1  0.11161784  0.61950411  0.12703649  1
  O  O161  1  0.10870677  0.63506144  0.62288730  1
  O  O162  1  0.60762263  0.12281437  0.12926150  1
  O  O163  1  0.62904046  0.10358209  0.63653129  1
  O  O164  1  0.62362905  0.61445224  0.11484508  1
  O  O165  1  0.61134623  0.62298074  0.62194893  1
  O  O166  1  0.38203906  0.38382093  0.38017729  1
  O  O167  1  0.38096452  0.38409699  0.88402347  1
  O  O168  1  0.37165580  0.86828169  0.34813824  1
  O  O169  1  0.37632443  0.89194625  0.88443044  1
  O  O170  1  0.87485106  0.38280778  0.37281545  1
  O  O171  1  0.88941579  0.37043213  0.86179205  1
  O  O172  1  0.89108433  0.88490244  0.36352139  1
  O  O173  1  0.87561930  0.88971049  0.88498433  1
  O  O174  1  0.24979927  0.00642065  0.36182180  1
  O  O175  1  0.26076507  0.01908022  0.88659459  1
  O  O176  1  0.26412113  0.49782160  0.37105359  1
  O  O177  1  0.25640429  0.49444165  0.88081200  1
  O  O178  1  0.76505781  -0.01292749  0.38153686  1
  O  O179  1  0.76538629  0.00939847  0.86395025  1
  O  O180  1  0.75795666  0.50093585  0.36201911  1
  O  O181  1  0.73864186  0.49295447  0.85497403  1
  O  O182  1  0.23955253  0.49384086  0.12357143  1
  O  O183  1  0.25556583  0.49847498  0.62778319  1
  O  O184  1  0.24222939  0.99585959  0.13232569  1
  O  O185  1  0.26613055  1.01443915  0.61213416  1
  O  O186  1  0.73943800  0.50197382  0.13493336  1
  O  O187  1  0.73668655  0.49067718  0.62942693  1
  O  O188  1  0.76974717  0.99485558  0.12187372  1
  O  O189  1  0.74625945  0.98881609  0.63381817  1
  O  O190  1  -0.00729106  0.36087830  0.25809709  1
  O  O191  1  0.01559006  0.37718367  0.75622576  1
  O  O192  1  0.00858388  0.87332206  0.24924735  1
  O  O193  1  0.01808274  0.86454597  0.74116952  1
  O  O194  1  0.50462777  0.36905325  0.25808762  1
  O  O195  1  0.50026756  0.37387145  0.75913409  1
  O  O196  1  0.51610410  0.88310652  0.22958720  1
  O  O197  1  0.51943009  0.87873628  0.75950757  1
  O  O198  1  0.48837937  0.13386905  0.23927384  1
  O  O199  1  0.49202401  0.13980496  0.76126249  1
  O  O200  1  0.48436131  0.61949548  0.24137736  1
  O  O201  1  0.49837744  0.62605093  0.73918455  1
  O  O202  1  1.00179785  0.13429245  0.24612129  1
  O  O203  1  0.99533850  0.13453916  0.74545679  1
  O  O204  1  0.98762616  0.62575916  0.23625881  1
  O  O205  1  0.99105350  0.58161180  0.73687693  1
  O  O206  1  0.37386337  0.25742909  0.01375059  1
  O  O207  1  0.37708844  0.25965573  0.51138340  1
  O  O208  1  0.36992583  0.76066453  0.01041334  1
  O  O209  1  0.36605879  0.74888592  0.50450559  1
  O  O210  1  0.88160437  0.26658843  0.00453725  1
  O  O211  1  0.88481050  0.26208415  0.49472367  1
  O  O212  1  0.87514592  0.75677940  0.00221066  1
  O  O213  1  0.85239776  0.74002443  0.48469310  1
  O  O214  1  0.12794124  0.23492920  0.50452119  1
  O  O215  1  0.11998054  0.24537019  0.99089334  1
  O  O216  1  0.13080432  0.74712673  0.48579093  1
  O  O217  1  0.13991434  0.75255546  1.00506677  1
  O  O218  1  0.59041834  0.22016975  0.51891248  1
  O  O219  1  0.64917849  0.24636885  1.03209078  1
  O  O220  1  0.62819719  0.74205487  0.49525449  1
  O  O221  1  0.63591908  0.73246103  1.00310387  1
  O  O222  1  0.48967275  0.24529274  0.13555353  1
  O  O223  1  0.48604715  0.25351741  0.64148972  1
  O  O224  1  0.48330465  0.75765653  0.11829136  1
  O  O225  1  0.48620095  0.74254944  0.62110953  1
  O  O226  1  1.00608024  0.24197481  0.13875768  1
  O  O227  1  0.98178498  0.23885766  0.62404468  1
  O  O228  1  0.99056891  0.74206136  0.12313278  1
  O  O229  1  0.98418190  0.74168426  0.58044894  1
  O  O230  1  0.00136354  0.25935125  0.36545489  1
  O  O231  1  0.00610562  0.25691943  0.86471898  1
  O  O232  1  0.00677657  0.76169012  0.37521457  1
  O  O233  1  0.05263890  0.71101786  0.87273716  1
  O  O234  1  0.49130722  0.25978374  0.36403501  1
  O  O235  1  0.49129109  0.26457563  0.87028450  1
  O  O236  1  0.51734476  0.75099134  0.37664876  1
  O  O237  1  0.48438959  0.76983108  0.89908575  1
  O  O238  1  0.25232750  0.13028373  0.48319511  1
  O  O239  1  0.24097744  0.13218247  0.99492657  1
  O  O240  1  0.24695287  0.64090369  0.49920924  1
  O  O241  1  0.25395229  0.63785576  1.00228880  1
  O  O242  1  0.79234367  0.16070581  0.54389887  1
  O  O243  1  0.75408404  0.12259298  0.97912959  1
  O  O244  1  0.73321844  0.63789028  0.51368340  1
  O  O245  1  0.74046534  0.62334699  0.99845184  1
  O  O246  1  0.25618812  0.37308465  0.01365529  1
  O  O247  1  0.26584370  0.37186536  0.49137208  1
  O  O248  1  0.24836181  0.87914624  0.01349345  1
  O  O249  1  0.24457660  0.85767636  0.49374086  1
  O  O250  1  0.76948947  0.38148231  0.00145471  1
  O  O251  1  0.75279116  0.37914283  0.50207707  1
  O  O252  1  0.76636246  0.86285089  -0.00441218  1
  O  O253  1  0.74515764  0.86196727  0.51636521  1
  O  O254  1  0.12120680  0.50334792  0.23524355  1
  O  O255  1  0.13989137  0.48528056  0.75096843  1
  O  O256  1  0.12966349  0.99291455  0.24357750  1
  O  O257  1  0.12291749  0.99212116  0.74600272  1
  O  O258  1  0.63104931  0.49879711  0.24489399  1
  O  O259  1  0.62552541  0.49067408  0.73830309  1
  O  O260  1  0.65094236  0.99540808  0.23277370  1
  O  O261  1  0.63733435  0.99084852  0.74859349  1
  O  O262  1  0.35979774  0.01400632  0.24044780  1
  O  O263  1  0.38179695  0.01539276  0.76350205  1
  O  O264  1  0.37183267  0.50984926  0.25481551  1
  O  O265  1  0.35604214  0.49433332  0.75813162  1
  O  O266  1  0.88031712  0.01450090  0.26200752  1
  O  O267  1  0.87539700  0.00474407  0.75710143  1
  O  O268  1  0.86759059  0.50265581  0.25165199  1
  O  O269  1  0.85120321  0.48183450  0.73980415  1
  O  O270  1  0.11243969  0.37754556  0.37194571  1
  O  O271  1  0.11898130  0.36375829  0.87703300  1
  O  O272  1  0.11235702  0.86341665  0.36139661  1
  O  O273  1  0.11169892  0.88383613  0.86658416  1
  O  O274  1  0.61371201  0.38648163  0.36465229  1
  O  O275  1  0.61197530  0.38068618  0.86590203  1
  O  O276  1  0.62860655  0.86694015  0.37076592  1
  O  O277  1  0.63651609  0.87848916  0.87087941  1
  O  O278  1  0.37411651  0.13753695  0.13427955  1
  O  O279  1  0.37783750  0.14004758  0.64245700  1
  O  O280  1  0.38106869  0.63812852  0.12799081  1
  O  O281  1  0.38883350  0.62699223  0.62647522  1
  O  O282  1  0.88853007  0.12051799  0.13914857  1
  O  O283  1  0.88761520  0.12175503  0.63953244  1
  O  O284  1  0.88257679  0.63087466  0.13028643  1
  O  O285  1  0.87942705  0.62289878  0.63863687  1
  O  O286  1  0.25681907  0.25823898  0.12809646  1
  O  O287  1  0.26382328  0.24989561  0.62650765  1
  O  O288  1  0.25861629  0.75655707  0.11418096  1
  O  O289  1  0.26386160  0.74971056  0.60955572  1
  O  O290  1  0.71177286  0.24823522  0.08746993  1
  O  O291  1  0.74584024  0.26787234  0.63216863  1
  O  O292  1  0.76586895  0.73831876  0.10944748  1
  O  O293  1  0.74741003  0.75927227  0.61896580  1
  O  O294  1  0.24805934  0.24219603  0.37137667  1
  O  O295  1  0.24069742  0.24443175  0.87732954  1
  O  O296  1  0.23497975  0.74541582  0.38136337  1
  O  O297  1  0.26339515  0.75807142  0.89751223  1
  O  O298  1  0.70288445  0.19234990  0.39231192  1
  O  O299  1  0.75643341  0.23826347  0.86464075  1
  O  O300  1  0.73488500  0.75601952  0.38988525  1
  O  O301  1  0.75591172  0.74073237  0.88887236  1
  O  O302  1  0.00093463  0.12106354  0.00902681  1
  O  O303  1  0.00925570  0.12484744  0.50754807  1
  O  O304  1  -0.01379290  0.61560338  0.00802056  1
  O  O305  1  -0.00838153  0.59905383  0.49275588  1
  O  O306  1  0.50327111  0.13148912  0.01451529  1
  O  O307  1  0.46811902  0.09895424  0.51120089  1
  O  O308  1  0.51314070  0.61592360  0.00331445  1
  O  O309  1  0.51240302  0.63093619  0.51202116  1
  O  O310  1  0.48969576  0.37475925  0.48688489  1
  O  O311  1  0.49654887  0.37942826  0.99643907  1
  O  O312  1  0.51040734  0.89003428  0.50457725  1
  O  O313  1  0.49088154  0.89277237  1.01019355  1
  O  O314  1  0.99120314  0.37644181  0.48011978  1
  O  O315  1  0.98662877  0.37934998  0.99557920  1
  O  O316  1  1.00902860  0.87774678  0.48488479  1
  O  O317  1  0.99201107  0.88933097  1.00438110  1
  O  O318  1  0.48720798  0.49078686  0.36722217  1
  O  O319  1  0.49345792  0.49066877  0.88640369  1
  O  O320  1  0.51451788  0.99917347  0.38333548  1
  O  O321  1  0.48803436  1.01683488  0.88465431  1
  O  O322  1  0.99070500  0.48346066  0.37358047  1
  O  O323  1  1.01237163  0.48785539  0.88809623  1
  O  O324  1  1.00135912  0.98744612  0.37422114  1
  O  O325  1  0.98928469  1.01568858  0.88768616  1
  O  O326  1  0.00394748  0.00951708  0.11690387  1
  O  O327  1  -0.00732330  0.01304414  0.62300256  1
  O  O328  1  0.00518720  0.50720603  0.11947786  1
  O  O329  1  -0.00533733  0.47623885  0.59843971  1
  O  O330  1  0.48791491  0.01915382  0.11610336  1
  O  O331  1  0.51437308  -0.00386381  0.63040594  1
  O  O332  1  0.50616528  0.49835318  0.11307204  1
  O  O333  1  0.50668711  0.51317617  0.62839161  1
  O  O334  1  0.25580885  0.38220220  0.23873029  1
  O  O335  1  0.23774710  0.37887842  0.74746275  1
  O  O336  1  0.23611942  0.88112723  0.23992922  1
  O  O337  1  0.23949488  0.90398525  0.77003521  1
  O  O338  1  0.73866409  0.38481193  0.25385303  1
  O  O339  1  0.73552791  0.38177159  0.73896760  1
  O  O340  1  0.75513916  0.86784933  0.23085239  1
  O  O341  1  0.75000830  0.87933358  0.74579763  1
  O  O342  1  0.25130096  0.12031216  0.25849463  1
  O  O343  1  0.25836078  0.12559188  0.76088305  1
  O  O344  1  0.26780661  0.62168049  0.23917732  1
  O  O345  1  0.24704040  0.60751937  0.74113287  1
  O  O346  1  0.76518542  0.13699835  0.24288509  1
  O  O347  1  0.76425233  0.11361186  0.75760364  1
  O  O348  1  0.76244360  0.61444914  0.24270588  1
  O  O349  1  0.74478588  0.60727613  0.74667851  1
  O  O350  1  0.36243205  0.13284765  0.36217444  1
  O  O351  1  0.36646340  0.12851369  0.86904495  1
  O  O352  1  0.38303354  0.62039230  0.36227045  1
  O  O353  1  0.38207411  0.60808482  0.86892927  1
  O  O354  1  0.87629318  0.11246809  0.36522442  1
  O  O355  1  0.87223541  0.12233852  0.86589708  1
  O  O356  1  0.88550329  0.60893834  0.35972691  1
  O  O357  1  0.87066971  0.60424786  0.86925284  1
  O  O358  1  0.13287818  0.38239426  0.12202438  1
  O  O359  1  0.11987605  0.36524151  0.63327123  1
  O  O360  1  0.12969488  0.87983328  0.13020442  1
  O  O361  1  0.13397762  0.87662475  0.63634306  1
  O  O362  1  0.61551905  0.38889114  0.14108749  1
  O  O363  1  0.62427478  0.38514084  0.62647898  1
  O  O364  1  0.64561563  0.88706332  0.09682001  1
  O  O365  1  0.63687678  0.88422983  0.63930818  1
  O  O366  1  0.11482876  0.24792106  0.25286193  1
  O  O367  1  0.12031283  0.26177219  0.75547412  1
  O  O368  1  0.12571430  0.75592321  0.25579490  1
  O  O369  1  0.16146900  0.77500517  0.75701327  1
  O  O370  1  0.61359210  0.26179725  0.24555746  1
  O  O371  1  0.60839357  0.26774430  0.74344038  1
  O  O372  1  0.63204623  0.73894753  0.26459173  1
  O  O373  1  0.63345013  0.76420172  0.75374514  1
  O  O374  1  0.38076100  0.24588835  0.24365688  1
  O  O375  1  0.37962408  0.25013906  0.74854687  1
  O  O376  1  0.37045991  0.73548370  0.23818477  1
  O  O377  1  0.35942997  0.74874556  0.73199205  1
  O  O378  1  0.89018366  0.23177488  0.25786674  1
  O  O379  1  0.87486109  0.24103078  0.73226952  1
  O  O380  1  0.87344479  0.74106422  0.24217341  1
  O  O381  1  0.90267665  0.73746453  0.80593496  1
  O  O382  1  0.37345032  0.49372241  0.48946911  1
  O  O383  1  0.38303890  0.49748695  0.99776660  1
  O  O384  1  0.38500053  0.98253453  0.48583015  1
  O  O385  1  0.38416240  1.01724211  0.99098070  1
  O  O386  1  0.87672644  0.48784033  0.48870810  1
  O  O387  1  0.88705657  0.48224020  1.01495592  1
  O  O388  1  0.88436237  1.00486245  0.48165680  1
  O  O389  1  0.88259652  0.99548497  0.99472287  1
  O  O390  1  0.11673732  0.00722478  0.00234510  1
  O  O391  1  0.12621028  0.01843712  0.50520345  1
  O  O392  1  0.10813219  0.49633872  0.01440133  1
  O  O393  1  0.11087794  0.49962680  0.48831907  1
  O  O394  1  0.60489412  0.01238357  -0.00745464  1
  O  O395  1  0.62072351  0.00029311  0.51604941  1
  O  O396  1  0.61997187  0.50040809  0.00743285  1
  O  O397  1  0.63083937  0.51681043  0.50895698  1
  O  O398  1  0.36946584  0.36916728  0.12442263  1
  O  O399  1  0.38300678  0.37241266  0.61448980  1
  O  O400  1  0.36154328  0.86084870  0.14220150  1
  O  O401  1  0.38144807  0.86612795  0.62970527  1
  O  O402  1  0.86970197  0.36556713  0.13389936  1
  O  O403  1  0.86019926  0.35577413  0.60539095  1
  O  O404  1  0.88393069  0.86309809  0.11467638  1
  O  O405  1  0.85974855  0.87804388  0.63114946  1
  O  O406  1  0.13891312  0.12306809  0.38095441  1
  O  O407  1  0.13030391  0.13645490  0.87695600  1
  O  O408  1  0.11130976  0.63912926  0.37089954  1
  O  O409  1  0.10426711  0.65558260  0.87098622  1
  O  O410  1  0.66307720  0.13347109  0.37791728  1
  O  O411  1  0.64098105  0.12859462  0.87183332  1
  O  O412  1  0.61943885  0.62768886  0.38934636  1
  O  O413  1  0.62634134  0.61573089  0.88955604  1
