# generated using pymatgen
data_V79Zn79O256
_symmetry_space_group_name_H-M   'P 1'
_cell_length_a   16.96562828
_cell_length_b   16.92447126
_cell_length_c   16.89306445
_cell_angle_alpha   90.02948177
_cell_angle_beta   89.93822071
_cell_angle_gamma   90.16526073
_symmetry_Int_Tables_number   1
_chemical_formula_structural   V79Zn79O256
_chemical_formula_sum   'V79 Zn79 O256'
_cell_volume   4850.55440344
_cell_formula_units_Z   1
loop_
 _symmetry_equiv_pos_site_id
 _symmetry_equiv_pos_as_xyz
  1  'x, y, z'
loop_
 _atom_site_type_symbol
 _atom_site_label
 _atom_site_symmetry_multiplicity
 _atom_site_fract_x
 _atom_site_fract_y
 _atom_site_fract_z
 _atom_site_occupancy
  V  V0  1  0.12631392  -0.00097113  0.12623468  1
  V  V1  1  0.11674284  0.88498479  0.74621728  1
  V  V2  1  0.37975988  0.38363488  0.00073909  1
  V  V3  1  0.25509702  0.24816693  0.50671784  1
  V  V4  1  0.50097212  0.38484744  0.88327496  1
  V  V5  1  0.24292554  0.00978771  0.74401027  1
  V  V6  1  0.49657024  0.01179502  -0.00509221  1
  V  V7  1  0.62971686  0.37792991  0.74314748  1
  V  V8  1  0.26225593  -0.00134020  0.24779810  1
  V  V9  1  0.75174578  0.00842077  0.75220307  1
  V  V10  1  0.74322577  0.14390591  0.37851936  1
  V  V11  1  0.87914461  0.74157965  0.12840062  1
  V  V12  1  0.01304240  0.37565740  0.88920539  1
  V  V13  1  0.75039591  0.00200817  0.25910504  1
  V  V14  1  0.88107668  0.88126701  0.49721114  1
  V  V15  1  0.61840741  0.87538537  0.24273726  1
  V  V16  1  0.86534694  0.25330931  0.12808627  1
  V  V17  1  0.86743857  0.49649821  0.88352862  1
  V  V18  1  0.36938961  0.13928095  0.73811832  1
  V  V19  1  -0.00306872  0.87753092  0.87462024  1
  V  V20  1  0.00581977  0.25908593  0.25284313  1
  V  V21  1  0.25116406  0.86022307  0.11964588  1
  V  V22  1  -0.00400876  0.74808531  0.74483639  1
  V  V23  1  0.63383988  0.74087884  0.87659168  1
  V  V24  1  0.37186127  0.00867734  0.87170397  1
  V  V25  1  0.24159795  0.49488894  0.25431728  1
  V  V26  1  0.12185708  0.37819630  0.74158361  1
  V  V27  1  0.87128656  0.01817984  0.87456933  1
  V  V28  1  0.75974070  0.49839347  0.23731341  1
  V  V29  1  0.24210856  0.13630368  0.87451990  1
  V  V30  1  0.48839782  0.74275368  0.75013667  1
  V  V31  1  0.00196935  0.74289447  0.24828055  1
  V  V32  1  0.36540165  0.87280666  -0.00390987  1
  V  V33  1  0.10214008  0.00936683  0.61859039  1
  V  V34  1  0.87502148  0.49030879  0.38178956  1
  V  V35  1  0.00947660  0.37505634  0.37802705  1
  V  V36  1  0.24714003  0.25135036  0.00012484  1
  V  V37  1  0.12397714  0.74386662  0.38419053  1
  V  V38  1  0.62581878  0.37432330  0.25452649  1
  V  V39  1  0.49683948  0.12154944  0.12928782  1
  V  V40  1  0.26815251  0.49901520  0.76310745  1
  V  V41  1  0.74565597  0.87476909  0.61751358  1
  V  V42  1  0.76039774  0.62746714  0.37585071  1
  V  V43  1  0.24450376  0.37453340  0.13259580  1
  V  V44  1  0.24437727  0.62269557  0.38528328  1
  V  V45  1  0.74656384  0.86654959  0.12250086  1
  V  V46  1  0.49433891  0.62275761  0.62858860  1
  V  V47  1  0.13393446  0.73979080  0.87061847  1
  V  V48  1  0.00071875  0.12950224  0.13580432  1
  V  V49  1  0.62680960  0.87293975  0.74811643  1
  V  V50  1  0.84876922  0.37271995  0.00500852  1
  V  V51  1  0.37553732  0.24256851  0.12883432  1
  V  V52  1  0.00429770  0.50677105  0.51811322  1
  V  V53  1  0.37870233  0.37244294  0.50168042  1
  V  V54  1  0.50088666  0.87089715  0.39133781  1
  V  V55  1  0.87624009  0.87324422  0.00427947  1
  V  V56  1  0.59940415  0.49843049  0.11953960  1
  V  V57  1  0.00013645  0.00369080  0.00255380  1
  V  V58  1  0.87111096  0.74004614  0.61841794  1
  V  V59  1  -0.00651446  0.24639870  0.74353271  1
  V  V60  1  0.25793831  0.12140478  0.37136166  1
  V  V61  1  0.62746088  0.23332320  0.88312193  1
  V  V62  1  0.37808294  0.49636905  0.37627205  1
  V  V63  1  0.62701060  0.74373039  0.37588273  1
  V  V64  1  0.25057641  0.38365595  0.62365883  1
  V  V65  1  0.11273133  0.12584912  0.49575180  1
  V  V66  1  0.50055915  0.25411084  0.25823616  1
  V  V67  1  0.67135324  0.05469510  0.06195757  1
  V  V68  1  0.37702791  0.62864730  0.23916423  1
  V  V69  1  0.13072978  0.87002403  0.25065231  1
  V  V70  1  0.12435942  0.12902041  0.00004129  1
  V  V71  1  0.12613503  0.50422210  0.11469522  1
  V  V72  1  0.51057764  0.49783557  0.49941322  1
  V  V73  1  0.74495462  0.50276012  0.74030902  1
  V  V74  1  0.38408655  -0.00282160  0.39127854  1
  V  V75  1  0.49228500  0.25577888  0.74137094  1
  V  V76  1  0.86935498  0.62661729  0.76100475  1
  V  V77  1  0.00670248  0.62109879  0.11253260  1
  V  V78  1  0.61826666  0.12024351  0.50872343  1
  Zn  Zn79  1  0.49945438  0.74088404  0.22818198  1
  Zn  Zn80  1  0.00294314  0.87793607  0.38007719  1
  Zn  Zn81  1  0.63812625  0.62440208  0.51133702  1
  Zn  Zn82  1  0.86787675  0.25780126  0.62579419  1
  Zn  Zn83  1  0.49690633  0.09595158  0.61387366  1
  Zn  Zn84  1  0.12223599  0.62472057  0.53804404  1
  Zn  Zn85  1  0.13528831  0.26000348  0.37067384  1
  Zn  Zn86  1  0.62451973  0.62442088  0.01428997  1
  Zn  Zn87  1  0.28129351  0.64264515  0.87459790  1
  Zn  Zn88  1  0.26723650  0.87941314  0.61343172  1
  Zn  Zn89  1  0.73929500  0.26576943  0.51535445  1
  Zn  Zn90  1  0.28129747  0.75528245  0.52032021  1
  Zn  Zn91  1  0.88378680  0.01612884  0.38275805  1
  Zn  Zn92  1  0.76309522  0.73698988  -0.01562431  1
  Zn  Zn93  1  0.49864808  0.87587576  0.87238183  1
  Zn  Zn94  1  0.18637612  0.18635418  0.19099949  1
  Zn  Zn95  1  0.17372683  0.19523209  0.68538023  1
  Zn  Zn96  1  0.19167995  0.68065878  0.19285381  1
  Zn  Zn97  1  0.22127393  0.68105868  0.68881724  1
  Zn  Zn98  1  0.68349569  0.18748686  0.19479320  1
  Zn  Zn99  1  0.68165515  0.19148829  0.68941985  1
  Zn  Zn100  1  0.68732768  0.68066983  0.19059891  1
  Zn  Zn101  1  0.68619998  0.68579833  0.68608266  1
  Zn  Zn102  1  0.31803056  0.30981642  0.31529806  1
  Zn  Zn103  1  0.31221007  0.32178081  0.81565987  1
  Zn  Zn104  1  0.33564151  0.78833200  0.35276126  1
  Zn  Zn105  1  0.31336438  0.82491573  0.78777118  1
  Zn  Zn106  1  0.81678042  0.31545861  0.30714117  1
  Zn  Zn107  1  0.80868144  0.30680109  0.81414829  1
  Zn  Zn108  1  0.81160065  0.81263549  0.30824516  1
  Zn  Zn109  1  0.81238385  0.81889927  0.80922925  1
  Zn  Zn110  1  0.18437503  0.44246026  0.44498820  1
  Zn  Zn111  1  0.19107655  0.44538072  0.93967733  1
  Zn  Zn112  1  0.18991323  0.93503958  0.43897976  1
  Zn  Zn113  1  0.18588181  0.94202030  0.93363684  1
  Zn  Zn114  1  0.68366919  0.43632164  0.42362800  1
  Zn  Zn115  1  0.68161362  0.43997418  0.93767999  1
  Zn  Zn116  1  0.68108954  0.93903745  0.43870478  1
  Zn  Zn117  1  0.69038563  0.92950823  0.92809691  1
  Zn  Zn118  1  0.31133205  0.06178946  0.06303319  1
  Zn  Zn119  1  0.30732889  0.06203492  0.56111770  1
  Zn  Zn120  1  0.33877253  0.59043597  0.03290252  1
  Zn  Zn121  1  0.31665454  0.56132944  0.56430680  1
  Zn  Zn122  1  0.83064849  0.06003043  0.07268721  1
  Zn  Zn123  1  0.80346088  0.06626243  0.56598526  1
  Zn  Zn124  1  0.81143587  0.56457709  0.05852413  1
  Zn  Zn125  1  0.81145640  0.42980481  0.56102572  1
  Zn  Zn126  1  0.43085828  0.43358894  0.19024924  1
  Zn  Zn127  1  0.44314701  0.43360201  0.68009306  1
  Zn  Zn128  1  0.43699759  0.93373882  0.18055975  1
  Zn  Zn129  1  0.43777818  0.93506290  0.68781803  1
  Zn  Zn130  1  0.94094889  0.43602327  0.18606101  1
  Zn  Zn131  1  0.93565590  0.44011932  0.69759333  1
  Zn  Zn132  1  0.95177665  0.95267383  0.21690750  1
  Zn  Zn133  1  0.92728350  0.94032874  0.68447759  1
  Zn  Zn134  1  0.06553379  0.06001317  0.31516612  1
  Zn  Zn135  1  0.05636610  0.06752594  0.81549126  1
  Zn  Zn136  1  0.05896984  0.56232160  0.31010197  1
  Zn  Zn137  1  0.08742734  0.58256604  0.74377059  1
  Zn  Zn138  1  0.56585317  0.06273810  0.31408985  1
  Zn  Zn139  1  0.55507695  0.05776751  0.78752633  1
  Zn  Zn140  1  0.56401725  0.56039164  0.30704032  1
  Zn  Zn141  1  0.56180381  0.56330620  0.81569940  1
  Zn  Zn142  1  0.43854382  0.18520574  0.43977378  1
  Zn  Zn143  1  0.43919826  0.19598196  0.93315853  1
  Zn  Zn144  1  0.44473536  0.67587809  0.43536386  1
  Zn  Zn145  1  0.45325026  0.69516160  0.94584542  1
  Zn  Zn146  1  0.90940710  0.17495047  0.47338884  1
  Zn  Zn147  1  0.93936316  0.20063470  0.94019337  1
  Zn  Zn148  1  0.93774599  0.68441502  0.43790482  1
  Zn  Zn149  1  0.94699136  0.68522562  0.93380347  1
  Zn  Zn150  1  0.06397134  0.31430102  0.06777540  1
  Zn  Zn151  1  0.05909537  0.31577580  0.55966405  1
  Zn  Zn152  1  0.06800592  0.80819679  0.05766306  1
  Zn  Zn153  1  0.06398441  0.81388175  0.56563193  1
  Zn  Zn154  1  0.57030456  0.31039002  0.06542195  1
  Zn  Zn155  1  0.56930965  0.31104978  0.55641943  1
  Zn  Zn156  1  0.56113879  0.82490380  0.05037294  1
  Zn  Zn157  1  0.56293479  0.80037552  0.56597160  1
  O  O158  1  0.11920372  0.11981550  0.12031984  1
  O  O159  1  0.12396837  0.11944346  0.60922198  1
  O  O160  1  0.12378833  0.61186678  0.12848655  1
  O  O161  1  0.12755741  0.63146089  0.64956271  1
  O  O162  1  0.61752065  0.12180067  0.12035233  1
  O  O163  1  0.62060599  0.12693355  0.61413208  1
  O  O164  1  0.62475135  0.60143363  0.13616866  1
  O  O165  1  0.60889169  0.63581231  0.62009678  1
  O  O166  1  0.36972559  0.38605015  0.38635201  1
  O  O167  1  0.38525661  0.37000068  0.89181402  1
  O  O168  1  0.39335040  0.88741350  0.36848899  1
  O  O169  1  0.36830243  0.89501574  0.87793696  1
  O  O170  1  0.88215982  0.38620570  0.37320817  1
  O  O171  1  0.86819831  0.37310298  0.89596427  1
  O  O172  1  0.87033457  0.86412729  0.39328460  1
  O  O173  1  0.88306654  0.87832841  0.88512655  1
  O  O174  1  0.26505099  0.00070609  0.36947489  1
  O  O175  1  0.25170510  0.01718012  0.86726786  1
  O  O176  1  0.25469059  0.50330225  0.37306250  1
  O  O177  1  0.26313342  0.47998281  0.86230658  1
  O  O178  1  0.75723798  -0.00965584  0.36213930  1
  O  O179  1  0.76120485  -0.00708320  0.86457648  1
  O  O180  1  0.76331374  0.50441292  0.36726481  1
  O  O181  1  0.76111505  0.49332727  0.86984998  1
  O  O182  1  0.23894746  0.49099097  0.13570436  1
  O  O183  1  0.25421154  0.48829320  0.63234037  1
  O  O184  1  0.24442261  0.99653654  0.13173901  1
  O  O185  1  0.23900683  1.00441256  0.63632711  1
  O  O186  1  0.75624107  0.49736760  0.13755554  1
  O  O187  1  0.75114248  0.49794413  0.64242616  1
  O  O188  1  0.73759495  0.99448717  0.12294807  1
  O  O189  1  0.75767729  0.98474271  0.63819321  1
  O  O190  1  0.00065936  0.37042894  0.26191099  1
  O  O191  1  0.01486756  0.37540427  0.75422454  1
  O  O192  1  0.01948220  0.86051664  0.23948091  1
  O  O193  1  -0.00199919  0.87603647  0.75687173  1
  O  O194  1  0.50420628  0.36097149  0.24486061  1
  O  O195  1  0.50388817  0.37246362  0.76168741  1
  O  O196  1  0.50872761  0.86490975  0.23708999  1
  O  O197  1  0.51103230  0.85624082  0.74991626  1
  O  O198  1  0.51175286  0.13590982  0.23720043  1
  O  O199  1  0.48420575  0.14857332  0.75211191  1
  O  O200  1  0.48171467  0.62282294  0.25490166  1
  O  O201  1  0.50608769  0.63091455  0.74011924  1
  O  O202  1  1.00584781  0.13329040  0.24110546  1
  O  O203  1  1.00688223  0.14762332  0.75625099  1
  O  O204  1  1.00624672  0.63773917  0.23825301  1
  O  O205  1  0.98438984  0.63921212  0.75141601  1
  O  O206  1  0.36426935  0.25331318  0.01051157  1
  O  O207  1  0.36607225  0.25981510  0.49085775  1
  O  O208  1  0.37453734  0.77654535  -0.01628020  1
  O  O209  1  0.37188048  0.75391587  0.45887700  1
  O  O210  1  0.87508582  0.26233306  0.01433578  1
  O  O211  1  0.85848645  0.26911419  0.50496737  1
  O  O212  1  0.88051840  0.75812451  0.00693606  1
  O  O213  1  0.87888521  0.75345971  0.51401106  1
  O  O214  1  0.13341034  0.23889195  0.49415834  1
  O  O215  1  0.14034099  0.24579155  1.01015071  1
  O  O216  1  0.11061648  0.74139500  0.48890477  1
  O  O217  1  0.12184268  0.75832699  0.97066397  1
  O  O218  1  0.62747825  0.23601305  0.49859769  1
  O  O219  1  0.61463511  0.24488568  0.98441559  1
  O  O220  1  0.62308026  0.74740641  0.48056863  1
  O  O221  1  0.63019779  0.76282232  0.98026141  1
  O  O222  1  0.49208988  0.23957108  0.12687114  1
  O  O223  1  0.49959710  0.26268190  0.64184113  1
  O  O224  1  0.50747585  0.73615638  0.10198682  1
  O  O225  1  0.49638750  0.74184467  0.64007646  1
  O  O226  1  0.99999344  0.24611733  0.13432497  1
  O  O227  1  1.00128064  0.25803238  0.63932632  1
  O  O228  1  0.99948763  0.74185522  0.12689849  1
  O  O229  1  0.98373430  0.76285418  0.63689456  1
  O  O230  1  -0.00202696  0.26880313  0.37111066  1
  O  O231  1  -0.00598560  0.27130007  0.86489541  1
  O  O232  1  0.00565549  0.75071435  0.36438261  1
  O  O233  1  0.00244466  0.76263504  0.86447895  1
  O  O234  1  0.49377943  0.24264678  0.35630184  1
  O  O235  1  0.50431875  0.26262493  0.86514662  1
  O  O236  1  0.50832069  0.76329880  0.36826733  1
  O  O237  1  0.51369557  0.75250053  0.86518501  1
  O  O238  1  0.24731245  0.13190824  0.49111506  1
  O  O239  1  0.24553873  0.13262222  0.99408136  1
  O  O240  1  0.24420349  0.62051530  0.49300745  1
  O  O241  1  0.24335488  0.60619299  0.97676928  1
  O  O242  1  0.73713539  0.13051415  0.48871070  1
  O  O243  1  0.73833044  0.10649683  1.01120557  1
  O  O244  1  0.74611322  0.61793669  0.47481627  1
  O  O245  1  0.73931127  0.63266510  1.01164510  1
  O  O246  1  0.25926856  0.36805863  0.00918823  1
  O  O247  1  0.25435702  0.36902500  0.50511023  1
  O  O248  1  0.25771340  0.88626531  0.00375966  1
  O  O249  1  0.25264148  0.87178345  0.50228080  1
  O  O250  1  0.75091205  0.37121355  0.00694902  1
  O  O251  1  0.73609977  0.37874774  0.49886763  1
  O  O252  1  0.75986954  0.87135872  0.00665526  1
  O  O253  1  0.75213934  0.87725804  0.51314568  1
  O  O254  1  0.13889915  0.50094773  0.25058322  1
  O  O255  1  0.14316020  0.48290002  0.75366436  1
  O  O256  1  0.13468672  0.98864543  0.24627071  1
  O  O257  1  0.12174582  1.00772093  0.73672839  1
  O  O258  1  0.62872834  0.48896765  0.23994214  1
  O  O259  1  0.63583045  0.49206714  0.75979783  1
  O  O260  1  0.63401234  0.98455224  0.25262151  1
  O  O261  1  0.64377545  0.98223011  0.76312826  1
  O  O262  1  0.36456032  -0.00622061  0.25090645  1
  O  O263  1  0.35782321  0.02107330  0.75837978  1
  O  O264  1  0.36557094  0.50327555  0.25883282  1
  O  O265  1  0.36579892  0.48388048  0.74626310  1
  O  O266  1  0.84841200  -0.00222183  0.23115527  1
  O  O267  1  0.86356732  -0.00255079  0.76081033  1
  O  O268  1  0.86385627  0.49071502  0.25595450  1
  O  O269  1  0.86199508  0.50789084  0.75899828  1
  O  O270  1  0.11416048  0.37848420  0.37628891  1
  O  O271  1  0.11578301  0.38240832  0.87168783  1
  O  O272  1  0.12452428  0.86577821  0.36682493  1
  O  O273  1  0.10734020  0.88653664  0.86641349  1
  O  O274  1  0.61198218  0.38252620  0.35354365  1
  O  O275  1  0.61089424  0.36950775  0.87290300  1
  O  O276  1  0.61434767  0.87034247  0.36591560  1
  O  O277  1  0.62142258  0.86446296  0.86375526  1
  O  O278  1  0.38078218  0.13325081  0.12371091  1
  O  O279  1  0.37438290  0.12330280  0.63519890  1
  O  O280  1  0.36342216  0.61912685  0.14059765  1
  O  O281  1  0.39281252  0.62664682  0.61956634  1
  O  O282  1  0.89048447  0.14202156  0.12015236  1
  O  O283  1  0.88061864  0.14610105  0.58569674  1
  O  O284  1  0.88640496  0.63633917  0.12102372  1
  O  O285  1  0.87032442  0.64166290  0.63914434  1
  O  O286  1  0.25606020  0.25376582  0.12364146  1
  O  O287  1  0.24425474  0.25778983  0.61149990  1
  O  O288  1  0.24325462  0.76121452  0.12610356  1
  O  O289  1  0.23561165  0.76492723  0.62178639  1
  O  O290  1  0.76750281  0.24257003  0.13817198  1
  O  O291  1  0.75197266  0.25401640  0.63214679  1
  O  O292  1  0.76223590  0.75712956  0.13326931  1
  O  O293  1  0.76326357  0.76167623  0.63212002  1
  O  O294  1  0.25199342  0.23894714  0.38011179  1
  O  O295  1  0.25569965  0.24559900  0.88683833  1
  O  O296  1  0.23412114  0.73604376  0.37288875  1
  O  O297  1  0.23719694  0.75241462  0.84922430  1
  O  O298  1  0.74697120  0.24307116  0.36357334  1
  O  O299  1  0.72654349  0.24844291  0.86549897  1
  O  O300  1  0.74433910  0.73401480  0.35937657  1
  O  O301  1  0.73940325  0.75179963  0.86844728  1
  O  O302  1  0.00639690  0.12434885  0.00879722  1
  O  O303  1  0.01604193  0.13009046  0.48022106  1
  O  O304  1  0.00255545  0.62444333  0.01241197  1
  O  O305  1  -0.00017406  0.60989948  0.49887868  1
  O  O306  1  0.49315065  0.11768230  0.00604425  1
  O  O307  1  0.50860340  0.12607448  0.50338977  1
  O  O308  1  0.50930310  0.66963582  0.04710828  1
  O  O309  1  0.50498156  0.61361855  0.50854201  1
  O  O310  1  0.49319267  0.38886425  0.50892786  1
  O  O311  1  0.48918376  0.36759438  0.99424054  1
  O  O312  1  0.50841180  0.87295448  0.48967026  1
  O  O313  1  0.48456800  0.89324158  0.99425314  1
  O  O314  1  1.00384676  0.38972708  0.48653645  1
  O  O315  1  1.00420981  0.37268418  0.99053122  1
  O  O316  1  0.98549348  0.87564526  0.50006010  1
  O  O317  1  0.99393631  0.88229090  0.99495751  1
  O  O318  1  0.48913361  0.50865756  0.38846201  1
  O  O319  1  0.50220170  0.48409689  0.87494653  1
  O  O320  1  0.49168894  0.98981048  0.36980481  1
  O  O321  1  0.48603154  1.00470717  0.87622831  1
  O  O322  1  0.98773814  0.49276147  0.36874850  1
  O  O323  1  0.97446085  0.47415862  0.86836315  1
  O  O324  1  0.98115496  0.98438397  0.33490478  1
  O  O325  1  0.98996690  0.99624192  0.88062284  1
  O  O326  1  0.00440332  0.00979276  0.12500319  1
  O  O327  1  0.00361819  0.00730583  0.62577634  1
  O  O328  1  0.01802207  0.50603617  0.13613717  1
  O  O329  1  -0.00456366  0.50042367  0.61712078  1
  O  O330  1  0.49326454  0.01144383  0.11258652  1
  O  O331  1  0.51315593  0.01105443  0.68279993  1
  O  O332  1  0.50009503  0.49933439  0.12730929  1
  O  O333  1  0.49985075  0.51072438  0.61344224  1
  O  O334  1  0.25962331  0.38018728  0.24163821  1
  O  O335  1  0.24309592  0.37470645  0.74077925  1
  O  O336  1  0.24117198  0.88077644  0.23889401  1
  O  O337  1  0.22306362  0.90046099  0.76435439  1
  O  O338  1  0.73615730  0.38519471  0.25490797  1
  O  O339  1  0.73550531  0.38471634  0.75671207  1
  O  O340  1  0.74188454  0.88178347  0.23950969  1
  O  O341  1  0.74470249  0.87864956  0.73873940  1
  O  O342  1  0.24357006  0.11274183  0.26151447  1
  O  O343  1  0.24809627  0.12982275  0.75433707  1
  O  O344  1  0.25845741  0.61356958  0.26208717  1
  O  O345  1  0.26162258  0.60526612  0.76357450  1
  O  O346  1  0.73572569  0.10915226  0.26288551  1
  O  O347  1  0.74110477  0.10559117  0.74308330  1
  O  O348  1  0.74587125  0.60411689  0.25905287  1
  O  O349  1  0.75582604  0.61411643  0.74975315  1
  O  O350  1  0.36908799  0.10894165  0.37793806  1
  O  O351  1  0.36242440  0.12604627  0.86728656  1
  O  O352  1  0.36288982  0.61035488  0.37049417  1
  O  O353  1  0.37987086  0.61475022  0.92495661  1
  O  O354  1  0.85052310  0.12458693  0.38409078  1
  O  O355  1  0.87856762  0.11659908  0.88719279  1
  O  O356  1  0.86656659  0.61563628  0.37255542  1
  O  O357  1  0.87899797  0.61578924  0.86974935  1
  O  O358  1  0.13681443  0.38445384  0.12458685  1
  O  O359  1  0.13344149  0.37424207  0.63392867  1
  O  O360  1  0.13311723  0.87906776  0.12718557  1
  O  O361  1  0.11541805  0.89586350  0.63311934  1
  O  O362  1  0.61825088  0.38873597  0.13431388  1
  O  O363  1  0.61626204  0.37757160  0.64516112  1
  O  O364  1  0.63690431  0.86697750  0.12826816  1
  O  O365  1  0.63881528  0.86188498  0.63159342  1
  O  O366  1  0.11330637  0.24671135  0.25629299  1
  O  O367  1  0.11738492  0.26848717  0.75282876  1
  O  O368  1  0.12166508  0.75368666  0.25781517  1
  O  O369  1  0.10986021  0.77247962  0.75710801  1
  O  O370  1  0.61303896  0.26379314  0.24018857  1
  O  O371  1  0.61071890  0.26352361  0.75750392  1
  O  O372  1  0.62224529  0.75779330  0.25488887  1
  O  O373  1  0.62322633  0.75391917  0.75999952  1
  O  O374  1  0.38797840  0.25476473  0.23928736  1
  O  O375  1  0.38107915  0.25220588  0.75311678  1
  O  O376  1  0.37387150  0.73249001  0.25599155  1
  O  O377  1  0.39217715  0.73851261  0.77058144  1
  O  O378  1  0.89013666  0.25913064  0.23609382  1
  O  O379  1  0.88952304  0.25849418  0.74952900  1
  O  O380  1  0.89000522  0.76249022  0.23718432  1
  O  O381  1  0.87897945  0.74647918  0.74779696  1
  O  O382  1  0.38144276  0.49191764  0.49374504  1
  O  O383  1  0.37532828  0.47925802  1.01565847  1
  O  O384  1  0.37709885  0.99858910  0.49089466  1
  O  O385  1  0.37789432  1.00236391  0.98773701  1
  O  O386  1  0.88614107  0.49715447  0.48612649  1
  O  O387  1  0.86825472  0.48253943  0.99931803  1
  O  O388  1  0.86753479  0.98429678  0.49892362  1
  O  O389  1  0.88111585  0.99101172  0.99558395  1
  O  O390  1  0.11838103  0.00717627  0.00595296  1
  O  O391  1  0.12529826  0.01100503  0.51000825  1
  O  O392  1  0.12742512  0.49916764  0.01588000  1
  O  O393  1  0.10977769  0.50598192  0.50314011  1
  O  O394  1  0.61515973  -0.00437686  -0.00493480  1
  O  O395  1  0.62859931  0.01753617  0.49910675  1
  O  O396  1  0.61998208  0.49989451  0.01503132  1
  O  O397  1  0.61082705  0.50129330  0.48929157  1
  O  O398  1  0.36753572  0.36255263  0.11767997  1
  O  O399  1  0.36589650  0.37574235  0.61025119  1
  O  O400  1  0.36503206  0.88176169  0.10568075  1
  O  O401  1  0.35229069  0.87097001  0.68506564  1
  O  O402  1  0.87970213  0.36560076  0.11493717  1
  O  O403  1  0.87513126  0.37474222  0.63243130  1
  O  O404  1  0.86833210  0.86809604  0.11463184  1
  O  O405  1  0.86521201  0.86838982  0.61467616  1
  O  O406  1  0.13988686  0.11506107  0.38609871  1
  O  O407  1  0.13505507  0.12229532  0.88325159  1
  O  O408  1  0.13208266  0.62984403  0.37132319  1
  O  O409  1  0.11714770  0.64327988  0.85179337  1
  O  O410  1  0.63641821  0.12139495  0.38201427  1
  O  O411  1  0.60891467  0.13604209  0.86005114  1
  O  O412  1  0.63188850  0.63197750  0.36843076  1
  O  O413  1  0.61570617  0.63805565  0.88533512  1
