# generated using pymatgen
data_V79Zn79O256
_symmetry_space_group_name_H-M   'P 1'
_cell_length_a   16.88382732
_cell_length_b   16.87619102
_cell_length_c   16.89081728
_cell_angle_alpha   89.98641461
_cell_angle_beta   89.96688701
_cell_angle_gamma   90.03667887
_symmetry_Int_Tables_number   1
_chemical_formula_structural   V79Zn79O256
_chemical_formula_sum   'V79 Zn79 O256'
_cell_volume   4812.77794514
_cell_formula_units_Z   1
loop_
 _symmetry_equiv_pos_site_id
 _symmetry_equiv_pos_as_xyz
  1  'x, y, z'
loop_
 _atom_site_type_symbol
 _atom_site_label
 _atom_site_symmetry_multiplicity
 _atom_site_fract_x
 _atom_site_fract_y
 _atom_site_fract_z
 _atom_site_occupancy
  V  V0  1  0.74691691  0.38304026  0.12600006  1
  V  V1  1  0.23979914  -0.01962423  0.74913118  1
  V  V2  1  0.37360362  0.00672182  0.87322297  1
  V  V3  1  0.87563115  0.11994420  0.25232222  1
  V  V4  1  0.00465570  0.50959158  -0.00117833  1
  V  V5  1  0.50236450  0.37439899  0.86563073  1
  V  V6  1  0.24879007  0.37075193  0.12361201  1
  V  V7  1  0.49583933  0.75103409  0.73421695  1
  V  V8  1  0.13988447  0.75966624  0.37214331  1
  V  V9  1  0.23057992  0.12667994  0.87116321  1
  V  V10  1  0.87812505  0.25162474  0.63945233  1
  V  V11  1  0.20705209  0.56134052  0.80799178  1
  V  V12  1  0.74490460  0.49608880  0.74592175  1
  V  V13  1  0.25423719  0.50812828  0.25369882  1
  V  V14  1  0.74884747  0.63096443  0.88087843  1
  V  V15  1  0.62713958  0.25627244  0.86828456  1
  V  V16  1  0.50057683  0.62695685  0.13373207  1
  V  V17  1  0.12698819  -0.00657154  0.13959021  1
  V  V18  1  0.86830751  0.75601343  0.62279141  1
  V  V19  1  0.12563805  0.37223529  0.25388651  1
  V  V20  1  0.37944045  0.24724338  0.12401173  1
  V  V21  1  0.12623192  0.11825199  0.50002886  1
  V  V22  1  0.87777464  0.36721314  0.49908187  1
  V  V23  1  0.13062864  0.50450146  0.62041332  1
  V  V24  1  0.37976964  0.22667846  0.62954004  1
  V  V25  1  0.37677218  0.37388606  -0.00311954  1
  V  V26  1  0.61244239  0.49852103  0.62192329  1
  V  V27  1  0.37768214  0.50887699  0.87687136  1
  V  V28  1  0.61923540  0.01050322  0.63042012  1
  V  V29  1  0.36966611  0.74552261  0.13394201  1
  V  V30  1  0.01549941  0.75620918  0.75052019  1
  V  V31  1  0.00287008  0.36421736  0.87021064  1
  V  V32  1  0.62271076  0.62098700  0.00337412  1
  V  V33  1  0.74262353  0.75580576  0.50434879  1
  V  V34  1  0.12184946  0.50636199  0.11598899  1
  V  V35  1  0.62506746  0.75314214  0.36473973  1
  V  V36  1  0.62981808  0.25407114  0.38296907  1
  V  V37  1  0.88545622  0.71505175  0.16866002  1
  V  V38  1  0.87763208  0.00373450  0.87015378  1
  V  V39  1  0.87493481  0.49944565  0.87628853  1
  V  V40  1  0.01252177  0.87356317  0.87171249  1
  V  V41  1  0.25311989  0.37312680  0.62978391  1
  V  V42  1  0.88035562  -0.01185934  0.39242563  1
  V  V43  1  -0.00257723  0.13444433  0.63507808  1
  V  V44  1  0.87332816  0.25095102  0.12752231  1
  V  V45  1  0.50595110  0.11053500  0.11841754  1
  V  V46  1  0.87087122  0.62888857  0.74753965  1
  V  V47  1  0.38533722  0.62247359  0.73904368  1
  V  V48  1  0.74691079  0.25034492  0.00271176  1
  V  V49  1  0.73847126  -0.00421676  0.24123507  1
  V  V50  1  0.75456122  0.50754214  0.25065874  1
  V  V51  1  0.60818160  0.61994497  0.50028924  1
  V  V52  1  0.74971565  0.37312704  0.61868918  1
  V  V53  1  0.88070814  0.50682877  0.37657564  1
  V  V54  1  0.62173924  0.74789630  0.87744658  1
  V  V55  1  0.75205626  0.13035407  0.37975788  1
  V  V56  1  0.00131906  0.24979399  0.25154622  1
  V  V57  1  0.37431430  0.87264935  -0.00415279  1
  V  V58  1  0.51170175  0.88148535  0.35373122  1
  V  V59  1  0.75323073  0.00480976  0.75027891  1
  V  V60  1  0.75644236  0.62792614  0.37552895  1
  V  V61  1  0.86896772  0.86731779  -0.00004394  1
  V  V62  1  0.00277561  0.62384184  0.61862641  1
  V  V63  1  0.12470373  0.35179406  0.75228827  1
  V  V64  1  0.49485583  0.38136063  0.38370796  1
  V  V65  1  0.23733983  0.24245608  -0.00559954  1
  V  V66  1  0.62424638  0.37862125  0.24871502  1
  V  V67  1  0.62216906  0.12859527  0.50302872  1
  V  V68  1  0.13369148  0.24282312  0.37781043  1
  V  V69  1  0.00868437  0.00265663  -0.00232867  1
  V  V70  1  0.36745753  0.00166423  0.37595004  1
  V  V71  1  0.62642226  0.87512098  0.74461311  1
  V  V72  1  0.00640640  0.12590712  0.11951437  1
  V  V73  1  0.36561493  0.11830524  0.25099817  1
  V  V74  1  0.50348041  -0.00895841  0.50119536  1
  V  V75  1  0.23361639  0.73719768  -0.00878848  1
  V  V76  1  0.11269560  -0.01323957  0.62867747  1
  V  V77  1  0.75582963  0.12924797  0.87233628  1
  V  V78  1  0.50129595  0.22767032  0.75074339  1
  Zn  Zn79  1  0.37731945  0.37877002  0.50576672  1
  Zn  Zn80  1  0.38297094  0.52588364  0.37905726  1
  Zn  Zn81  1  0.24260302  0.87354786  0.12821609  1
  Zn  Zn82  1  0.62894724  0.10200081  0.00924301  1
  Zn  Zn83  1  0.75591126  0.88571267  0.61603493  1
  Zn  Zn84  1  0.25985842  0.23669536  0.49902470  1
  Zn  Zn85  1  0.87722211  0.37721010  0.00244249  1
  Zn  Zn86  1  0.44378976  0.69580900  0.30926025  1
  Zn  Zn87  1  0.50093704  0.24920878  0.25191795  1
  Zn  Zn88  1  0.50290344  0.87642099  0.87974296  1
  Zn  Zn89  1  0.75012191  0.87322530  0.12061321  1
  Zn  Zn90  1  0.00964683  0.50392314  0.49455838  1
  Zn  Zn91  1  0.32960365  0.83626063  0.56387832  1
  Zn  Zn92  1  0.00361534  0.37647796  0.37781266  1
  Zn  Zn93  1  0.50506829  0.49650887  0.00808475  1
  Zn  Zn94  1  0.18764383  0.18404440  0.18517631  1
  Zn  Zn95  1  0.19399069  0.17600224  0.68388539  1
  Zn  Zn96  1  0.17266043  0.68262894  0.18427841  1
  Zn  Zn97  1  0.19192377  0.69184821  0.67975798  1
  Zn  Zn98  1  0.68576537  0.18830086  0.19141335  1
  Zn  Zn99  1  0.68915142  0.19302357  0.68916205  1
  Zn  Zn100  1  0.67863644  0.72677431  0.16004077  1
  Zn  Zn101  1  0.68106548  0.68357038  0.68526328  1
  Zn  Zn102  1  0.31284142  0.31010301  0.30950523  1
  Zn  Zn103  1  0.31529901  0.30500525  0.80882663  1
  Zn  Zn104  1  0.31724021  0.83600406  0.30457445  1
  Zn  Zn105  1  0.30747212  0.80350755  0.81511162  1
  Zn  Zn106  1  0.81501035  0.31608128  0.31375174  1
  Zn  Zn107  1  0.81241865  0.31705926  0.81111220  1
  Zn  Zn108  1  0.81610455  0.81271697  0.30992606  1
  Zn  Zn109  1  0.81341901  0.81696994  0.81450028  1
  Zn  Zn110  1  0.21899561  0.44955782  0.45228569  1
  Zn  Zn111  1  0.18719748  0.42739044  0.93603911  1
  Zn  Zn112  1  0.19062668  0.94206562  0.44822082  1
  Zn  Zn113  1  0.19313964  0.93274283  0.94538256  1
  Zn  Zn114  1  0.68914564  0.43948097  0.43911561  1
  Zn  Zn115  1  0.68793346  0.43984385  0.93914380  1
  Zn  Zn116  1  0.69017078  0.94341192  0.43287320  1
  Zn  Zn117  1  0.68579663  0.93566821  0.93712385  1
  Zn  Zn118  1  0.30923898  0.06224516  0.05879303  1
  Zn  Zn119  1  0.31908447  0.03223852  0.57369407  1
  Zn  Zn120  1  0.31169863  0.56444381  0.06450487  1
  Zn  Zn121  1  0.31718081  0.55674218  0.56530089  1
  Zn  Zn122  1  0.81766662  0.06008324  0.06080977  1
  Zn  Zn123  1  0.81249923  0.07039635  0.56402659  1
  Zn  Zn124  1  0.81702845  0.57070817  0.06493436  1
  Zn  Zn125  1  0.81105131  0.56328414  0.55652718  1
  Zn  Zn126  1  0.43744823  0.44226441  0.19334406  1
  Zn  Zn127  1  0.43325208  0.43471790  0.69240163  1
  Zn  Zn128  1  0.43483921  0.93637496  0.18135961  1
  Zn  Zn129  1  0.43709237  0.94213891  0.69499532  1
  Zn  Zn130  1  0.93749292  0.44214817  0.18790688  1
  Zn  Zn131  1  0.94095027  0.43623736  0.68666214  1
  Zn  Zn132  1  0.94044931  0.93198468  0.18675845  1
  Zn  Zn133  1  0.93907998  0.93834979  0.68532081  1
  Zn  Zn134  1  0.05746673  0.05956127  0.31689267  1
  Zn  Zn135  1  0.06169843  0.06496964  0.80867114  1
  Zn  Zn136  1  0.06924621  0.56436771  0.30665536  1
  Zn  Zn137  1  0.04789467  0.56060345  0.80712072  1
  Zn  Zn138  1  0.55922762  0.07006893  0.30846959  1
  Zn  Zn139  1  0.57349874  0.05225696  0.84290425  1
  Zn  Zn140  1  0.56902468  0.56055842  0.31273740  1
  Zn  Zn141  1  0.56104713  0.56076702  0.81186209  1
  Zn  Zn142  1  0.44090370  0.18790838  0.43876288  1
  Zn  Zn143  1  0.43618301  0.18594281  0.93695361  1
  Zn  Zn144  1  0.32654551  0.69712395  0.45014622  1
  Zn  Zn145  1  0.43964003  0.69230578  0.94218321  1
  Zn  Zn146  1  0.94528175  0.18296006  0.44229477  1
  Zn  Zn147  1  0.93521264  0.18768119  0.93957825  1
  Zn  Zn148  1  0.93779455  0.70373571  0.43844224  1
  Zn  Zn149  1  0.94344984  0.69058245  0.93561513  1
  Zn  Zn150  1  0.05730092  0.31779006  0.05940980  1
  Zn  Zn151  1  0.06467396  0.31331816  0.56076689  1
  Zn  Zn152  1  0.05070019  0.80967151  0.06834903  1
  Zn  Zn153  1  0.04833769  0.81092667  0.55338723  1
  Zn  Zn154  1  0.56457191  0.31068960  0.06086732  1
  Zn  Zn155  1  0.55909914  0.31201227  0.56798419  1
  Zn  Zn156  1  0.55680233  0.81638740  0.06464746  1
  Zn  Zn157  1  0.50393927  0.76705806  0.51382547  1
  O  O158  1  0.11142249  0.11900437  0.12714855  1
  O  O159  1  0.11286294  0.12188702  0.62010039  1
  O  O160  1  0.13059822  0.60351528  0.10948732  1
  O  O161  1  0.11625473  0.61649227  0.63180826  1
  O  O162  1  0.61151757  0.13192052  0.12333048  1
  O  O163  1  0.63471195  0.12119533  0.61636895  1
  O  O164  1  0.61212624  0.63978591  0.11487478  1
  O  O165  1  0.62615370  0.61276796  0.61147954  1
  O  O166  1  0.39205816  0.36269087  0.37477884  1
  O  O167  1  0.38095487  0.37999424  0.88012654  1
  O  O168  1  0.39410027  0.89441804  0.36720193  1
  O  O169  1  0.36902391  0.87653501  0.88599326  1
  O  O170  1  0.87894222  0.38407168  0.38265615  1
  O  O171  1  0.88082153  0.38837840  0.87196933  1
  O  O172  1  0.86588680  0.89000464  0.37747496  1
  O  O173  1  0.88338217  0.88537466  0.87929302  1
  O  O174  1  0.26854669  -0.00527548  0.38231968  1
  O  O175  1  0.24699739  0.00597999  0.86882822  1
  O  O176  1  0.22566494  0.50184741  0.35165235  1
  O  O177  1  0.25971450  0.49665383  0.87313940  1
  O  O178  1  0.75884261  0.01217745  0.36484267  1
  O  O179  1  0.75917015  0.01047057  0.86826288  1
  O  O180  1  0.75966792  0.50774776  0.37231419  1
  O  O181  1  0.75592784  0.50688376  0.86678612  1
  O  O182  1  0.24253075  0.48614124  0.12601893  1
  O  O183  1  0.24273239  0.48752596  0.62686021  1
  O  O184  1  0.22905859  1.00314883  0.11648095  1
  O  O185  1  0.22715648  1.00382256  0.64267268  1
  O  O186  1  0.75812607  0.49139598  0.13459357  1
  O  O187  1  0.74758105  0.49432000  0.63018961  1
  O  O188  1  0.74988900  1.00548298  0.13665313  1
  O  O189  1  0.74477642  1.00457082  0.63599778  1
  O  O190  1  0.01011583  0.36836425  0.24829620  1
  O  O191  1  0.01648744  0.38181921  0.75568476  1
  O  O192  1  -0.00375999  0.87313397  0.26010007  1
  O  O193  1  -0.00473506  0.86181596  0.75467686  1
  O  O194  1  0.50994913  0.37402475  0.25656555  1
  O  O195  1  0.49585736  0.36652290  0.76355786  1
  O  O196  1  0.50797414  0.88345151  0.25506208  1
  O  O197  1  0.50534618  0.86456448  0.75165746  1
  O  O198  1  0.49231710  0.13023488  0.23432143  1
  O  O199  1  0.51184628  0.12991722  0.76412657  1
  O  O200  1  0.50738612  0.62691699  0.23921613  1
  O  O201  1  0.49453038  0.63728045  0.75230372  1
  O  O202  1  0.99252163  0.13090767  0.24190346  1
  O  O203  1  1.00220694  0.12885502  0.73552337  1
  O  O204  1  1.06572309  0.64943360  0.23541368  1
  O  O205  1  0.98948324  0.63750299  0.74440978  1
  O  O206  1  0.36737655  0.25756211  0.00509022  1
  O  O207  1  0.37938230  0.24997287  0.51637359  1
  O  O208  1  0.36400075  0.75768032  0.00485608  1
  O  O209  1  0.39225272  0.76852867  0.50319584  1
  O  O210  1  0.86192990  0.25297035  0.00689654  1
  O  O211  1  0.88097798  0.26301230  0.50499447  1
  O  O212  1  0.87847539  0.76714154  -0.01148511  1
  O  O213  1  0.85261438  0.73791281  0.51521711  1
  O  O214  1  0.12707107  0.24004618  0.49309279  1
  O  O215  1  0.13862295  0.25736776  1.00337732  1
  O  O216  1  0.12884562  0.75575762  0.47646150  1
  O  O217  1  0.13576749  0.75243407  1.01731430  1
  O  O218  1  0.62069877  0.24404670  0.49299245  1
  O  O219  1  0.63837509  0.25163958  0.99264559  1
  O  O220  1  0.62406928  0.73568956  0.49230757  1
  O  O221  1  0.61816205  0.73862575  0.98305214  1
  O  O222  1  0.48706444  0.25096791  0.12509834  1
  O  O223  1  0.49039457  0.24911748  0.63588375  1
  O  O224  1  0.48384993  0.73829605  0.11944952  1
  O  O225  1  0.50262818  0.75389206  0.63619252  1
  O  O226  1  0.99455461  0.24487718  0.12841603  1
  O  O227  1  0.99405770  0.24367928  0.62443540  1
  O  O228  1  0.96915313  0.75851808  0.12766949  1
  O  O229  1  0.99050141  0.74389175  0.63601951  1
  O  O230  1  0.01302931  0.24999023  0.36812042  1
  O  O231  1  -0.00987373  0.26527028  0.87884435  1
  O  O232  1  0.03769697  0.75076172  0.35509875  1
  O  O233  1  -0.00061943  0.75552336  0.85782082  1
  O  O234  1  0.51316212  0.25946760  0.37275851  1
  O  O235  1  0.50670195  0.25404866  0.87029296  1
  O  O236  1  0.50821648  0.77036770  0.37428742  1
  O  O237  1  0.50890679  0.75134909  0.86517316  1
  O  O238  1  0.23138316  0.12184870  0.51478458  1
  O  O239  1  0.25214033  0.13178733  0.98657590  1
  O  O240  1  0.26185675  0.66183532  0.54174637  1
  O  O241  1  0.25246713  0.63696362  1.00179639  1
  O  O242  1  0.73834830  0.12212555  0.48769213  1
  O  O243  1  0.75023895  0.13333954  0.99333500  1
  O  O244  1  0.73996543  0.63125168  0.49064722  1
  O  O245  1  0.74406120  0.62118610  0.98845130  1
  O  O246  1  0.25886225  0.36523694  0.00459613  1
  O  O247  1  0.24441326  0.35747308  0.52103926  1
  O  O248  1  0.25743320  0.86234807  0.00966135  1
  O  O249  1  0.23330194  0.86384700  0.51341483  1
  O  O250  1  0.75194163  0.37073852  0.00899573  1
  O  O251  1  0.76284872  0.38261941  0.50927269  1
  O  O252  1  0.76475379  0.88026945  -0.00754079  1
  O  O253  1  0.73556637  0.86057531  0.50177408  1
  O  O254  1  0.12973411  0.48808830  0.23190012  1
  O  O255  1  0.13993825  0.50562756  0.74711603  1
  O  O256  1  0.11961649  1.00640491  0.23881103  1
  O  O257  1  0.12644824  0.99375731  0.74223859  1
  O  O258  1  0.63993596  0.48765033  0.25716322  1
  O  O259  1  0.63349309  0.51011606  0.73392023  1
  O  O260  1  0.64015233  1.00678807  0.25571697  1
  O  O261  1  0.63209810  0.99642668  0.75007326  1
  O  O262  1  0.37970054  0.01108862  0.25666986  1
  O  O263  1  0.35207460  -0.00683119  0.76535356  1
  O  O264  1  0.35825195  0.49064489  0.26078179  1
  O  O265  1  0.38158985  0.51311453  0.76132400  1
  O  O266  1  0.87036056  0.01343930  0.25473385  1
  O  O267  1  0.86690270  -0.00505990  0.75924080  1
  O  O268  1  0.86715913  0.49387733  0.26521765  1
  O  O269  1  0.87038650  0.51016712  0.75617975  1
  O  O270  1  0.12643019  0.36570699  0.36154304  1
  O  O271  1  0.12010721  0.37365653  0.85988960  1
  O  O272  1  0.13159205  0.86447335  0.37865087  1
  O  O273  1  0.11095594  0.88079120  0.87967921  1
  O  O274  1  0.61914657  0.37188137  0.37225643  1
  O  O275  1  0.61593258  0.36729230  0.88297966  1
  O  O276  1  0.61857780  0.86986132  0.37488659  1
  O  O277  1  0.62550455  0.86353360  0.86185534  1
  O  O278  1  0.38219206  0.12761930  0.13014603  1
  O  O279  1  0.37367234  0.12861691  0.62355358  1
  O  O280  1  0.38434839  0.63609652  0.12405538  1
  O  O281  1  0.38553241  0.61070121  0.64104973  1
  O  O282  1  0.88239968  0.13041543  0.13367134  1
  O  O283  1  0.88695473  0.13759733  0.61851523  1
  O  O284  1  0.88505789  0.61495792  0.14269263  1
  O  O285  1  0.87887007  0.62907533  0.63371513  1
  O  O286  1  0.25911636  0.25236782  0.11657663  1
  O  O287  1  0.26819174  0.25047807  0.63213149  1
  O  O288  1  0.26096534  0.74556755  0.12331133  1
  O  O289  1  0.26676146  0.72277270  0.60035374  1
  O  O290  1  0.75291202  0.25755951  0.12046835  1
  O  O291  1  0.75834876  0.26503640  0.63056947  1
  O  O292  1  0.79100829  0.75160154  0.14006504  1
  O  O293  1  0.75092440  0.75146239  0.62223773  1
  O  O294  1  0.23889519  0.25110312  0.37695007  1
  O  O295  1  0.25495970  0.23484790  0.87933648  1
  O  O296  1  0.24628404  0.76547948  0.38213515  1
  O  O297  1  0.24151534  0.75175462  0.89065452  1
  O  O298  1  0.74159803  0.24388255  0.37054694  1
  O  O299  1  0.74825739  0.25018929  0.88058757  1
  O  O300  1  0.74433688  0.74500082  0.38470855  1
  O  O301  1  0.73903438  0.73768109  0.86231729  1
  O  O302  1  -0.00894685  0.11709316  0.00997213  1
  O  O303  1  0.01430756  0.12726003  0.51499836  1
  O  O304  1  0.00275767  0.60964159  -0.01220520  1
  O  O305  1  -0.00629062  0.62679569  0.51531658  1
  O  O306  1  0.49922335  0.13248479  0.01596647  1
  O  O307  1  0.51708307  0.11417247  0.49123829  1
  O  O308  1  0.50653782  0.62173067  0.00814857  1
  O  O309  1  0.51103946  0.62592563  0.49498857  1
  O  O310  1  0.50000894  0.37524972  0.48771701  1
  O  O311  1  0.49021196  0.37370416  0.99304920  1
  O  O312  1  0.50684576  0.88990415  0.49365552  1
  O  O313  1  0.48089499  0.86874486  0.99735115  1
  O  O314  1  0.99358144  0.38230494  0.49845748  1
  O  O315  1  0.99615812  0.38547618  0.98869626  1
  O  O316  1  0.97523980  0.80924939  0.47044136  1
  O  O317  1  0.98953263  0.88396022  0.98952902  1
  O  O318  1  0.49735579  0.48601099  0.36885751  1
  O  O319  1  0.49467310  0.49044884  0.87841829  1
  O  O320  1  0.50710020  0.99216998  0.37934272  1
  O  O321  1  0.47456343  0.99114553  0.85925934  1
  O  O322  1  0.99710931  0.50538096  0.37257806  1
  O  O323  1  0.99193898  0.49189297  0.87822276  1
  O  O324  1  0.97967102  1.00627909  0.37802435  1
  O  O325  1  0.99445079  0.99658607  0.87659152  1
  O  O326  1  0.00580630  0.00793798  0.11747325  1
  O  O327  1  0.00656646  0.01375891  0.63117018  1
  O  O328  1  0.01342223  0.49133629  0.11519948  1
  O  O329  1  0.01113522  0.50935706  0.62961623  1
  O  O330  1  0.49901777  0.01108028  0.12182942  1
  O  O331  1  0.51485017  0.00230663  0.62218303  1
  O  O332  1  0.49052683  0.51896143  0.12472950  1
  O  O333  1  0.51389675  0.49015123  0.62911953  1
  O  O334  1  0.24396014  0.37566933  0.23923488  1
  O  O335  1  0.23664977  0.36549096  0.74423980  1
  O  O336  1  0.24268162  0.88281137  0.24067854  1
  O  O337  1  0.24320577  0.88039293  0.75382913  1
  O  O338  1  0.74509983  0.38252206  0.24483548  1
  O  O339  1  0.75413264  0.38957808  0.74002785  1
  O  O340  1  0.75831070  0.89373396  0.24763835  1
  O  O341  1  0.74342645  0.88856931  0.75277339  1
  O  O342  1  0.26615437  0.12523705  0.24414926  1
  O  O343  1  0.24413397  0.11406444  0.76677757  1
  O  O344  1  0.24729364  0.60552120  0.23215150  1
  O  O345  1  0.26619806  0.62996655  0.75215353  1
  O  O346  1  0.75747164  0.12101908  0.25763088  1
  O  O347  1  0.74625193  0.11705460  0.75995184  1
  O  O348  1  0.74399745  0.61371528  0.26615427  1
  O  O349  1  0.75504033  0.61640339  0.75577571  1
  O  O350  1  0.38456427  0.11928715  0.35843606  1
  O  O351  1  0.36778554  0.10922288  0.88184600  1
  O  O352  1  0.36987099  0.63686013  0.36957723  1
  O  O353  1  0.38306742  0.61292578  0.87295910  1
  O  O354  1  0.86820103  0.12669830  0.37009037  1
  O  O355  1  0.86584922  0.11900633  0.87686254  1
  O  O356  1  0.86853002  0.61921438  0.38828487  1
  O  O357  1  0.86848647  0.61976265  0.86741965  1
  O  O358  1  0.13522060  0.37053289  0.13278968  1
  O  O359  1  0.12842196  0.38131794  0.64007248  1
  O  O360  1  0.11599147  0.89095736  0.12423993  1
  O  O361  1  0.10311015  0.88794034  0.61560647  1
  O  O362  1  0.63547554  0.36964231  0.13440974  1
  O  O363  1  0.63563275  0.38916654  0.61365922  1
  O  O364  1  0.64492190  0.83309121  0.12620078  1
  O  O365  1  0.63193449  0.89056492  0.64040308  1
  O  O366  1  0.12288844  0.25223122  0.25558388  1
  O  O367  1  0.12246651  0.25417386  0.74374776  1
  O  O368  1  0.15616179  0.76743627  0.26808221  1
  O  O369  1  0.11401390  0.75088665  0.74003670  1
  O  O370  1  0.62633114  0.26272571  0.26144856  1
  O  O371  1  0.61875718  0.25300102  0.76001023  1
  O  O372  1  0.63371279  0.73925244  0.26772115  1
  O  O373  1  0.61427342  0.75355675  0.75222751  1
  O  O374  1  0.37524246  0.23967264  0.23913133  1
  O  O375  1  0.38612122  0.24498388  0.73998717  1
  O  O376  1  0.37454648  0.75895783  0.23765821  1
  O  O377  1  0.38588598  0.73908510  0.75277454  1
  O  O378  1  0.87976461  0.24218796  0.24749761  1
  O  O379  1  0.87597765  0.25517831  0.73948751  1
  O  O380  1  0.88548888  0.73131433  0.27076875  1
  O  O381  1  0.87218042  0.74056819  0.74347907  1
  O  O382  1  0.33546525  0.48773050  0.47751350  1
  O  O383  1  0.37281619  0.48769433  0.99414502  1
  O  O384  1  0.39106630  1.01799082  0.47978974  1
  O  O385  1  0.36181298  0.98420794  0.98731805  1
  O  O386  1  0.87991516  0.49316750  0.49054750  1
  O  O387  1  0.88152606  0.50198739  0.98895047  1
  O  O388  1  0.86463831  0.99998336  0.49229950  1
  O  O389  1  0.88376411  0.99699797  0.98501498  1
  O  O390  1  0.11063672  -0.00199101  0.00253057  1
  O  O391  1  0.12425608  0.00922594  0.51407363  1
  O  O392  1  0.11981422  0.48488302  0.00890991  1
  O  O393  1  0.12868847  0.49518225  0.51551085  1
  O  O394  1  0.60576348  0.00937531  -0.04977361  1
  O  O395  1  0.62345800  0.00736405  0.51063101  1
  O  O396  1  0.62399693  0.51410287  -0.00130689  1
  O  O397  1  0.62670628  0.50975567  0.50832315  1
  O  O398  1  0.36773319  0.36846537  0.11861689  1
  O  O399  1  0.36557501  0.37298931  0.62648050  1
  O  O400  1  0.37431606  0.86418482  0.11452839  1
  O  O401  1  0.36346532  0.92854122  0.61313433  1
  O  O402  1  0.86476791  0.36952973  0.12718211  1
  O  O403  1  0.87171697  0.37100706  0.61922454  1
  O  O404  1  0.87242823  0.89158057  0.10228828  1
  O  O405  1  0.87252263  0.86168697  0.62949687  1
  O  O406  1  0.12005491  0.12732089  0.39005254  1
  O  O407  1  0.13121615  0.12437004  0.87863367  1
  O  O408  1  0.14696876  0.65427303  0.37283904  1
  O  O409  1  0.14086879  0.61307759  0.86091352  1
  O  O410  1  0.63221482  0.13556129  0.37951206  1
  O  O411  1  0.64117325  0.14477342  0.87863117  1
  O  O412  1  0.63167532  0.62782966  0.38539413  1
  O  O413  1  0.63125708  0.62807035  0.87880318  1
