# generated using pymatgen
data_V79Zn79O256
_symmetry_space_group_name_H-M   'P 1'
_cell_length_a   16.87483421
_cell_length_b   16.87861589
_cell_length_c   16.89351418
_cell_angle_alpha   89.85968419
_cell_angle_beta   90.09676300
_cell_angle_gamma   89.93526042
_symmetry_Int_Tables_number   1
_chemical_formula_structural   V79Zn79O256
_chemical_formula_sum   'V79 Zn79 O256'
_cell_volume   4811.65127722
_cell_formula_units_Z   1
loop_
 _symmetry_equiv_pos_site_id
 _symmetry_equiv_pos_as_xyz
  1  'x, y, z'
loop_
 _atom_site_type_symbol
 _atom_site_label
 _atom_site_symmetry_multiplicity
 _atom_site_fract_x
 _atom_site_fract_y
 _atom_site_fract_z
 _atom_site_occupancy
  V  V0  1  0.74831265  0.73916752  0.50045355  1
  V  V1  1  0.37908014  0.24920902  0.62474570  1
  V  V2  1  0.62114214  0.25785440  0.37589965  1
  V  V3  1  0.24886532  0.00054302  0.25062977  1
  V  V4  1  0.00167230  0.63449209  0.14804815  1
  V  V5  1  0.37450485  0.62215554  0.75061038  1
  V  V6  1  0.01386350  0.74231360  0.75941194  1
  V  V7  1  0.12429883  0.37479429  0.75798503  1
  V  V8  1  0.24919600  0.74871665  0.49672242  1
  V  V9  1  0.01015607  0.36760578  0.36891414  1
  V  V10  1  0.87111130  0.25211597  0.62235878  1
  V  V11  1  0.74948119  0.38296783  0.61881681  1
  V  V12  1  0.75411714  0.26933209  0.00078593  1
  V  V13  1  0.86995179  0.51831748  0.87744680  1
  V  V14  1  0.00207606  0.50828171  0.00709775  1
  V  V15  1  0.86134270  -0.00222679  0.36828529  1
  V  V16  1  0.37482140  0.12733210  0.24867117  1
  V  V17  1  0.62012418  0.88604751  0.24602883  1
  V  V18  1  0.23735013  0.62696765  0.87363266  1
  V  V19  1  0.87879616  0.12073731  0.75803596  1
  V  V20  1  0.24569470  0.74662842  -0.00180447  1
  V  V21  1  0.63475357  0.12427121  0.49981003  1
  V  V22  1  0.75176901  0.11580356  0.87904025  1
  V  V23  1  0.62460559  0.74388047  0.37556378  1
  V  V24  1  0.25249150  0.87348308  0.12700664  1
  V  V25  1  0.74586331  0.89229908  0.12456954  1
  V  V26  1  -0.00233197  0.47884122  0.50723433  1
  V  V27  1  0.24876729  0.49806306  0.23902785  1
  V  V28  1  0.37861592  -0.00292108  0.37593240  1
  V  V29  1  0.11849539  0.86888799  0.24834745  1
  V  V30  1  0.24612021  0.24842738  0.49329313  1
  V  V31  1  0.11975322  0.74488912  0.37105333  1
  V  V32  1  0.38130328  0.87997629  -0.00252771  1
  V  V33  1  0.24196352  0.87609534  0.62760750  1
  V  V34  1  0.63011048  0.74149987  0.88248530  1
  V  V35  1  0.49797846  0.26204516  0.25273704  1
  V  V36  1  -0.01217519  0.37584591  0.88295862  1
  V  V37  1  0.50509462  0.12171650  0.12590202  1
  V  V38  1  0.76175062  0.62375851  0.36014571  1
  V  V39  1  0.50427980  -0.00083783  0.50015472  1
  V  V40  1  0.50402449  0.25355625  0.75096940  1
  V  V41  1  0.00672950  0.24629582  0.25208984  1
  V  V42  1  0.62657069  0.38342750  0.74757126  1
  V  V43  1  0.37362979  0.37383822  0.00633682  1
  V  V44  1  0.24304379  0.37706687  0.62561279  1
  V  V45  1  -0.00254694  0.25654184  0.75248614  1
  V  V46  1  0.87156621  0.26592032  0.12400473  1
  V  V47  1  0.07383960  0.92066799  0.80691602  1
  V  V48  1  0.64175189  0.38217307  0.23857593  1
  V  V49  1  0.63293974  0.88177041  0.74636968  1
  V  V50  1  0.26268601  -0.00838839  0.75216034  1
  V  V51  1  -0.00014143  0.11912523  0.10973739  1
  V  V52  1  0.22803598  0.37348985  0.12419978  1
  V  V53  1  0.87074521  0.48785968  0.36588910  1
  V  V54  1  0.23777070  0.12797161  0.37633580  1
  V  V55  1  0.00447351  0.62115616  0.62074195  1
  V  V56  1  0.37670396  0.74860447  0.62310687  1
  V  V57  1  0.87528418  0.74368249  0.63249357  1
  V  V58  1  0.75111215  0.73825391  0.00300160  1
  V  V59  1  0.38124890  0.38214499  0.48742663  1
  V  V60  1  0.50690583  0.51420376  0.01609660  1
  V  V61  1  0.00103566  0.87950073  0.37585016  1
  V  V62  1  0.12085589  0.00148307  0.11479891  1
  V  V63  1  0.87876427  0.87338145  0.49843783  1
  V  V64  1  0.37977779  0.73406314  0.13012682  1
  V  V65  1  0.51511627  0.61522911  0.62391827  1
  V  V66  1  0.26315382  0.61493328  0.37050311  1
  V  V67  1  0.62755704  0.11985519  0.00628436  1
  V  V68  1  0.38242926  0.12042576  0.76053565  1
  V  V69  1  0.50862763  0.50169639  0.49002842  1
  V  V70  1  0.38105758  0.87542416  0.49461735  1
  V  V71  1  0.49978471  0.37985748  0.87799852  1
  V  V72  1  0.75492971  0.51349372  0.75081346  1
  V  V73  1  0.50720509  0.12204513  0.62458010  1
  V  V74  1  0.24380830  0.50080729  0.74473592  1
  V  V75  1  0.23334602  0.12749889  0.87168121  1
  V  V76  1  0.50327830  0.75064994  0.75216838  1
  V  V77  1  0.50025834  0.73389151  0.25045656  1
  V  V78  1  0.88198157  0.88796303  -0.01067184  1
  Zn  Zn79  1  0.23535867  0.24397106  -0.00706681  1
  Zn  Zn80  1  0.74602625  0.88628283  0.61347761  1
  Zn  Zn81  1  0.87621136  0.74978094  0.13890765  1
  Zn  Zn82  1  0.49785344  0.88672284  0.86719035  1
  Zn  Zn83  1  0.74566192  0.00881076  0.73665763  1
  Zn  Zn84  1  0.49876242  0.00505411  -0.00244975  1
  Zn  Zn85  1  0.12653413  0.62220656  0.00874382  1
  Zn  Zn86  1  0.74501701  0.12417554  0.36171633  1
  Zn  Zn87  1  0.37259430  0.50109296  0.87830084  1
  Zn  Zn88  1  0.62913250  0.25477218  0.87852441  1
  Zn  Zn89  1  0.04821445  0.06064272  0.55584264  1
  Zn  Zn90  1  0.86604536  0.11717064  0.24067357  1
  Zn  Zn91  1  0.12813899  0.60952947  0.50002515  1
  Zn  Zn92  1  0.75371528  0.25706801  0.49391756  1
  Zn  Zn93  1  0.36987524  0.25093243  0.12348034  1
  Zn  Zn94  1  0.18482565  0.18773220  0.18345449  1
  Zn  Zn95  1  0.19207729  0.19491613  0.69106621  1
  Zn  Zn96  1  0.18548642  0.68071436  0.18731124  1
  Zn  Zn97  1  0.18454961  0.68769700  0.68274360  1
  Zn  Zn98  1  0.68830015  0.19282700  0.18880532  1
  Zn  Zn99  1  0.68903104  0.19261407  0.68859447  1
  Zn  Zn100  1  0.69234905  0.69080312  0.18930041  1
  Zn  Zn101  1  0.68851740  0.69438580  0.68698792  1
  Zn  Zn102  1  0.31030955  0.31786764  0.30794159  1
  Zn  Zn103  1  0.31582163  0.31047386  0.81458680  1
  Zn  Zn104  1  0.31273922  0.80801859  0.31162204  1
  Zn  Zn105  1  0.31376363  0.80766875  0.81512479  1
  Zn  Zn106  1  0.81201318  0.30759990  0.30961870  1
  Zn  Zn107  1  0.81017986  0.31735338  0.81384710  1
  Zn  Zn108  1  0.80796447  0.81461220  0.30803036  1
  Zn  Zn109  1  0.81490471  0.80965690  0.81502964  1
  Zn  Zn110  1  0.18476922  0.43238881  0.43781798  1
  Zn  Zn111  1  0.18475384  0.43824099  0.93659113  1
  Zn  Zn112  1  0.18616111  0.93730030  0.43758219  1
  Zn  Zn113  1  0.19826177  0.94211436  0.93652294  1
  Zn  Zn114  1  0.68494553  0.44213786  0.43091706  1
  Zn  Zn115  1  0.68410167  0.44876685  0.93670576  1
  Zn  Zn116  1  0.68434974  0.92859287  0.43425428  1
  Zn  Zn117  1  0.68571020  0.93138095  0.93592572  1
  Zn  Zn118  1  0.30802236  0.06413134  0.05910486  1
  Zn  Zn119  1  0.20886184  0.06439930  0.57146574  1
  Zn  Zn120  1  0.31435798  0.55608838  0.05940250  1
  Zn  Zn121  1  0.31612383  0.56227214  0.56117476  1
  Zn  Zn122  1  0.81624001  0.06518588  0.06087877  1
  Zn  Zn123  1  0.85872285  0.04288996  0.58499587  1
  Zn  Zn124  1  0.82396813  0.56697425  0.06341458  1
  Zn  Zn125  1  0.82083965  0.55930010  0.55597530  1
  Zn  Zn126  1  0.43082217  0.44862327  0.19196539  1
  Zn  Zn127  1  0.43397591  0.43809591  0.68473283  1
  Zn  Zn128  1  0.44121204  0.93517899  0.18732485  1
  Zn  Zn129  1  0.43611059  0.93702097  0.68078706  1
  Zn  Zn130  1  0.94156628  0.44046833  0.18997968  1
  Zn  Zn131  1  0.93134024  0.43712741  0.69103494  1
  Zn  Zn132  1  0.93304071  0.93110686  0.18266781  1
  Zn  Zn133  1  0.94362811  0.93006196  0.68396493  1
  Zn  Zn134  1  0.05698923  0.05905767  0.30552556  1
  Zn  Zn135  1  0.08146207  0.07804535  0.74726348  1
  Zn  Zn136  1  0.07088996  0.55264209  0.31840855  1
  Zn  Zn137  1  0.05741174  0.56103630  0.80931296  1
  Zn  Zn138  1  0.56209878  0.06852307  0.31531850  1
  Zn  Zn139  1  0.56389413  0.06341617  0.82057056  1
  Zn  Zn140  1  0.56612003  0.56154790  0.31286261  1
  Zn  Zn141  1  0.56506158  0.56088304  0.81644311  1
  Zn  Zn142  1  0.43637591  0.18692274  0.43699243  1
  Zn  Zn143  1  0.43755934  0.19498949  0.94162217  1
  Zn  Zn144  1  0.44250444  0.68372693  0.43692398  1
  Zn  Zn145  1  0.43478137  0.69154547  0.93717479  1
  Zn  Zn146  1  0.93648110  0.17595361  0.43637160  1
  Zn  Zn147  1  0.93698663  0.19006111  0.93777527  1
  Zn  Zn148  1  0.93842521  0.68327188  0.43709349  1
  Zn  Zn149  1  0.93365037  0.69390118  0.94283912  1
  Zn  Zn150  1  0.05824362  0.30709975  0.05692812  1
  Zn  Zn151  1  0.04317987  0.26284335  0.54363023  1
  Zn  Zn152  1  0.06043625  0.81086456  0.06016559  1
  Zn  Zn153  1  0.06096293  0.80842160  0.56179586  1
  Zn  Zn154  1  0.56271320  0.31069180  0.06611348  1
  Zn  Zn155  1  0.56565523  0.31630970  0.56113351  1
  Zn  Zn156  1  0.56428819  0.80875427  0.06858732  1
  Zn  Zn157  1  0.56381551  0.80958225  0.56304490  1
  O  O158  1  0.11025497  0.11569226  0.13162948  1
  O  O159  1  0.12782247  0.11377059  0.64486208  1
  O  O160  1  0.10968491  0.62310941  0.12456484  1
  O  O161  1  0.11268507  0.62590954  0.61742339  1
  O  O162  1  0.61575823  0.13351525  0.11890755  1
  O  O163  1  0.61420574  0.13419225  0.61809028  1
  O  O164  1  0.66711691  0.58005851  0.13140932  1
  O  O165  1  0.61344575  0.62779231  0.62799990  1
  O  O166  1  0.37267240  0.37367400  0.38918174  1
  O  O167  1  0.38231849  0.37622481  0.88360306  1
  O  O168  1  0.36734887  0.88387258  0.38228578  1
  O  O169  1  0.37903419  0.86304380  0.89445766  1
  O  O170  1  0.87523866  0.38342028  0.37520015  1
  O  O171  1  0.88505906  0.38696911  0.87189487  1
  O  O172  1  0.88122766  0.87888012  0.37827998  1
  O  O173  1  0.86859651  0.87435971  0.88917744  1
  O  O174  1  0.25920261  0.00797873  0.37013727  1
  O  O175  1  0.25514701  0.00946475  0.86166822  1
  O  O176  1  0.25076578  0.51427243  0.38662747  1
  O  O177  1  0.25225435  0.50854310  0.86437071  1
  O  O178  1  0.75911148  -0.00527695  0.37290145  1
  O  O179  1  0.74554918  0.01487085  0.87203450  1
  O  O180  1  0.76117661  0.51165829  0.38147288  1
  O  O181  1  0.76107607  0.49914405  0.86605143  1
  O  O182  1  0.24647844  0.49216355  0.13135612  1
  O  O183  1  0.25752904  0.49164298  0.63508912  1
  O  O184  1  0.24374174  0.99265085  0.13069817  1
  O  O185  1  0.26060615  0.98759187  0.63913797  1
  O  O186  1  0.72484222  0.53056504  0.12690201  1
  O  O187  1  0.76262741  0.49082803  0.63644054  1
  O  O188  1  0.74996292  0.99135027  0.12395904  1
  O  O189  1  0.76209646  0.99794394  0.62538825  1
  O  O190  1  -0.00281415  0.36366571  0.25961839  1
  O  O191  1  0.00442009  0.37626022  0.75990706  1
  O  O192  1  0.01271390  0.87527245  0.25480015  1
  O  O193  1  0.00508476  0.85785841  0.74788311  1
  O  O194  1  0.49288948  0.36275519  0.24607910  1
  O  O195  1  0.50595200  0.37491118  0.75537354  1
  O  O196  1  0.51457011  0.86266235  0.23985199  1
  O  O197  1  0.50582282  0.86345667  0.74459410  1
  O  O198  1  0.49197554  0.13136306  0.24414927  1
  O  O199  1  0.50223384  0.13183312  0.74368872  1
  O  O200  1  0.50315055  0.63455750  0.24674140  1
  O  O201  1  0.49537890  0.62885114  0.74246859  1
  O  O202  1  0.99033825  0.13646834  0.24810570  1
  O  O203  1  0.98452316  0.14227578  0.76151495  1
  O  O204  1  1.00722835  0.61647278  0.24655020  1
  O  O205  1  1.00262888  0.63212532  0.73609761  1
  O  O206  1  0.36293561  0.26131442  0.00041894  1
  O  O207  1  0.37425707  0.26157075  0.50679552  1
  O  O208  1  0.36923466  0.75543614  0.01536015  1
  O  O209  1  0.37007263  0.75590347  0.50007555  1
  O  O210  1  0.86530960  0.25044266  0.01053311  1
  O  O211  1  0.87113432  0.24176820  0.51935877  1
  O  O212  1  0.85875265  0.75924208  0.00171166  1
  O  O213  1  0.86838810  0.75415070  0.50370608  1
  O  O214  1  0.14961119  0.26503219  0.50413986  1
  O  O215  1  0.12418483  0.25452435  0.98796440  1
  O  O216  1  0.13875029  0.75246740  0.48951508  1
  O  O217  1  0.14316499  0.74800153  1.00834265  1
  O  O218  1  0.62424409  0.24356124  0.49241371  1
  O  O219  1  0.64120266  0.24397483  1.00345068  1
  O  O220  1  0.63384201  0.75788931  0.48745126  1
  O  O221  1  0.63108955  0.75459483  0.98983153  1
  O  O222  1  0.49335143  0.23961297  0.13484037  1
  O  O223  1  0.49688971  0.24796704  0.63044024  1
  O  O224  1  0.48822782  0.74495761  0.13232909  1
  O  O225  1  0.49698591  0.73732406  0.63184575  1
  O  O226  1  0.99126361  0.24211033  0.13099693  1
  O  O227  1  0.97980595  0.26566079  0.63993573  1
  O  O228  1  1.00216831  0.73842101  0.12965152  1
  O  O229  1  0.99361903  0.74089314  0.62970616  1
  O  O230  1  -0.01529477  0.25812063  0.36169336  1
  O  O231  1  -0.01039295  0.26852571  0.86902251  1
  O  O232  1  0.01402037  0.75538764  0.37934991  1
  O  O233  1  -0.00450316  0.73790277  0.85731127  1
  O  O234  1  0.50861727  0.24267994  0.36484820  1
  O  O235  1  0.50288904  0.26364233  0.86913860  1
  O  O236  1  0.50814446  0.74276125  0.36184749  1
  O  O237  1  0.50721566  0.75272374  0.86542288  1
  O  O238  1  0.25561279  0.14158640  0.49370019  1
  O  O239  1  0.25225405  0.12125334  0.97765153  1
  O  O240  1  0.25116033  0.63352343  0.49394746  1
  O  O241  1  0.25028205  0.62754869  0.99122321  1
  O  O242  1  0.73568126  0.12512984  0.50126186  1
  O  O243  1  0.74746505  0.13059808  0.99106869  1
  O  O244  1  0.75365879  0.63506939  0.49582979  1
  O  O245  1  0.75380875  0.63899209  1.00100927  1
  O  O246  1  0.25510865  0.38317747  0.01103961  1
  O  O247  1  0.26336161  0.37042820  0.50574952  1
  O  O248  1  0.26012611  0.86671198  0.00855310  1
  O  O249  1  0.26048182  0.86641382  0.50483904  1
  O  O250  1  0.74636113  0.36776119  -0.00357458  1
  O  O251  1  0.74244523  0.38024724  0.51608044  1
  O  O252  1  0.75099378  0.87128807  0.01131047  1
  O  O253  1  0.75905172  0.86040022  0.49565381  1
  O  O254  1  0.15005737  0.48868106  0.26863143  1
  O  O255  1  0.13549413  0.49249377  0.75011492  1
  O  O256  1  0.13030449  0.98811587  0.24180801  1
  O  O257  1  0.14433458  0.97655290  0.74940393  1
  O  O258  1  0.61828548  0.47873151  0.26067748  1
  O  O259  1  0.64016290  0.49367114  0.75775927  1
  O  O260  1  0.61659073  0.98466652  0.25859699  1
  O  O261  1  0.62410672  0.98514683  0.75348062  1
  O  O262  1  0.37126728  0.00580895  0.25605703  1
  O  O263  1  0.37628660  0.00924255  0.74720772  1
  O  O264  1  0.35028589  0.48871249  0.26035949  1
  O  O265  1  0.36547223  0.50795299  0.75118470  1
  O  O266  1  0.88028798  -0.00542178  0.26516101  1
  O  O267  1  0.87326343  0.02059395  0.75306047  1
  O  O268  1  0.87947649  0.49857781  0.26639821  1
  O  O269  1  0.86409460  0.50087047  0.76159650  1
  O  O270  1  0.10902853  0.36651435  0.37700184  1
  O  O271  1  0.11123821  0.38251371  0.86374412  1
  O  O272  1  0.12135138  0.86757808  0.36719621  1
  O  O273  1  0.12227941  0.87488060  0.88339059  1
  O  O274  1  0.62885398  0.36229059  0.36878983  1
  O  O275  1  0.61677371  0.37648666  0.86654189  1
  O  O276  1  0.63567261  0.85622156  0.35500597  1
  O  O277  1  0.61987101  0.86414696  0.86354733  1
  O  O278  1  0.37573102  0.12634525  0.13591510  1
  O  O279  1  0.39059644  0.13984377  0.63544794  1
  O  O280  1  0.36585503  0.63627434  0.12723885  1
  O  O281  1  0.37911194  0.62949268  0.63647300  1
  O  O282  1  0.88932485  0.12969610  0.12350198  1
  O  O283  1  0.86080105  0.14600933  0.64864711  1
  O  O284  1  0.89514675  0.62861339  0.12486840  1
  O  O285  1  0.88655965  0.63561995  0.61742988  1
  O  O286  1  0.24718082  0.26286163  0.12066899  1
  O  O287  1  0.26148936  0.25556901  0.61660040  1
  O  O288  1  0.26001068  0.75505884  0.12349202  1
  O  O289  1  0.25750564  0.75242545  0.61535069  1
  O  O290  1  0.76305202  0.24983045  0.11378340  1
  O  O291  1  0.75551537  0.26476603  0.62533035  1
  O  O292  1  0.74495920  0.75353614  0.11083671  1
  O  O293  1  0.75981826  0.75148663  0.61743951  1
  O  O294  1  0.25729405  0.24554289  0.38572734  1
  O  O295  1  0.25081893  0.23243594  0.86564224  1
  O  O296  1  0.24509938  0.74103884  0.37991287  1
  O  O297  1  0.25825805  0.73839885  0.88674042  1
  O  O298  1  0.74106290  0.24620535  0.37859829  1
  O  O299  1  0.75304679  0.24826573  0.88998516  1
  O  O300  1  0.74772044  0.73798694  0.38005114  1
  O  O301  1  0.73760205  0.75400769  0.88562040  1
  O  O302  1  0.00019431  0.12870599  0.01114915  1
  O  O303  1  0.01897830  0.15847035  0.50613188  1
  O  O304  1  0.00206603  0.61601554  -0.00241711  1
  O  O305  1  0.00297527  0.61374126  0.50598536  1
  O  O306  1  0.50958656  0.13294219  0.00858489  1
  O  O307  1  0.50593994  0.11909560  0.50669719  1
  O  O308  1  0.49083982  0.61273910  -0.00367569  1
  O  O309  1  0.49263149  0.61496521  0.51614026  1
  O  O310  1  0.49021394  0.38661886  0.50554026  1
  O  O311  1  0.49288213  0.37652803  0.99413651  1
  O  O312  1  0.49129391  0.88210848  0.50627302  1
  O  O313  1  0.48633211  0.87340091  1.01022146  1
  O  O314  1  0.99837975  0.37350049  0.49095951  1
  O  O315  1  0.99935839  0.38799567  0.98768183  1
  O  O316  1  0.99038490  0.86440134  0.48877252  1
  O  O317  1  0.98099854  0.86872796  1.00678932  1
  O  O318  1  0.49492471  0.51626248  0.39228419  1
  O  O319  1  0.49633238  0.48966572  0.87782188  1
  O  O320  1  0.48605457  1.00868304  0.38324867  1
  O  O321  1  0.50077045  0.99794906  0.88475975  1
  O  O322  1  0.99245684  0.48191491  0.37916248  1
  O  O323  1  0.98699660  0.49639846  0.87742263  1
  O  O324  1  0.99670868  0.98441006  0.37339231  1
  O  O325  1  1.01699840  0.99399511  0.83850430  1
  O  O326  1  0.00454396  0.01161620  0.13007645  1
  O  O327  1  -0.03223224  0.01796136  0.62127152  1
  O  O328  1  -0.00707686  0.50759952  0.11115975  1
  O  O329  1  -0.01098025  0.50033633  0.61267776  1
  O  O330  1  0.49234279  0.01694237  0.12047778  1
  O  O331  1  0.49511765  0.01149298  0.61266121  1
  O  O332  1  0.49520762  0.50290560  0.11603730  1
  O  O333  1  0.50050703  0.51166461  0.62505832  1
  O  O334  1  0.24954127  0.37726346  0.23070288  1
  O  O335  1  0.24552942  0.38079128  0.74746433  1
  O  O336  1  0.24483165  0.87876116  0.24250404  1
  O  O337  1  0.26921299  0.87909224  0.74012682  1
  O  O338  1  0.74196767  0.37459898  0.24709394  1
  O  O339  1  0.74261196  0.38420887  0.74408672  1
  O  O340  1  0.73580464  0.86894495  0.23328419  1
  O  O341  1  0.73827655  0.87523479  0.75249763  1
  O  O342  1  0.25708232  0.12277422  0.25414494  1
  O  O343  1  0.26435349  0.11645612  0.75519173  1
  O  O344  1  0.24827474  0.61262705  0.26058121  1
  O  O345  1  0.25450705  0.62068282  0.75261677  1
  O  O346  1  0.75356349  0.12550933  0.24841012  1
  O  O347  1  0.75385223  0.13168112  0.76593087  1
  O  O348  1  0.75654187  0.62736415  0.26125006  1
  O  O349  1  0.74605468  0.61189883  0.74362434  1
  O  O350  1  0.36705965  0.11819297  0.36564471  1
  O  O351  1  0.38218002  0.13146212  0.86152090  1
  O  O352  1  0.36158585  0.63087061  0.37575736  1
  O  O353  1  0.36854810  0.62602954  0.86077844  1
  O  O354  1  0.87131100  0.10481008  0.37766050  1
  O  O355  1  0.86190857  0.13288696  0.86916222  1
  O  O356  1  0.86622799  0.61597320  0.37698465  1
  O  O357  1  0.87403649  0.61699395  0.87370217  1
  O  O358  1  0.12944477  0.37649295  0.12090856  1
  O  O359  1  0.14163427  0.37174862  0.63597740  1
  O  O360  1  0.13360848  0.87719430  0.13077324  1
  O  O361  1  0.14243905  0.86468138  0.62116892  1
  O  O362  1  0.62374873  0.37139419  0.13930138  1
  O  O363  1  0.63690712  0.37407323  0.63578455  1
  O  O364  1  0.63333099  0.87563443  0.13234967  1
  O  O365  1  0.62847614  0.86506284  0.64131394  1
  O  O366  1  0.10584897  0.24605505  0.24625138  1
  O  O367  1  0.11016078  0.26271422  0.74466838  1
  O  O368  1  0.13688368  0.75957308  0.25917607  1
  O  O369  1  0.11479308  0.74653573  0.75195763  1
  O  O370  1  0.61661118  0.26059092  0.25626579  1
  O  O371  1  0.62019936  0.26349185  0.75332535  1
  O  O372  1  0.61274981  0.74923094  0.24996365  1
  O  O373  1  0.62038707  0.75663370  0.76003756  1
  O  O374  1  0.37948084  0.24053965  0.25198533  1
  O  O375  1  0.38483624  0.24551586  0.74298947  1
  O  O376  1  0.38730186  0.75442906  0.24041822  1
  O  O377  1  0.38514625  0.74189239  0.74534383  1
  O  O378  1  0.88017544  0.24860630  0.23359952  1
  O  O379  1  0.87974351  0.25022081  0.74833746  1
  O  O380  1  0.87912149  0.75440243  0.25103696  1
  O  O381  1  0.88005139  0.75398621  0.73629260  1
  O  O382  1  0.38280925  0.48635208  0.50704418  1
  O  O383  1  0.38564588  0.49007430  0.99726769  1
  O  O384  1  0.38392796  0.98980102  0.49049546  1
  O  O385  1  0.37161507  0.98210997  1.00654167  1
  O  O386  1  0.89134238  0.49942655  0.48561741  1
  O  O387  1  0.88335966  0.50384111  0.98640014  1
  O  O388  1  0.87310009  0.98176935  0.48368923  1
  O  O389  1  0.87283544  0.98853046  0.99968043  1
  O  O390  1  0.13197844  -0.00592086  0.01638447  1
  O  O391  1  0.13504879  0.00700638  0.50567112  1
  O  O392  1  0.10593841  0.50206101  -0.00745219  1
  O  O393  1  0.10366920  0.49387438  0.49358996  1
  O  O394  1  0.62785703  0.01699021  -0.00179968  1
  O  O395  1  0.61196695  0.00496240  0.48723700  1
  O  O396  1  0.60614237  0.49932333  -0.00252772  1
  O  O397  1  0.60850004  0.49420252  0.49873454  1
  O  O398  1  0.37054800  0.37469870  0.11434126  1
  O  O399  1  0.36774447  0.36412291  0.62369312  1
  O  O400  1  0.36522799  0.86792628  0.12190380  1
  O  O401  1  0.37017535  0.86647265  0.61249991  1
  O  O402  1  0.88281328  0.36451798  0.12383942  1
  O  O403  1  0.85894491  0.36533980  0.63297809  1
  O  O404  1  0.85873652  0.87112821  0.11817016  1
  O  O405  1  0.87713993  0.86046798  0.61327864  1
  O  O406  1  0.13942315  0.12023516  0.36350463  1
  O  O407  1  0.13669742  0.12044322  0.85237321  1
  O  O408  1  0.13508608  0.63275365  0.37897435  1
  O  O409  1  0.13567217  0.62109127  0.87442141  1
  O  O410  1  0.62591612  0.13496964  0.38341721  1
  O  O411  1  0.63788653  0.13391093  0.88375048  1
  O  O412  1  0.64087884  0.63501698  0.36922741  1
  O  O413  1  0.62217628  0.64220336  0.87148783  1
