# generated using pymatgen
data_V79Zn79O256
_symmetry_space_group_name_H-M   'P 1'
_cell_length_a   16.91005539
_cell_length_b   16.93055049
_cell_length_c   16.91433942
_cell_angle_alpha   89.97825625
_cell_angle_beta   89.89091758
_cell_angle_gamma   90.05767182
_symmetry_Int_Tables_number   1
_chemical_formula_structural   V79Zn79O256
_chemical_formula_sum   'V79 Zn79 O256'
_cell_volume   4842.50538027
_cell_formula_units_Z   1
loop_
 _symmetry_equiv_pos_site_id
 _symmetry_equiv_pos_as_xyz
  1  'x, y, z'
loop_
 _atom_site_type_symbol
 _atom_site_label
 _atom_site_symmetry_multiplicity
 _atom_site_fract_x
 _atom_site_fract_y
 _atom_site_fract_z
 _atom_site_occupancy
  V  V0  1  -0.00057363  0.75147732  0.75056894  1
  V  V1  1  0.85409376  0.88409398  0.00778698  1
  V  V2  1  0.74746387  0.49998529  0.26958171  1
  V  V3  1  0.49999803  0.00099858  0.00617047  1
  V  V4  1  0.24943898  0.75356144  0.00582345  1
  V  V5  1  0.72943743  0.73879528  -0.00353005  1
  V  V6  1  0.38268522  0.37217174  0.00894180  1
  V  V7  1  0.73860157  0.38247345  0.62794287  1
  V  V8  1  0.75661040  -0.00846283  0.73863709  1
  V  V9  1  0.47441563  0.12950174  0.12899780  1
  V  V10  1  0.87069354  0.74657416  0.11906255  1
  V  V11  1  0.61767657  0.62460291  0.49208724  1
  V  V12  1  0.37313044  0.00030614  0.86597959  1
  V  V13  1  0.13000430  0.12244407  -0.00076410  1
  V  V14  1  -0.00172088  0.12871797  0.12297975  1
  V  V15  1  0.12495619  0.24270587  0.38012761  1
  V  V16  1  0.86576169  0.38166272  0.48915512  1
  V  V17  1  0.25389272  0.49542851  0.24283688  1
  V  V18  1  0.61856961  0.13004352  0.01098184  1
  V  V19  1  0.25279477  0.61817126  0.37590949  1
  V  V20  1  0.00061215  0.88033060  0.38944594  1
  V  V21  1  0.74593691  0.23707029  0.49554482  1
  V  V22  1  0.00431389  -0.00245702  0.00188572  1
  V  V23  1  0.25687362  0.89790737  0.66863958  1
  V  V24  1  0.62960312  0.76381763  0.37387167  1
  V  V25  1  -0.00169211  0.25356071  0.75078319  1
  V  V26  1  0.13160826  -0.01706044  0.12591842  1
  V  V27  1  -0.00894474  0.50186710  0.48983083  1
  V  V28  1  0.37752650  0.48796267  0.87805809  1
  V  V29  1  -0.00040830  0.12724411  0.60719467  1
  V  V30  1  0.74909984  0.25167013  0.01309838  1
  V  V31  1  0.50345343  0.76391464  0.25627055  1
  V  V32  1  0.12685225  0.25010157  0.86907933  1
  V  V33  1  0.74702648  0.12559211  0.87999358  1
  V  V34  1  -0.00169146  0.61788987  0.12040111  1
  V  V35  1  0.38701914  0.27632760  0.62690156  1
  V  V36  1  0.87241271  0.62201236  0.27260523  1
  V  V37  1  0.13088233  0.49764750  0.12267038  1
  V  V38  1  0.00176384  0.87422083  0.87912721  1
  V  V39  1  0.86802958  0.25821117  0.62592294  1
  V  V40  1  0.37455540  0.75889312  0.12640187  1
  V  V41  1  0.48433557  -0.02515093  0.50222485  1
  V  V42  1  0.12680750  0.75234033  0.87028759  1
  V  V43  1  0.36027177  0.13551469  0.27065692  1
  V  V44  1  0.87896884  0.50379028  0.87774372  1
  V  V45  1  0.61847614  0.24586982  0.35217325  1
  V  V46  1  0.25939290  0.75436207  0.50408904  1
  V  V47  1  0.87758428  0.37260766  0.00395770  1
  V  V48  1  0.41150388  0.12914944  0.74504484  1
  V  V49  1  0.50406413  0.73055988  0.75491137  1
  V  V50  1  0.25400324  0.62383001  0.86821355  1
  V  V51  1  0.24954265  0.12285097  0.85522551  1
  V  V52  1  0.39005546  0.48707169  0.37752955  1
  V  V53  1  0.61309505  0.51274869  0.62015589  1
  V  V54  1  0.25500445  0.49582510  0.74459409  1
  V  V55  1  0.37125983  0.87709672  0.00116068  1
  V  V56  1  0.87245457  0.76984572  0.63168769  1
  V  V57  1  0.25216975  0.25468862  0.00883138  1
  V  V58  1  0.12465622  0.37283509  0.24691206  1
  V  V59  1  -0.01325035  0.24778323  0.24264936  1
  V  V60  1  0.24786357  -0.01178455  0.24941758  1
  V  V61  1  0.00038371  0.37984831  0.87886293  1
  V  V62  1  0.85353059  0.01216993  0.37324507  1
  V  V63  1  0.12639018  0.75087452  0.36997467  1
  V  V64  1  -0.00910323  0.62554661  0.62689119  1
  V  V65  1  0.87325020  0.13036252  0.75570447  1
  V  V66  1  0.12514602  0.49276108  0.62380048  1
  V  V67  1  0.37738643  0.72760284  0.63340290  1
  V  V68  1  0.00127776  0.75402581  0.24960244  1
  V  V69  1  0.62835426  0.51244223  0.11285253  1
  V  V70  1  0.72593079  0.61913339  0.87308978  1
  V  V71  1  0.75031779  0.75825523  0.50731792  1
  V  V72  1  0.61680398  0.26073599  0.86532082  1
  V  V73  1  0.59972966  0.12476414  0.50429856  1
  V  V74  1  0.75207253  0.38012653  0.12845494  1
  V  V75  1  0.36545554  -0.01806189  0.38001956  1
  V  V76  1  0.12432387  0.62488204  0.50020923  1
  V  V77  1  0.38069644  0.62517429  0.24798740  1
  V  V78  1  0.12473479  0.61973463  -0.00052903  1
  Zn  Zn79  1  0.25674081  0.26546683  0.51687848  1
  Zn  Zn80  1  0.50748346  0.86505544  0.87646922  1
  Zn  Zn81  1  0.41258868  0.29905557  0.17970186  1
  Zn  Zn82  1  0.14720839  0.10524008  0.48389102  1
  Zn  Zn83  1  0.74859527  0.49532702  0.75174982  1
  Zn  Zn84  1  0.51397695  0.62896658  0.11441142  1
  Zn  Zn85  1  0.13172027  0.36997332  0.74211530  1
  Zn  Zn86  1  0.87834840  0.00177739  0.87612587  1
  Zn  Zn87  1  0.87274265  0.88752828  0.50825745  1
  Zn  Zn88  1  -0.00891578  0.37712338  0.36804204  1
  Zn  Zn89  1  0.85310054  0.11874458  0.24075411  1
  Zn  Zn90  1  0.60790355  -0.00289625  0.62873447  1
  Zn  Zn91  1  0.62232153  0.86835655  0.75017703  1
  Zn  Zn92  1  0.87017665  0.62499880  0.75312368  1
  Zn  Zn93  1  0.72184534  -0.07509801  0.15503503  1
  Zn  Zn94  1  0.18583071  0.18375813  0.19188481  1
  Zn  Zn95  1  0.20755038  0.17156427  0.65192611  1
  Zn  Zn96  1  0.18984106  0.68479618  0.18639490  1
  Zn  Zn97  1  0.18381698  0.68555946  0.68532281  1
  Zn  Zn98  1  0.66866760  0.10788060  0.21455900  1
  Zn  Zn99  1  0.67599461  0.17840651  0.68602526  1
  Zn  Zn100  1  0.69309550  0.68802767  0.19318634  1
  Zn  Zn101  1  0.68783080  0.68585560  0.68709717  1
  Zn  Zn102  1  0.30136121  0.31680261  0.32402382  1
  Zn  Zn103  1  0.31828815  0.30730291  0.80237064  1
  Zn  Zn104  1  0.31068025  0.81003546  0.31214681  1
  Zn  Zn105  1  0.32557999  0.80665519  0.81468629  1
  Zn  Zn106  1  0.80059374  0.30733632  0.31037322  1
  Zn  Zn107  1  0.80413367  0.31457189  0.81761076  1
  Zn  Zn108  1  0.80593269  0.82210155  0.32097476  1
  Zn  Zn109  1  0.81069386  0.80846948  0.82464408  1
  Zn  Zn110  1  0.18556019  0.43245194  0.43340198  1
  Zn  Zn111  1  0.18983679  0.43709178  0.93426901  1
  Zn  Zn112  1  0.18341356  0.93437182  0.44268473  1
  Zn  Zn113  1  0.19122610  0.93622710  0.92698118  1
  Zn  Zn114  1  0.65475018  0.42170227  0.43769653  1
  Zn  Zn115  1  0.68576949  0.43737278  0.94078355  1
  Zn  Zn116  1  0.67991703  0.94252613  0.44004566  1
  Zn  Zn117  1  0.68683371  0.93906897  0.94657444  1
  Zn  Zn118  1  0.30538655  0.05910831  0.05913204  1
  Zn  Zn119  1  0.31629586  0.06765825  0.56793250  1
  Zn  Zn120  1  0.34265820  0.57461484  0.04769236  1
  Zn  Zn121  1  0.31822260  0.54882735  0.55861420  1
  Zn  Zn122  1  0.80314195  0.06262871  0.07295760  1
  Zn  Zn123  1  0.83210104  0.06074736  0.56426296  1
  Zn  Zn124  1  0.81094809  0.56033434  0.05698749  1
  Zn  Zn125  1  0.80446092  0.56839792  0.54982782  1
  Zn  Zn126  1  0.49435656  0.44808054  0.23928170  1
  Zn  Zn127  1  0.44886818  0.44106729  0.69573594  1
  Zn  Zn128  1  0.55150270  0.95153507  0.19523997  1
  Zn  Zn129  1  0.43514462  0.91956185  0.68519565  1
  Zn  Zn130  1  0.93484936  0.44196229  0.19033430  1
  Zn  Zn131  1  0.93424349  0.44052789  0.68720329  1
  Zn  Zn132  1  0.89577363  0.91988255  0.21012774  1
  Zn  Zn133  1  0.96353016  0.95012815  0.69478926  1
  Zn  Zn134  1  0.05946780  0.05988950  0.30574301  1
  Zn  Zn135  1  0.06927684  0.06000277  0.80261641  1
  Zn  Zn136  1  0.06293928  0.56474477  0.30775817  1
  Zn  Zn137  1  0.06574206  0.56274837  0.80971010  1
  Zn  Zn138  1  0.54355236  0.07460103  0.32982859  1
  Zn  Zn139  1  0.57840786  0.03609629  0.82953114  1
  Zn  Zn140  1  0.57089875  0.57826168  0.31005629  1
  Zn  Zn141  1  0.55394216  0.53519814  0.80435090  1
  Zn  Zn142  1  0.43686995  0.20886766  0.43910114  1
  Zn  Zn143  1  0.43680268  0.18925553  0.93242407  1
  Zn  Zn144  1  0.43940663  0.68679218  0.43637350  1
  Zn  Zn145  1  0.44838703  0.67588774  0.93610351  1
  Zn  Zn146  1  0.92931689  0.19194117  0.42478101  1
  Zn  Zn147  1  0.93786560  0.19065710  0.94205319  1
  Zn  Zn148  1  0.93890691  0.70043424  0.44735123  1
  Zn  Zn149  1  0.93595331  0.68783549  0.94105997  1
  Zn  Zn150  1  0.06595129  0.31283480  0.06077076  1
  Zn  Zn151  1  0.05226260  0.31612813  0.55792484  1
  Zn  Zn152  1  0.05875280  0.80668385  0.06213183  1
  Zn  Zn153  1  0.12769276  0.98410114  0.62403020  1
  Zn  Zn154  1  0.55397410  0.32814834  0.09690338  1
  Zn  Zn155  1  0.55407115  0.31885525  0.55893537  1
  Zn  Zn156  1  0.56113647  0.81767584  0.06867943  1
  Zn  Zn157  1  0.56322408  0.81192773  0.57239487  1
  O  O158  1  0.12338916  0.11942875  0.11025995  1
  O  O159  1  0.10013285  0.13028633  0.62798350  1
  O  O160  1  0.11898801  0.61862422  0.11879287  1
  O  O161  1  0.11318987  0.61729767  0.61699769  1
  O  O162  1  0.60582906  0.12715721  0.11296689  1
  O  O163  1  0.63189998  0.11098398  0.60626192  1
  O  O164  1  0.63212580  0.61858878  0.12475695  1
  O  O165  1  0.62986517  0.62095127  0.60858374  1
  O  O166  1  0.37692327  0.38806336  0.36684387  1
  O  O167  1  0.37089085  0.38306730  0.87733810  1
  O  O168  1  0.37271217  0.88369547  0.37509128  1
  O  O169  1  0.37844513  0.88301735  0.88716475  1
  O  O170  1  0.87018720  0.36793112  0.38617176  1
  O  O171  1  0.88112806  0.38114474  0.88120590  1
  O  O172  1  0.88933772  0.88493360  0.37524186  1
  O  O173  1  0.88336279  0.87707762  0.89286310  1
  O  O174  1  0.25305602  -0.00545668  0.36810639  1
  O  O175  1  0.26200428  0.01302419  0.88181499  1
  O  O176  1  0.25821722  0.50458168  0.36457949  1
  O  O177  1  0.24700760  0.50655353  0.86258583  1
  O  O178  1  0.75572647  -0.00791868  0.36727858  1
  O  O179  1  0.75544741  0.01676196  0.87368162  1
  O  O180  1  0.73927509  0.48703743  0.36666495  1
  O  O181  1  0.75755180  0.50871012  0.87538661  1
  O  O182  1  0.23981876  0.51166684  0.13565358  1
  O  O183  1  0.24084136  0.50930880  0.63686208  1
  O  O184  1  0.24444523  1.00030481  0.13642608  1
  O  O185  1  0.25467077  0.99898412  0.64241998  1
  O  O186  1  0.74618041  0.49869770  0.12999605  1
  O  O187  1  0.75423159  0.48780505  0.61969853  1
  O  O188  1  0.77046701  0.95320657  0.04880123  1
  O  O189  1  0.76998557  0.99824291  0.63904733  1
  O  O190  1  0.00311918  0.36665969  0.24628147  1
  O  O191  1  -0.00323154  0.36520504  0.75799207  1
  O  O192  1  -0.00936458  0.85496897  0.25268641  1
  O  O193  1  -0.01173585  0.85914290  0.76914234  1
  O  O194  1  0.51008597  0.34654093  0.20520962  1
  O  O195  1  0.51932140  0.42891430  0.77837916  1
  O  O196  1  0.49723522  0.86183154  0.24972767  1
  O  O197  1  0.49470970  0.85528019  0.75639604  1
  O  O198  1  0.47020526  0.12346017  0.23864455  1
  O  O199  1  0.50862444  0.11280039  0.75598061  1
  O  O200  1  0.49098162  0.63538656  0.24339302  1
  O  O201  1  0.50308025  0.63122952  0.75424525  1
  O  O202  1  1.00692517  0.13494222  0.23599964  1
  O  O203  1  0.98789971  0.14020086  0.75062503  1
  O  O204  1  0.98830924  0.62866721  0.24322332  1
  O  O205  1  0.99838862  0.63189828  0.74308465  1
  O  O206  1  0.35919817  0.25932893  -0.01277420  1
  O  O207  1  0.37685398  0.25559694  0.52124419  1
  O  O208  1  0.36656604  0.75723143  0.00617985  1
  O  O209  1  0.36463206  0.73969741  0.50638667  1
  O  O210  1  0.86491778  0.26236799  -0.00497531  1
  O  O211  1  0.86364292  0.26017050  0.50695420  1
  O  O212  1  0.87026988  0.75682616  0.00643608  1
  O  O213  1  0.86829910  0.75906874  0.51443268  1
  O  O214  1  0.11108781  0.25763261  0.48089342  1
  O  O215  1  0.13112162  0.24119193  0.98821087  1
  O  O216  1  0.14008920  0.73144751  0.48978757  1
  O  O217  1  0.13159549  0.74148495  0.99308508  1
  O  O218  1  0.63550445  0.23655287  0.50739018  1
  O  O219  1  0.63525157  0.24371667  0.99476467  1
  O  O220  1  0.62715126  0.74765246  0.49240174  1
  O  O221  1  0.63066184  0.74548577  1.00583517  1
  O  O222  1  0.48801750  0.22944084  0.11191575  1
  O  O223  1  0.49106010  0.26086694  0.62925160  1
  O  O224  1  0.49212124  0.74843794  0.13691417  1
  O  O225  1  0.48209496  0.74975847  0.63292233  1
  O  O226  1  1.01016637  0.24187535  0.13148771  1
  O  O227  1  0.98785904  0.25062085  0.63322973  1
  O  O228  1  0.99516008  0.73710584  0.13115944  1
  O  O229  1  0.98912999  0.74046777  0.63896012  1
  O  O230  1  0.00444298  0.25352572  0.35851348  1
  O  O231  1  0.00668629  0.25623431  0.86922738  1
  O  O232  1  0.00745111  0.75427387  0.36937302  1
  O  O233  1  0.00737269  0.75282078  0.87262521  1
  O  O234  1  0.51678530  0.24225998  0.36532165  1
  O  O235  1  0.51775816  0.24896889  0.88099080  1
  O  O236  1  0.50712135  0.74688370  0.36228871  1
  O  O237  1  0.48947524  0.74616053  0.86205003  1
  O  O238  1  0.23858336  0.14890153  0.53583674  1
  O  O239  1  0.24367226  0.13459607  0.98674748  1
  O  O240  1  0.24402817  0.61877175  0.48860949  1
  O  O241  1  0.24186869  0.63477702  0.99272080  1
  O  O242  1  0.75984082  0.13924809  0.51193902  1
  O  O243  1  0.74163856  0.13273659  0.99967246  1
  O  O244  1  0.74272260  0.64919696  0.50063149  1
  O  O245  1  0.74963996  0.62967768  0.98472377  1
  O  O246  1  0.24190394  0.35554965  -0.00623643  1
  O  O247  1  0.24298652  0.37549966  0.50565032  1
  O  O248  1  0.25727491  0.86342448  -0.00871352  1
  O  O249  1  0.25116915  0.85129498  0.49140537  1
  O  O250  1  0.75953006  0.37015412  0.00671276  1
  O  O251  1  0.75147344  0.36545373  0.50955792  1
  O  O252  1  0.75241072  0.84118293  -0.02944904  1
  O  O253  1  0.74982616  0.86538768  0.49802909  1
  O  O254  1  0.13185760  0.49474936  0.24318523  1
  O  O255  1  0.13068192  0.49694906  0.73957164  1
  O  O256  1  0.13968875  1.00469177  0.24040114  1
  O  O257  1  0.07386750  0.98472366  0.72252578  1
  O  O258  1  0.64576030  0.51112913  0.24523374  1
  O  O259  1  0.63691937  0.51466493  0.72204112  1
  O  O260  1  0.61095398  1.02010678  0.25980053  1
  O  O261  1  0.65332020  1.01608439  0.74121058  1
  O  O262  1  0.35958013  0.01356036  0.27086079  1
  O  O263  1  0.38794127  0.00751498  0.76240112  1
  O  O264  1  0.36707823  0.50920100  0.25387358  1
  O  O265  1  0.35930557  0.50064628  0.76094137  1
  O  O266  1  0.90014900  0.01064461  0.27448794  1
  O  O267  1  0.87286426  0.01382022  0.75717773  1
  O  O268  1  0.87007389  0.51535059  0.25446401  1
  O  O269  1  0.87100893  0.50100683  0.76247486  1
  O  O270  1  0.11595196  0.37054269  0.35905667  1
  O  O271  1  0.11633043  0.36561498  0.87347849  1
  O  O272  1  0.11938114  0.85537682  0.37943410  1
  O  O273  1  0.11563163  0.86106049  0.88284777  1
  O  O274  1  0.64158305  0.34516434  0.35086061  1
  O  O275  1  0.63913331  0.35959329  0.87611583  1
  O  O276  1  0.61978581  0.86228925  0.37770102  1
  O  O277  1  0.61216791  0.91359427  0.85979677  1
  O  O278  1  0.37241804  0.12542647  0.12481658  1
  O  O279  1  0.38517950  0.11936773  0.64764311  1
  O  O280  1  0.35996739  0.64063606  0.14368011  1
  O  O281  1  0.37549627  0.62852671  0.62142346  1
  O  O282  1  0.89789786  0.12311736  0.11433821  1
  O  O283  1  0.87753100  0.14555347  0.63598184  1
  O  O284  1  0.88504663  0.63073987  0.11584768  1
  O  O285  1  0.88435204  0.62628801  0.62493496  1
  O  O286  1  0.24247268  0.24274301  0.10710457  1
  O  O287  1  0.27858893  0.26002780  0.64694848  1
  O  O288  1  0.25406443  0.74770568  0.11387560  1
  O  O289  1  0.25759237  0.73324912  0.61051048  1
  O  O290  1  0.75041769  0.26497253  0.11553994  1
  O  O291  1  0.75296644  0.26098705  0.62018328  1
  O  O292  1  0.75847921  0.73900312  0.10739784  1
  O  O293  1  0.76385477  0.75073123  0.62478879  1
  O  O294  1  0.22723667  0.25183464  0.37890350  1
  O  O295  1  0.23917500  0.24194877  0.87189406  1
  O  O296  1  0.24738880  0.73692231  0.38042405  1
  O  O297  1  0.24381882  0.74220049  0.88050311  1
  O  O298  1  0.74545080  0.24359949  0.39197573  1
  O  O299  1  0.74627831  0.23999735  0.88631932  1
  O  O300  1  0.73642072  0.75635534  0.38166662  1
  O  O301  1  0.74380136  0.72737514  0.87995705  1
  O  O302  1  0.01333102  0.11976225  -0.00052756  1
  O  O303  1  -0.00644885  0.14575365  0.50850328  1
  O  O304  1  0.01424781  0.63082830  0.00817269  1
  O  O305  1  0.00472481  0.62207110  0.50699455  1
  O  O306  1  0.49649269  0.11937777  0.00674748  1
  O  O307  1  0.50089526  0.13210077  0.50709760  1
  O  O308  1  0.45208628  0.61137175  0.02344675  1
  O  O309  1  0.51741760  0.62894967  0.49569526  1
  O  O310  1  0.55107973  0.38983763  0.47566953  1
  O  O311  1  0.48203220  0.36916385  1.01008259  1
  O  O312  1  0.49413813  0.87722849  0.49661134  1
  O  O313  1  0.48951736  0.88300083  0.99914821  1
  O  O314  1  0.98409327  0.38636322  0.49563413  1
  O  O315  1  0.99283899  0.36603720  0.98814006  1
  O  O316  1  0.99631560  0.86869329  0.48715284  1
  O  O317  1  0.99920181  0.88071331  0.99322689  1
  O  O318  1  0.49143877  0.49820300  0.34518443  1
  O  O319  1  0.47263777  0.51273863  0.88859369  1
  O  O320  1  0.47371528  1.00632032  0.38999326  1
  O  O321  1  0.48220551  1.00841835  0.89296295  1
  O  O322  1  1.00452264  0.50149616  0.38633576  1
  O  O323  1  0.99645374  0.48761869  0.86862545  1
  O  O324  1  1.02181021  0.97801928  0.37451088  1
  O  O325  1  1.00818826  0.99032437  0.88475174  1
  O  O326  1  0.01633956  0.00970403  0.11207308  1
  O  O327  1  -0.03163979  0.03031685  0.60994607  1
  O  O328  1  0.01215918  0.51175526  0.13144525  1
  O  O329  1  0.00378569  0.50800923  0.61650629  1
  O  O330  1  0.48884137  0.01430494  0.11332215  1
  O  O331  1  0.48472524  -0.00926522  0.60584371  1
  O  O332  1  0.52793515  0.50370493  0.14070190  1
  O  O333  1  0.51487582  0.50254525  0.61856306  1
  O  O334  1  0.23799908  0.38599086  0.25184387  1
  O  O335  1  0.24690382  0.39156558  0.75570032  1
  O  O336  1  0.25475179  0.88830832  0.24923677  1
  O  O337  1  0.25318760  0.88349691  0.77042188  1
  O  O338  1  0.76809154  0.39266476  0.23998447  1
  O  O339  1  0.75416960  0.37479990  0.73175320  1
  O  O340  1  0.78996267  0.87484653  0.22604263  1
  O  O341  1  0.75656159  0.89164057  0.76325733  1
  O  O342  1  0.25728016  0.11476323  0.24895646  1
  O  O343  1  0.23782498  0.12382156  0.75666310  1
  O  O344  1  0.25428568  0.61825801  0.26058613  1
  O  O345  1  0.23855781  0.61422720  0.76007379  1
  O  O346  1  0.76756625  0.06517888  0.18353236  1
  O  O347  1  0.76214719  0.12452376  0.75772068  1
  O  O348  1  0.76546949  0.61701858  0.25482321  1
  O  O349  1  0.75155310  0.62289786  0.76484409  1
  O  O350  1  0.36957874  0.13589278  0.37101366  1
  O  O351  1  0.36828315  0.12223386  0.85910732  1
  O  O352  1  0.36935307  0.62058911  0.36461777  1
  O  O353  1  0.35594864  0.61128646  0.88405493  1
  O  O354  1  0.86166987  0.11789568  0.36944713  1
  O  O355  1  0.86888381  0.13007453  0.87042126  1
  O  O356  1  0.88032379  0.63315344  0.37028356  1
  O  O357  1  0.87993429  0.61238679  0.87670523  1
  O  O358  1  0.11901900  0.38720757  0.13266753  1
  O  O359  1  0.11316911  0.38892860  0.62405816  1
  O  O360  1  0.12172417  0.88396519  0.11912479  1
  O  O361  1  0.16919450  0.86515197  0.63363319  1
  O  O362  1  0.64656931  0.39173024  0.12150657  1
  O  O363  1  0.63589624  0.39072037  0.61842793  1
  O  O364  1  0.61967219  0.89316234  0.12543366  1
  O  O365  1  0.62125978  0.88481508  0.63543163  1
  O  O366  1  0.11891805  0.25767061  0.25489811  1
  O  O367  1  0.11354023  0.25103895  0.75799229  1
  O  O368  1  0.11531300  0.73576893  0.25947133  1
  O  O369  1  0.11456386  0.74205826  0.76168338  1
  O  O370  1  0.64431787  0.21131362  0.26060725  1
  O  O371  1  0.63394443  0.24301892  0.76645670  1
  O  O372  1  0.61630285  0.74555011  0.26117731  1
  O  O373  1  0.60852490  0.74751276  0.74316132  1
  O  O374  1  0.35210978  0.23994174  0.25303897  1
  O  O375  1  0.39191708  0.23617301  0.74898148  1
  O  O376  1  0.38412123  0.74689210  0.24791897  1
  O  O377  1  0.37748113  0.73509811  0.74023687  1
  O  O378  1  0.88189032  0.23970130  0.25251215  1
  O  O379  1  0.87805279  0.25001286  0.74648692  1
  O  O380  1  0.88049253  0.73197750  0.23882004  1
  O  O381  1  0.88042789  0.74635381  0.74832064  1
  O  O382  1  0.38342405  0.50699719  0.47577100  1
  O  O383  1  0.34938282  0.47768796  0.98687071  1
  O  O384  1  0.37190651  0.99899376  0.49148007  1
  O  O385  1  0.37557065  0.99174194  0.99566276  1
  O  O386  1  0.88007949  0.49485018  0.50170773  1
  O  O387  1  0.87216647  0.48765336  0.98714448  1
  O  O388  1  0.87376322  1.00038612  0.47817745  1
  O  O389  1  0.89640230  0.99869005  0.99668211  1
  O  O390  1  0.12667109  0.00570912  0.00310003  1
  O  O391  1  0.12804121  -0.00052934  0.51307461  1
  O  O392  1  0.13464360  0.51041347  0.00793615  1
  O  O393  1  0.11579922  0.50942923  0.50396157  1
  O  O394  1  0.60842808  0.01578318  -0.00629848  1
  O  O395  1  0.59751587  0.00765774  0.49359167  1
  O  O396  1  0.62825300  0.50366480  0.01272328  1
  O  O397  1  0.63983620  0.51971361  0.50420727  1
  O  O398  1  0.35900005  0.37099920  0.10639437  1
  O  O399  1  0.38241688  0.37750399  0.63399447  1
  O  O400  1  0.37431583  0.86218600  0.11381202  1
  O  O401  1  0.34972457  0.85461515  0.63585470  1
  O  O402  1  0.86965048  0.38755120  0.11199884  1
  O  O403  1  0.86831589  0.37009579  0.61559165  1
  O  O404  1  0.89034644  0.86002723  0.10784840  1
  O  O405  1  0.89127091  0.87062690  0.63006993  1
  O  O406  1  0.11482948  0.13781650  0.37600231  1
  O  O407  1  0.12869377  0.12860411  0.87851018  1
  O  O408  1  0.13263585  0.62707555  0.38005607  1
  O  O409  1  0.12926177  0.63154550  0.88296208  1
  O  O410  1  0.62304190  0.13241152  0.39967045  1
  O  O411  1  0.63408720  0.13126150  0.88700932  1
  O  O412  1  0.62916817  0.63869536  0.38569928  1
  O  O413  1  0.62875066  0.60373423  0.87102609  1
