# generated using pymatgen
data_V79Zn79O256
_symmetry_space_group_name_H-M   'P 1'
_cell_length_a   16.93350082
_cell_length_b   16.94074781
_cell_length_c   16.94675971
_cell_angle_alpha   89.88193683
_cell_angle_beta   90.17228321
_cell_angle_gamma   89.73898914
_symmetry_Int_Tables_number   1
_chemical_formula_structural   V79Zn79O256
_chemical_formula_sum   'V79 Zn79 O256'
_cell_volume   4861.36912035
_cell_formula_units_Z   1
loop_
 _symmetry_equiv_pos_site_id
 _symmetry_equiv_pos_as_xyz
  1  'x, y, z'
loop_
 _atom_site_type_symbol
 _atom_site_label
 _atom_site_symmetry_multiplicity
 _atom_site_fract_x
 _atom_site_fract_y
 _atom_site_fract_z
 _atom_site_occupancy
  V  V0  1  0.13439762  0.12223673  0.48893567  1
  V  V1  1  0.75543885  0.87363434  0.11993247  1
  V  V2  1  0.61907291  0.12137501  0.01400662  1
  V  V3  1  0.87701926  0.14620207  0.24728157  1
  V  V4  1  0.13262473  0.24910760  0.36885656  1
  V  V5  1  -0.00238611  0.75042490  0.74880389  1
  V  V6  1  0.73151632  0.77020826  0.50902165  1
  V  V7  1  0.50250894  0.50176339  0.51738494  1
  V  V8  1  0.74370941  0.61967181  0.37113134  1
  V  V9  1  0.25044775  0.74193650  0.49562181  1
  V  V10  1  0.36704518  0.50917143  0.37162492  1
  V  V11  1  0.75615326  0.12292033  0.37770157  1
  V  V12  1  0.37753413  0.49696088  0.88185342  1
  V  V13  1  0.62870943  0.24865652  0.87590648  1
  V  V14  1  0.61454418  0.75609036  0.36758070  1
  V  V15  1  0.37711413  0.87436725  0.48863472  1
  V  V16  1  0.75474309  0.11268351  0.87525073  1
  V  V17  1  0.24950024  0.74730227  0.00094794  1
  V  V18  1  0.13324576  0.37703226  0.24303375  1
  V  V19  1  0.62574384  0.13058069  0.49903551  1
  V  V20  1  0.24956847  0.12442358  0.87891148  1
  V  V21  1  0.87034638  0.88178986  0.50011422  1
  V  V22  1  0.24930678  0.00085051  0.74973196  1
  V  V23  1  0.11546222  0.62321994  0.00088517  1
  V  V24  1  -0.00551504  0.87538447  0.36833468  1
  V  V25  1  0.86637431  0.49711371  0.86941169  1
  V  V26  1  0.37680560  0.37234340  0.50936807  1
  V  V27  1  0.76415101  0.39769643  0.12118990  1
  V  V28  1  0.00563297  0.37121105  0.38136832  1
  V  V29  1  0.26346233  0.26930310  0.00433234  1
  V  V30  1  0.50837025  0.11742853  0.62922016  1
  V  V31  1  0.62410276  0.63569036  0.01582199  1
  V  V32  1  0.25003573  0.87457756  0.62393101  1
  V  V33  1  0.61821431  0.62222601  0.51297304  1
  V  V34  1  0.49355737  0.72231450  0.24276991  1
  V  V35  1  0.49805552  0.24843496  0.74587848  1
  V  V36  1  0.12106218  0.24917438  0.88086981  1
  V  V37  1  0.24882803  0.62415468  0.87548631  1
  V  V38  1  0.37948155  0.62649185  0.74690056  1
  V  V39  1  -0.00962821  0.49514193  0.00708063  1
  V  V40  1  0.12220505  0.74920447  0.87164004  1
  V  V41  1  0.49974662  0.37579728  0.87713759  1
  V  V42  1  0.63533529  0.38725277  0.23625828  1
  V  V43  1  0.88174302  0.63017619  0.25012151  1
  V  V44  1  0.12252512  0.37274475  0.74840405  1
  V  V45  1  -0.00443891  -0.00202383  0.49678489  1
  V  V46  1  0.12856573  0.74508694  0.37462329  1
  V  V47  1  0.49640604  0.25316054  0.23619336  1
  V  V48  1  0.76164946  -0.00239014  0.24850074  1
  V  V49  1  0.14081183  0.87751390  0.24708384  1
  V  V50  1  0.12203621  0.87447170  0.74789157  1
  V  V51  1  0.89404818  0.50332355  0.38542951  1
  V  V52  1  0.25485675  0.24892076  0.50480824  1
  V  V53  1  0.37406153  0.12833777  0.74439980  1
  V  V54  1  0.51267179  0.50133025  0.00886774  1
  V  V55  1  0.13282431  0.50106329  0.12594220  1
  V  V56  1  0.88172834  0.12190186  0.74712076  1
  V  V57  1  0.73883788  0.63800885  0.87128673  1
  V  V58  1  0.01607267  0.13622574  0.13455841  1
  V  V59  1  0.86907637  0.61907434  0.74717055  1
  V  V60  1  0.60066972  0.88965882  0.24277874  1
  V  V61  1  -0.01442813  0.88305454  0.88077412  1
  V  V62  1  0.87087040  0.75709358  0.62410627  1
  V  V63  1  0.37778016  0.74934400  0.62677523  1
  V  V64  1  0.76179845  0.25154650  0.01129046  1
  V  V65  1  0.51516734  0.87437903  0.87625244  1
  V  V66  1  0.50719018  -0.00635375  0.49999101  1
  V  V67  1  0.12117730  0.00116546  0.62203284  1
  V  V68  1  0.63784150  0.38395573  0.73957936  1
  V  V69  1  0.00123688  0.62236846  0.61539455  1
  V  V70  1  0.51003789  0.75435644  0.75474409  1
  V  V71  1  -0.00721900  0.37250346  0.87533803  1
  V  V72  1  0.37565603  0.72855997  0.12228040  1
  V  V73  1  0.37568021  0.87153283  -0.00249879  1
  V  V74  1  0.12233435  0.49911155  0.61786990  1
  V  V75  1  0.36686404  0.01625761  0.37742500  1
  V  V76  1  0.24918706  0.49867601  0.75062253  1
  V  V77  1  0.73949066  -0.01036063  0.73153078  1
  V  V78  1  0.50694123  0.37578424  0.38061919  1
  Zn  Zn79  1  0.85680375  0.26483334  0.58389407  1
  Zn  Zn80  1  0.23975394  0.88797794  0.11272879  1
  Zn  Zn81  1  0.49832760  0.00544260  0.01116652  1
  Zn  Zn82  1  0.12551822  0.61799110  0.49227902  1
  Zn  Zn83  1  0.87767325  0.75981929  0.10196501  1
  Zn  Zn84  1  0.00032180  -0.00479441  0.01820647  1
  Zn  Zn85  1  -0.01224054  0.25445181  0.74151837  1
  Zn  Zn86  1  0.00203263  0.14230441  0.61388989  1
  Zn  Zn87  1  0.37776130  -0.00294592  0.87401655  1
  Zn  Zn88  1  0.23820116  0.02726545  0.24674443  1
  Zn  Zn89  1  0.13630371  0.10660488  0.02084507  1
  Zn  Zn90  1  -0.00100707  0.74956426  0.23549811  1
  Zn  Zn91  1  0.38343900  0.13263330  0.23432770  1
  Zn  Zn92  1  0.25569078  0.36962458  0.63050374  1
  Zn  Zn93  1  0.62770702  0.25315905  0.37368587  1
  Zn  Zn94  1  0.20071728  0.20011654  0.18840257  1
  Zn  Zn95  1  0.18483604  0.18722749  0.68649238  1
  Zn  Zn96  1  0.17917710  0.68959183  0.18363785  1
  Zn  Zn97  1  0.18816869  0.68634036  0.68441473  1
  Zn  Zn98  1  0.68613143  0.19499733  0.19391226  1
  Zn  Zn99  1  0.69085574  0.19321175  0.68915575  1
  Zn  Zn100  1  0.68944226  0.69463721  0.18889051  1
  Zn  Zn101  1  0.68908349  0.68875154  0.69118239  1
  Zn  Zn102  1  0.31552981  0.32124688  0.31542774  1
  Zn  Zn103  1  0.31189586  0.31102261  0.81851786  1
  Zn  Zn104  1  0.30714901  0.67933133  0.30946499  1
  Zn  Zn105  1  0.31267788  0.81331106  0.81301330  1
  Zn  Zn106  1  0.83400334  0.29574723  0.37543395  1
  Zn  Zn107  1  0.81235910  0.30504256  0.81377353  1
  Zn  Zn108  1  0.80581106  0.81166314  0.31545092  1
  Zn  Zn109  1  0.80731815  0.81504359  0.81003274  1
  Zn  Zn110  1  0.19215678  0.43284439  0.43677028  1
  Zn  Zn111  1  0.18170471  0.43913184  0.93729484  1
  Zn  Zn112  1  0.19112874  0.93146933  0.43162563  1
  Zn  Zn113  1  0.17906282  0.93777587  0.93534900  1
  Zn  Zn114  1  0.68840050  0.44007493  0.44426867  1
  Zn  Zn115  1  0.68900466  0.43443555  0.93869058  1
  Zn  Zn116  1  0.68022439  0.94191483  0.42629247  1
  Zn  Zn117  1  0.68556612  0.94027660  0.94376803  1
  Zn  Zn118  1  0.31409643  0.05977223  0.06394641  1
  Zn  Zn119  1  0.31526243  0.06198772  0.56380040  1
  Zn  Zn120  1  0.34158158  0.51881356  0.09513776  1
  Zn  Zn121  1  0.31350500  0.55776277  0.56353285  1
  Zn  Zn122  1  0.81611448  0.05784512  0.07342363  1
  Zn  Zn123  1  0.79567597  0.09300055  0.58050682  1
  Zn  Zn124  1  0.81867388  0.58982656  0.04950459  1
  Zn  Zn125  1  0.82059903  0.58726688  0.54414952  1
  Zn  Zn126  1  0.44244939  0.43144462  0.19513356  1
  Zn  Zn127  1  0.44078453  0.43553097  0.69412520  1
  Zn  Zn128  1  0.40209900  0.94093031  0.18310931  1
  Zn  Zn129  1  0.43763567  0.93658092  0.68830502  1
  Zn  Zn130  1  0.93536920  0.43897554  0.20509403  1
  Zn  Zn131  1  0.93602562  0.43851036  0.68182163  1
  Zn  Zn132  1  0.93808164  0.94446590  0.18522488  1
  Zn  Zn133  1  0.92860464  0.94275302  0.69172364  1
  Zn  Zn134  1  0.05905357  0.05923151  0.30885695  1
  Zn  Zn135  1  0.06446978  0.06147852  0.81673035  1
  Zn  Zn136  1  0.06651277  0.56406337  0.30628386  1
  Zn  Zn137  1  0.05644640  0.55956343  0.80968754  1
  Zn  Zn138  1  0.55637565  0.06566632  0.31497674  1
  Zn  Zn139  1  0.56676871  0.05881301  0.81727993  1
  Zn  Zn140  1  0.56045014  0.55537493  0.32049294  1
  Zn  Zn141  1  0.56197853  0.55961348  0.80522128  1
  Zn  Zn142  1  0.44223521  0.19067013  0.44102624  1
  Zn  Zn143  1  0.43688167  0.18871273  0.93657539  1
  Zn  Zn144  1  0.44163188  0.68806854  0.43850799  1
  Zn  Zn145  1  0.44285894  0.68458360  0.93559846  1
  Zn  Zn146  1  0.94676872  0.18045992  0.43148314  1
  Zn  Zn147  1  0.92130161  0.14290865  0.96501850  1
  Zn  Zn148  1  0.93307553  0.69832871  0.43446686  1
  Zn  Zn149  1  0.93299713  0.68965285  0.93315169  1
  Zn  Zn150  1  0.05661109  0.31006175  0.06409507  1
  Zn  Zn151  1  0.05986557  0.31081479  0.55969888  1
  Zn  Zn152  1  0.06008398  0.81497635  0.06283460  1
  Zn  Zn153  1  0.06084936  0.81113970  0.55970911  1
  Zn  Zn154  1  0.56780992  0.31452324  0.06060714  1
  Zn  Zn155  1  0.56340379  0.30963920  0.56643286  1
  Zn  Zn156  1  0.56221073  0.81248539  0.06923223  1
  Zn  Zn157  1  0.55943518  0.80772401  0.56431981  1
  O  O158  1  0.11937607  0.12779141  0.14328063  1
  O  O159  1  0.12057043  0.11643359  0.61505878  1
  O  O160  1  0.11912930  0.61455716  0.11047777  1
  O  O161  1  0.11669947  0.61698944  0.62563639  1
  O  O162  1  0.62713369  0.13409234  0.11193052  1
  O  O163  1  0.61310715  0.12416826  0.61924319  1
  O  O164  1  0.63692608  0.62607897  0.11419803  1
  O  O165  1  0.62684474  0.63429645  0.61071258  1
  O  O166  1  0.38577585  0.38542849  0.39020084  1
  O  O167  1  0.38729641  0.38561446  0.86550068  1
  O  O168  1  0.37936720  0.88357654  0.39100892  1
  O  O169  1  0.38059024  0.87122462  0.88498855  1
  O  O170  1  0.89424262  0.39360233  0.36921969  1
  O  O171  1  0.88440561  0.38164516  0.86453786  1
  O  O172  1  0.89028205  0.87039137  0.38149048  1
  O  O173  1  0.88732123  0.86885578  0.87097377  1
  O  O174  1  0.26393938  -0.00144369  0.37403779  1
  O  O175  1  0.24554195  0.00999710  0.86714931  1
  O  O176  1  0.26770274  0.49687319  0.38222029  1
  O  O177  1  0.25617809  0.50717884  0.87145058  1
  O  O178  1  0.73629390  0.01265991  0.35490533  1
  O  O179  1  0.74705771  0.01226547  0.87835313  1
  O  O180  1  0.75172086  0.51821435  0.38305344  1
  O  O181  1  0.76371651  0.50091765  0.87904696  1
  O  O182  1  0.22891288  0.50164040  0.11202184  1
  O  O183  1  0.24144425  0.49780730  0.63503930  1
  O  O184  1  0.28548923  0.98568789  0.14708530  1
  O  O185  1  0.23984759  0.99557811  0.62833028  1
  O  O186  1  0.75751258  0.49436896  0.10322917  1
  O  O187  1  0.78827102  0.42337779  0.58411264  1
  O  O188  1  0.74660517  0.99492162  0.14132045  1
  O  O189  1  0.74778305  1.00251929  0.63198720  1
  O  O190  1  0.01792203  0.38845586  0.26787653  1
  O  O191  1  0.00628623  0.37553752  0.75517885  1
  O  O192  1  0.00086174  0.87974498  0.26376577  1
  O  O193  1  0.00231232  0.86887040  0.75420998  1
  O  O194  1  0.51188512  0.36986819  0.26180208  1
  O  O195  1  0.50818437  0.36495906  0.75778396  1
  O  O196  1  0.50173552  0.88139942  0.23447159  1
  O  O197  1  0.49454956  0.86545519  0.76313688  1
  O  O198  1  0.50049363  0.14943197  0.25872554  1
  O  O199  1  0.49435293  0.12753036  0.74864288  1
  O  O200  1  0.50592672  0.62491736  0.24442363  1
  O  O201  1  0.48785264  0.64038006  0.75984863  1
  O  O202  1  0.98489615  0.12615860  0.25190548  1
  O  O203  1  0.98747871  0.12692462  0.76026941  1
  O  O204  1  0.98691706  0.63078226  0.25578882  1
  O  O205  1  0.99026866  0.63124760  0.74147943  1
  O  O206  1  0.36242600  0.25022202  -0.00796291  1
  O  O207  1  0.36647920  0.25974291  0.49536438  1
  O  O208  1  0.36705599  0.74806806  -0.00012064  1
  O  O209  1  0.37366415  0.75476994  0.50795793  1
  O  O210  1  0.85936031  0.23912198  -0.00344654  1
  O  O211  1  0.88108889  0.25876810  0.47357184  1
  O  O212  1  0.85885956  0.69549717  0.01272830  1
  O  O213  1  0.85961875  0.76194355  0.50571637  1
  O  O214  1  0.13240666  0.24056088  0.49139128  1
  O  O215  1  0.13305232  0.25716737  0.98585571  1
  O  O216  1  0.13527869  0.75191800  0.49337217  1
  O  O217  1  0.13045199  0.74184969  0.99338721  1
  O  O218  1  0.62015652  0.23390222  0.49992125  1
  O  O219  1  0.62980227  0.24276585  0.99080445  1
  O  O220  1  0.60985873  0.73367307  0.48150568  1
  O  O221  1  0.61485460  0.73458575  1.00228171  1
  O  O222  1  0.50051606  0.26199857  0.13681714  1
  O  O223  1  0.50175937  0.23734520  0.63985833  1
  O  O224  1  0.49104653  0.74503511  0.13581310  1
  O  O225  1  0.48719065  0.75981325  0.64009091  1
  O  O226  1  1.00269652  0.23832220  0.13319342  1
  O  O227  1  0.98243088  0.25658516  0.62250218  1
  O  O228  1  0.98806297  0.75849617  0.12431753  1
  O  O229  1  0.99064150  0.74407978  0.62860665  1
  O  O230  1  0.01696710  0.26376883  0.37477019  1
  O  O231  1  0.00897667  0.26246580  0.87174291  1
  O  O232  1  0.00961049  0.76584431  0.38001666  1
  O  O233  1  0.00330510  0.75516064  0.86821680  1
  O  O234  1  0.50339246  0.26724870  0.37931063  1
  O  O235  1  0.50837400  0.25684287  0.86819533  1
  O  O236  1  0.50344594  0.74165266  0.35532091  1
  O  O237  1  0.49749941  0.76005379  0.86407462  1
  O  O238  1  0.24096211  0.13063082  0.50441171  1
  O  O239  1  0.24931794  0.12817143  0.99210039  1
  O  O240  1  0.24811705  0.63864998  0.50990874  1
  O  O241  1  0.23713203  0.63109869  0.98541854  1
  O  O242  1  0.73853643  0.10302526  0.48063508  1
  O  O243  1  0.73916618  0.13300835  0.99245152  1
  O  O244  1  0.73360592  0.64203621  0.49290377  1
  O  O245  1  0.72690387  0.61686576  0.97889193  1
  O  O246  1  0.25442720  0.36832979  -0.01551519  1
  O  O247  1  0.25989393  0.36700713  0.50557785  1
  O  O248  1  0.25480439  0.86170326  -0.00638950  1
  O  O249  1  0.25868668  0.86451214  0.50498693  1
  O  O250  1  0.74679571  0.36249207  0.01153969  1
  O  O251  1  0.75643452  0.37970573  0.52509856  1
  O  O252  1  0.74142431  0.88205187  0.02139678  1
  O  O253  1  0.76849761  0.88182176  0.47403679  1
  O  O254  1  0.12133926  0.49731625  0.23200634  1
  O  O255  1  0.12878758  0.49121192  0.74466578  1
  O  O256  1  0.13140947  0.98379144  0.26191161  1
  O  O257  1  0.12890393  0.99656692  0.73914917  1
  O  O258  1  0.61810780  0.48488428  0.25296443  1
  O  O259  1  0.62207587  0.48348455  0.74787693  1
  O  O260  1  0.61797058  0.99052738  0.25182305  1
  O  O261  1  0.64026702  1.00472003  0.75126747  1
  O  O262  1  0.38977270  0.00839198  0.27696769  1
  O  O263  1  0.36694413  0.00800782  0.75181596  1
  O  O264  1  0.38795489  0.49786754  0.27457877  1
  O  O265  1  0.37140433  0.50887723  0.75756557  1
  O  O266  1  0.86199101  0.00679013  0.25458914  1
  O  O267  1  0.85942163  0.01313155  0.75166336  1
  O  O268  1  0.87836568  0.51885092  0.27397377  1
  O  O269  1  0.88007563  0.51019839  0.75496316  1
  O  O270  1  0.12207879  0.37272045  0.36659479  1
  O  O271  1  0.11601692  0.37156871  0.86474173  1
  O  O272  1  0.11798400  0.86503019  0.36863036  1
  O  O273  1  0.11737839  0.86602298  0.86490964  1
  O  O274  1  0.62198592  0.37643355  0.37531765  1
  O  O275  1  0.61889266  0.36632162  0.86708689  1
  O  O276  1  0.62060297  0.86523096  0.35707458  1
  O  O277  1  0.61364601  0.87338535  0.88204629  1
  O  O278  1  0.41262367  0.09698401  0.12071866  1
  O  O279  1  0.38294269  0.12230872  0.63863323  1
  O  O280  1  0.36699218  0.62956054  0.11252565  1
  O  O281  1  0.36908704  0.63496068  0.63721392  1
  O  O282  1  0.87279013  0.13588340  0.14542343  1
  O  O283  1  0.89270574  0.11303392  0.64101162  1
  O  O284  1  0.85979168  0.61983298  0.15382689  1
  O  O285  1  0.88268342  0.62995243  0.62902966  1
  O  O286  1  0.24365925  0.25742361  0.10185146  1
  O  O287  1  0.24271737  0.25177248  0.61095799  1
  O  O288  1  0.25375470  0.74866800  0.10901339  1
  O  O289  1  0.25859851  0.75538220  0.61965011  1
  O  O290  1  0.74815526  0.25083737  0.11238946  1
  O  O291  1  0.76429731  0.20365940  0.60786193  1
  O  O292  1  0.75753521  0.76983931  0.13755893  1
  O  O293  1  0.76744245  0.73610692  0.62011739  1
  O  O294  1  0.23951828  0.25998031  0.38712236  1
  O  O295  1  0.24241046  0.24142525  0.88058784  1
  O  O296  1  0.24258852  0.74851620  0.38559048  1
  O  O297  1  0.24412107  0.74167163  0.87919212  1
  O  O298  1  0.74221154  0.22802826  0.37197009  1
  O  O299  1  0.74122585  0.24517553  0.88632205  1
  O  O300  1  0.73239552  0.75009699  0.38780352  1
  O  O301  1  0.75081259  0.73678857  0.86976483  1
  O  O302  1  0.01950691  0.13453692  0.02264552  1
  O  O303  1  0.01420981  0.11319781  0.49594074  1
  O  O304  1  0.01142522  0.60879124  -0.01752150  1
  O  O305  1  -0.00008684  0.63691946  0.51295692  1
  O  O306  1  0.51596249  0.12696427  -0.01111629  1
  O  O307  1  0.50581791  0.11641676  0.51060285  1
  O  O308  1  0.51524612  0.61295438  -0.00989349  1
  O  O309  1  0.51108853  0.61730924  0.49878751  1
  O  O310  1  0.49764216  0.38100803  0.50001925  1
  O  O311  1  0.51088539  0.38717275  0.98532762  1
  O  O312  1  0.49388279  0.88761382  0.51143995  1
  O  O313  1  0.49503526  0.87197800  0.99011954  1
  O  O314  1  1.01665032  0.38252417  0.48070824  1
  O  O315  1  1.00417902  0.38717591  0.98940864  1
  O  O316  1  0.99289777  0.87975001  0.49221852  1
  O  O317  1  1.00109239  0.87490841  0.98345084  1
  O  O318  1  0.49553710  0.49119573  0.39251633  1
  O  O319  1  0.49406873  0.49212382  0.87271670  1
  O  O320  1  0.48989037  1.00584897  0.39705455  1
  O  O321  1  0.49877782  0.98345083  0.87540842  1
  O  O322  1  0.99766769  0.50235658  0.38176357  1
  O  O323  1  0.99190721  0.48988803  0.87829221  1
  O  O324  1  1.00861078  0.98466921  0.38614236  1
  O  O325  1  1.00117133  0.98314881  0.86833712  1
  O  O326  1  -0.00615431  0.02546903  0.13283267  1
  O  O327  1  0.01375229  -0.00611429  0.61704017  1
  O  O328  1  -0.00134971  0.49531754  0.10864817  1
  O  O329  1  0.00972327  0.51022214  0.62849110  1
  O  O330  1  0.46424417  0.02832967  0.12513563  1
  O  O331  1  0.49333922  0.00782141  0.61536223  1
  O  O332  1  0.50242297  0.49659596  0.10649271  1
  O  O333  1  0.49721683  0.49957129  0.61710837  1
  O  O334  1  0.23281468  0.38148396  0.25659254  1
  O  O335  1  0.24068997  0.37853965  0.75170450  1
  O  O336  1  0.23791724  0.86679506  0.25272039  1
  O  O337  1  0.24320059  0.87995773  0.74478899  1
  O  O338  1  0.73910743  0.38055260  0.23364949  1
  O  O339  1  0.73615438  0.36756996  0.75583593  1
  O  O340  1  0.74512773  0.88978056  0.25041047  1
  O  O341  1  0.75371420  0.88993842  0.74750255  1
  O  O342  1  0.27169377  0.13423518  0.24274332  1
  O  O343  1  0.25601246  0.12312493  0.75519581  1
  O  O344  1  0.23627932  0.62260433  0.24883183  1
  O  O345  1  0.25602952  0.62173689  0.75921360  1
  O  O346  1  0.75572902  0.11906553  0.25517073  1
  O  O347  1  0.75458968  0.11742536  0.76310492  1
  O  O348  1  0.75396115  0.63686942  0.27004342  1
  O  O349  1  0.76095391  0.62545382  0.75475061  1
  O  O350  1  0.37367536  0.11644844  0.38851408  1
  O  O351  1  0.36415497  0.12129942  0.86591711  1
  O  O352  1  0.37531605  0.61566304  0.38162002  1
  O  O353  1  0.36628711  0.61983835  0.86680075  1
  O  O354  1  0.86126873  0.12006540  0.36771090  1
  O  O355  1  0.85870099  0.13002203  0.86678698  1
  O  O356  1  0.86305254  0.62338407  0.37853934  1
  O  O357  1  0.86521271  0.61656386  0.86252383  1
  O  O358  1  0.11706924  0.38613568  0.13472229  1
  O  O359  1  0.12279991  0.38197118  0.63470345  1
  O  O360  1  0.12692359  0.86947956  0.14160801  1
  O  O361  1  0.12968222  0.88110807  0.62744953  1
  O  O362  1  0.63307244  0.37875505  0.13174886  1
  O  O363  1  0.62559686  0.36474160  0.64073603  1
  O  O364  1  0.63323489  0.87146245  0.14149812  1
  O  O365  1  0.67069529  0.83124845  0.56559993  1
  O  O366  1  0.13069800  0.26678476  0.25664331  1
  O  O367  1  0.12316827  0.25964518  0.75675975  1
  O  O368  1  0.11721726  0.76128049  0.25854636  1
  O  O369  1  0.11883493  0.75383358  0.75121325  1
  O  O370  1  0.61514540  0.26596028  0.25324689  1
  O  O371  1  0.61739826  0.25050063  0.75975732  1
  O  O372  1  0.60751414  0.75581586  0.25097815  1
  O  O373  1  0.60796310  0.75032819  0.74186556  1
  O  O374  1  0.39328191  0.26296540  0.25514392  1
  O  O375  1  0.38607812  0.23995924  0.76028677  1
  O  O376  1  0.38668448  0.73667232  0.24004617  1
  O  O377  1  0.37662098  0.74410715  0.74343300  1
  O  O378  1  0.86927784  0.24257370  0.26808583  1
  O  O379  1  0.86939889  0.23074124  0.74815491  1
  O  O380  1  0.87669137  0.73831014  0.26324444  1
  O  O381  1  0.87807941  0.74225797  0.74033085  1
  O  O382  1  0.38394852  0.49389621  0.49738577  1
  O  O383  1  0.39219337  0.51030753  0.98373517  1
  O  O384  1  0.37985866  0.99336254  0.49670971  1
  O  O385  1  0.37644338  0.98384305  0.99380895  1
  O  O386  1  0.87334337  0.50885882  0.48530470  1
  O  O387  1  0.88820985  0.50906520  0.98755139  1
  O  O388  1  0.89174783  0.99498512  0.50904725  1
  O  O389  1  0.89240571  1.03419946  0.99688094  1
  O  O390  1  0.11733670  -0.00414299  0.00608986  1
  O  O391  1  0.12312492  0.00355960  0.50419134  1
  O  O392  1  0.11308718  0.50343011  0.00566483  1
  O  O393  1  0.13600994  0.50093702  0.51424591  1
  O  O394  1  0.61997068  0.01628990  0.00239321  1
  O  O395  1  0.61085257  0.00323394  0.49743386  1
  O  O396  1  0.61575141  0.50664555  -0.00744446  1
  O  O397  1  0.62021252  0.51549763  0.50108852  1
  O  O398  1  0.36477835  0.41295000  0.12092382  1
  O  O399  1  0.37657496  0.37904719  0.61468744  1
  O  O400  1  0.37503763  0.85365367  0.10677053  1
  O  O401  1  0.36834982  0.86659613  0.62078228  1
  O  O402  1  0.86266420  0.38367038  0.13645708  1
  O  O403  1  0.85272161  0.37996834  0.62067182  1
  O  O404  1  0.86087273  0.88093196  0.12823575  1
  O  O405  1  0.88069087  0.86648430  0.61425637  1
  O  O406  1  0.12132729  0.13374455  0.37978839  1
  O  O407  1  0.13552424  0.13516647  0.87050903  1
  O  O408  1  0.11366628  0.64038201  0.37794346  1
  O  O409  1  0.13116985  0.62737983  0.87529859  1
  O  O410  1  0.62772687  0.12713837  0.38412636  1
  O  O411  1  0.63628917  0.13360586  0.87825116  1
  O  O412  1  0.63351146  0.63114182  0.37496484  1
  O  O413  1  0.63936168  0.62515330  0.85665809  1
