# generated using pymatgen
data_V79Zn79O256
_symmetry_space_group_name_H-M   'P 1'
_cell_length_a   16.85171005
_cell_length_b   16.85539972
_cell_length_c   16.85104662
_cell_angle_alpha   90.02421235
_cell_angle_beta   90.03203756
_cell_angle_gamma   90.00963285
_symmetry_Int_Tables_number   1
_chemical_formula_structural   V79Zn79O256
_chemical_formula_sum   'V79 Zn79 O256'
_cell_volume   4786.40894805
_cell_formula_units_Z   1
loop_
 _symmetry_equiv_pos_site_id
 _symmetry_equiv_pos_as_xyz
  1  'x, y, z'
loop_
 _atom_site_type_symbol
 _atom_site_label
 _atom_site_symmetry_multiplicity
 _atom_site_fract_x
 _atom_site_fract_y
 _atom_site_fract_z
 _atom_site_occupancy
  V  V0  1  0.87824410  0.48494672  0.38453694  1
  V  V1  1  0.24238358  0.38667558  0.12656305  1
  V  V2  1  0.50831672  0.62684652  0.12648483  1
  V  V3  1  0.75308503  0.62431489  0.37915592  1
  V  V4  1  0.37150237  0.23854626  0.62932754  1
  V  V5  1  0.50190016  0.00064867  -0.00187947  1
  V  V6  1  0.60299383  0.00176732  0.62173449  1
  V  V7  1  0.75121485  -0.00181896  0.74030958  1
  V  V8  1  0.49997803  0.74921893  0.24726457  1
  V  V9  1  0.37889792  0.37618346  -0.00254472  1
  V  V10  1  0.74895447  0.11771789  0.37598992  1
  V  V11  1  0.11886893  0.11079161  0.50132953  1
  V  V12  1  0.87800593  0.75014000  0.13313714  1
  V  V13  1  0.01454656  0.25474324  0.75745785  1
  V  V14  1  0.00309529  0.49045033  0.50138898  1
  V  V15  1  0.25684848  0.86790839  0.12432854  1
  V  V16  1  0.61329219  0.12457825  0.50156244  1
  V  V17  1  0.00496354  0.11529095  0.62438353  1
  V  V18  1  0.75873046  0.76130081  0.51330209  1
  V  V19  1  0.62965426  0.13082620  -0.00112175  1
  V  V20  1  0.24596543  0.24840754  -0.00506092  1
  V  V21  1  0.37662470  0.86920924  0.00270660  1
  V  V22  1  0.87649451  0.12658901  0.74998820  1
  V  V23  1  0.62364630  0.25547352  0.86893725  1
  V  V24  1  -0.01649915  0.63450028  0.62683352  1
  V  V25  1  0.12310469  0.50541565  0.65250659  1
  V  V26  1  0.60437070  0.49179478  0.62333271  1
  V  V27  1  0.63062094  0.37062538  0.24537005  1
  V  V28  1  0.88712266  -0.00021261  0.87858013  1
  V  V29  1  0.63112116  0.00272414  0.13194767  1
  V  V30  1  0.60860747  0.61832790  0.50349271  1
  V  V31  1  0.86533784  0.37475503  -0.00257017  1
  V  V32  1  -0.00408915  0.87278144  0.39266087  1
  V  V33  1  0.23947039  0.13163012  0.37298894  1
  V  V34  1  0.00482985  0.50150473  0.01330801  1
  V  V35  1  0.50405361  0.37255916  0.37900795  1
  V  V36  1  0.00070263  0.12414503  0.12037865  1
  V  V37  1  0.74654515  0.74869637  -0.01022866  1
  V  V38  1  0.50486422  0.49968843  -0.00006858  1
  V  V39  1  0.88964751  0.88057822  -0.00135638  1
  V  V40  1  0.88388689  0.63009564  0.25648893  1
  V  V41  1  0.75115157  0.25259070  0.49709435  1
  V  V42  1  0.49948825  0.12484848  0.12494792  1
  V  V43  1  0.12180092  -0.00249720  0.11777472  1
  V  V44  1  0.36586374  0.51476753  0.86694356  1
  V  V45  1  0.37522106  0.24892428  0.12613034  1
  V  V46  1  0.23609685  0.25633895  0.49704296  1
  V  V47  1  -0.01216251  0.75378997  0.75415792  1
  V  V48  1  0.12591267  0.38483647  0.25887825  1
  V  V49  1  0.37246443  0.12209879  0.25621399  1
  V  V50  1  0.49699334  0.74126776  0.74212020  1
  V  V51  1  0.24327266  0.38226600  0.64176071  1
  V  V52  1  0.25119836  -0.00002003  0.25339955  1
  V  V53  1  0.37386695  0.00171796  0.86928570  1
  V  V54  1  0.36880205  0.62209996  0.24039816  1
  V  V55  1  0.50114814  0.24018618  0.74277110  1
  V  V56  1  0.24929235  -0.00220270  0.73769606  1
  V  V57  1  0.37124961  0.38315399  0.50093594  1
  V  V58  1  0.74830037  0.87833293  0.13139639  1
  V  V59  1  0.87924232  -0.00197279  0.39428931  1
  V  V60  1  0.00962221  0.25149741  0.26073260  1
  V  V61  1  0.62574688  0.87372339  0.74654746  1
  V  V62  1  0.11960141  0.87910339  0.74628418  1
  V  V63  1  0.62504054  0.74867711  0.37502392  1
  V  V64  1  0.50631188  0.87222418  0.87131981  1
  V  V65  1  0.87258010  0.11674165  0.24932637  1
  V  V66  1  0.25212081  0.12377473  0.87148957  1
  V  V67  1  0.87634504  0.25952022  0.62370365  1
  V  V68  1  0.74999973  0.13064321  0.87682801  1
  V  V69  1  0.01285920  0.37652409  0.87862217  1
  V  V70  1  0.13164203  0.74481365  0.87385746  1
  V  V71  1  0.37196506  0.50023234  0.37198160  1
  V  V72  1  0.49447332  0.88427687  0.38128512  1
  V  V73  1  0.12346193  0.12350315  -0.00506060  1
  V  V74  1  0.37150770  0.73781858  0.61791432  1
  V  V75  1  0.86463050  0.25556009  0.12276401  1
  V  V76  1  0.63153761  0.62709135  -0.01016026  1
  V  V77  1  0.11376969  0.86920143  0.25041345  1
  V  V78  1  0.24862263  0.62951868  0.38492524  1
  Zn  Zn79  1  0.37213661  0.88336925  0.49872333  1
  Zn  Zn80  1  0.50580172  0.38264286  0.85774133  1
  Zn  Zn81  1  0.26161862  0.74210519  -0.01438375  1
  Zn  Zn82  1  0.62806941  0.88192335  0.25383933  1
  Zn  Zn83  1  0.12751661  0.63414980  0.51127853  1
  Zn  Zn84  1  0.74327978  0.49253222  0.74352236  1
  Zn  Zn85  1  0.24392592  0.85849467  0.60516763  1
  Zn  Zn86  1  0.75717402  0.49313795  0.24645873  1
  Zn  Zn87  1  0.13609086  0.61456050  0.00308439  1
  Zn  Zn88  1  0.12492247  0.74990499  0.38014725  1
  Zn  Zn89  1  0.81504505  0.59061875  0.83532658  1
  Zn  Zn90  1  0.64194176  0.49503372  0.12298870  1
  Zn  Zn91  1  0.50358887  0.24747769  0.25692089  1
  Zn  Zn92  1  0.00811168  0.62066151  0.13678650  1
  Zn  Zn93  1  0.73915676  0.37426711  0.62886687  1
  Zn  Zn94  1  0.18697285  0.19106086  0.18254167  1
  Zn  Zn95  1  0.19080862  0.18490929  0.68415859  1
  Zn  Zn96  1  0.18802167  0.68362300  0.18564203  1
  Zn  Zn97  1  0.18980743  0.68252595  0.69959078  1
  Zn  Zn98  1  0.68622434  0.19009454  0.19318130  1
  Zn  Zn99  1  0.68726793  0.18510923  0.68434932  1
  Zn  Zn100  1  0.69437953  0.68471209  0.18766422  1
  Zn  Zn101  1  0.68387079  0.68239242  0.68656920  1
  Zn  Zn102  1  0.30867410  0.31376220  0.31194586  1
  Zn  Zn103  1  0.31752148  0.31331298  0.81355673  1
  Zn  Zn104  1  0.31390853  0.81007169  0.31013610  1
  Zn  Zn105  1  0.31366543  0.81230505  0.80454875  1
  Zn  Zn106  1  0.81571346  0.30450962  0.31195114  1
  Zn  Zn107  1  0.81515842  0.32271412  0.81239081  1
  Zn  Zn108  1  0.81252915  0.81432733  0.31919549  1
  Zn  Zn109  1  0.81037913  0.81803036  0.81286176  1
  Zn  Zn110  1  0.18763825  0.44568198  0.43882496  1
  Zn  Zn111  1  0.18662500  0.43959400  0.93442111  1
  Zn  Zn112  1  0.18807134  0.93813135  0.43514833  1
  Zn  Zn113  1  0.18539099  0.93020564  0.93355120  1
  Zn  Zn114  1  0.68779620  0.43833464  0.44052757  1
  Zn  Zn115  1  0.69146746  0.44035800  0.93433973  1
  Zn  Zn116  1  0.68351507  0.93945766  0.43962976  1
  Zn  Zn117  1  0.69363721  0.94034578  0.93700599  1
  Zn  Zn118  1  0.31211338  0.05710517  0.06182597  1
  Zn  Zn119  1  0.31225170  0.05866140  0.55067383  1
  Zn  Zn120  1  0.31702340  0.56457652  0.05732886  1
  Zn  Zn121  1  0.31294864  0.56185292  0.57141838  1
  Zn  Zn122  1  0.81378478  0.06367269  0.06142970  1
  Zn  Zn123  1  0.81221766  0.06677334  0.56414827  1
  Zn  Zn124  1  0.81853879  0.56140317  0.06357060  1
  Zn  Zn125  1  0.80419533  0.56109257  0.56531911  1
  Zn  Zn126  1  0.44158176  0.43824647  0.18817497  1
  Zn  Zn127  1  0.43777180  0.43255784  0.68789113  1
  Zn  Zn128  1  0.44144246  0.93776957  0.19000245  1
  Zn  Zn129  1  0.43004130  0.93048665  0.68225941  1
  Zn  Zn130  1  0.93652332  0.43602745  0.19391172  1
  Zn  Zn131  1  0.93462351  0.44405628  0.69657951  1
  Zn  Zn132  1  0.93583207  0.93792587  0.18453761  1
  Zn  Zn133  1  0.93297606  0.93322251  0.68017511  1
  Zn  Zn134  1  0.06074333  0.05918320  0.31152360  1
  Zn  Zn135  1  0.06684255  0.06389913  0.80865125  1
  Zn  Zn136  1  0.06365695  0.55666781  0.31657453  1
  Zn  Zn137  1  0.00803482  0.58241055  0.83546140  1
  Zn  Zn138  1  0.56162118  0.06737879  0.31523607  1
  Zn  Zn139  1  0.55976982  0.06443809  0.80797752  1
  Zn  Zn140  1  0.56159928  0.55514306  0.31540999  1
  Zn  Zn141  1  0.57048854  0.56047116  0.81020766  1
  Zn  Zn142  1  0.42683778  0.19199373  0.43956119  1
  Zn  Zn143  1  0.43926581  0.18820863  0.93435529  1
  Zn  Zn144  1  0.43118071  0.69297069  0.43441158  1
  Zn  Zn145  1  0.44637506  0.68731406  0.93202148  1
  Zn  Zn146  1  0.93719730  0.18735093  0.43948849  1
  Zn  Zn147  1  0.93740876  0.19157426  0.93790594  1
  Zn  Zn148  1  0.93954240  0.68913744  0.44454785  1
  Zn  Zn149  1  0.94432575  0.70330926  0.94633467  1
  Zn  Zn150  1  0.05987553  0.30987632  0.06589732  1
  Zn  Zn151  1  0.06225298  0.31436445  0.57229463  1
  Zn  Zn152  1  0.08065527  0.78454441  0.07701568  1
  Zn  Zn153  1  0.06526269  0.81125169  0.56433515  1
  Zn  Zn154  1  0.56556684  0.31125099  0.06290676  1
  Zn  Zn155  1  0.55729211  0.30716450  0.55831209  1
  Zn  Zn156  1  0.56509143  0.81364742  0.06197305  1
  Zn  Zn157  1  0.56536629  0.81097512  0.56210926  1
  O  O158  1  0.12101019  0.11664452  0.11703148  1
  O  O159  1  0.12005425  0.13026424  0.61042631  1
  O  O160  1  0.10863754  0.66790308  0.10860921  1
  O  O161  1  0.11739655  0.61290037  0.62903269  1
  O  O162  1  0.62259215  0.12296672  0.11845713  1
  O  O163  1  0.62583686  0.11390003  0.61429286  1
  O  O164  1  0.61992181  0.62118301  0.11958270  1
  O  O165  1  0.61937505  0.61548509  0.60855516  1
  O  O166  1  0.37337420  0.38246238  0.37992693  1
  O  O167  1  0.38042764  0.37591655  0.88964084  1
  O  O168  1  0.39213639  0.86606316  0.37151576  1
  O  O169  1  0.38272108  0.88467072  0.88025756  1
  O  O170  1  0.87360871  0.38611797  0.37453894  1
  O  O171  1  0.88845668  0.35793164  0.89377137  1
  O  O172  1  0.88378797  0.88845683  0.37245195  1
  O  O173  1  0.87022155  0.88495063  0.89057791  1
  O  O174  1  0.24133431  0.01410340  0.36013871  1
  O  O175  1  0.25729285  0.00536584  0.87074395  1
  O  O176  1  0.26221378  0.51145893  0.37226696  1
  O  O177  1  0.26709399  0.49491425  0.88123082  1
  O  O178  1  0.76470246  0.00608490  0.38121757  1
  O  O179  1  0.75772539  0.01249744  0.86580244  1
  O  O180  1  0.76476701  0.50649524  0.38169959  1
  O  O181  1  0.73516648  0.51025742  0.86198833  1
  O  O182  1  0.25479479  0.48478947  0.11973070  1
  O  O183  1  0.23759511  0.49111714  0.62704204  1
  O  O184  1  0.24073170  0.99313416  0.13242402  1
  O  O185  1  0.25272737  1.00865719  0.63872127  1
  O  O186  1  0.75496685  0.50044911  0.13259629  1
  O  O187  1  0.73399358  0.49271300  0.61993741  1
  O  O188  1  0.74111534  0.99263546  0.11684472  1
  O  O189  1  0.74895796  1.00530522  0.63771694  1
  O  O190  1  0.01296689  0.36053893  0.24340999  1
  O  O191  1  -0.00546325  0.36299027  0.76384660  1
  O  O192  1  0.01191499  0.87671852  0.24654785  1
  O  O193  1  0.01165142  0.86834040  0.73904727  1
  O  O194  1  0.50613277  0.37324735  0.26089133  1
  O  O195  1  0.49300508  0.35174526  0.74858377  1
  O  O196  1  0.50392627  0.86406702  0.25410534  1
  O  O197  1  0.50733708  0.87656294  0.75576514  1
  O  O198  1  0.48933189  0.12710474  0.24592919  1
  O  O199  1  0.49279720  0.13831401  0.75125763  1
  O  O200  1  0.49834267  0.62850639  0.24419157  1
  O  O201  1  0.50962755  0.64384354  0.75485688  1
  O  O202  1  0.99493259  0.13269892  0.24280837  1
  O  O203  1  0.99637135  0.13633220  0.74634235  1
  O  O204  1  0.98942950  0.62236357  0.25541567  1
  O  O205  1  1.00141010  0.64285152  0.73752983  1
  O  O206  1  0.37038779  0.25547782  0.00699477  1
  O  O207  1  0.36019701  0.25989649  0.51072931  1
  O  O208  1  0.38102599  0.76546207  -0.00806789  1
  O  O209  1  0.38069155  0.75565431  0.51363595  1
  O  O210  1  0.88043733  0.25609242  0.01538360  1
  O  O211  1  0.86677920  0.24069085  0.51512041  1
  O  O212  1  0.86565090  0.76305267  0.00844092  1
  O  O213  1  0.85822643  0.74830427  0.49833614  1
  O  O214  1  0.13329173  0.25141174  0.50536287  1
  O  O215  1  0.13701160  0.23779034  1.00776471  1
  O  O216  1  0.12330052  0.74591307  0.49321623  1
  O  O217  1  0.13102531  0.77061430  0.97621464  1
  O  O218  1  0.63977735  0.23461947  0.51087808  1
  O  O219  1  0.61792055  0.23697157  0.99010932  1
  O  O220  1  0.62884411  0.73790894  0.49082454  1
  O  O221  1  0.63906228  0.74431948  1.00525274  1
  O  O222  1  0.48844015  0.24417187  0.12519192  1
  O  O223  1  0.48269701  0.24969015  0.62905164  1
  O  O224  1  0.50885248  0.73984305  0.13398273  1
  O  O225  1  0.49313862  0.75553008  0.63516017  1
  O  O226  1  0.99542336  0.23734561  0.13402434  1
  O  O227  1  0.99138160  0.24430150  0.63563738  1
  O  O228  1  0.97871646  0.75826009  0.12305587  1
  O  O229  1  0.99910353  0.74083320  0.63217268  1
  O  O230  1  -0.00656699  0.24611393  0.35949430  1
  O  O231  1  0.00262538  0.25149536  0.86317842  1
  O  O232  1  -0.00360283  0.76932358  0.37749585  1
  O  O233  1  0.00969810  0.75834764  0.85923559  1
  O  O234  1  0.48525620  0.26714953  0.37224061  1
  O  O235  1  0.50599825  0.24903041  0.86253467  1
  O  O236  1  0.50945461  0.75329032  0.36577062  1
  O  O237  1  0.49758139  0.76525186  0.86116454  1
  O  O238  1  0.23578180  0.13351488  0.49272042  1
  O  O239  1  0.24439606  0.12889111  0.99416695  1
  O  O240  1  0.24952638  0.61939634  0.48755324  1
  O  O241  1  0.24669591  0.63472432  1.01170441  1
  O  O242  1  0.74404537  0.12999879  0.49391273  1
  O  O243  1  0.74163626  0.12138344  0.98944864  1
  O  O244  1  0.74268767  0.63345566  0.49012156  1
  O  O245  1  0.74845473  0.63948232  1.00496530  1
  O  O246  1  0.25725295  0.36693183  0.00838558  1
  O  O247  1  0.25264616  0.37146244  0.50430887  1
  O  O248  1  0.26056657  0.87410974  0.00655098  1
  O  O249  1  0.25555464  0.87489106  0.49272411  1
  O  O250  1  0.76572511  0.37564245  -0.00407582  1
  O  O251  1  0.74591736  0.35479639  0.49830948  1
  O  O252  1  0.75022076  0.86499836  0.00940041  1
  O  O253  1  0.74040533  0.85976842  0.49506994  1
  O  O254  1  0.11544763  0.48380267  0.24390169  1
  O  O255  1  0.11010826  0.50144543  0.74780456  1
  O  O256  1  0.13151440  0.99273014  0.23912392  1
  O  O257  1  0.13484879  0.98987744  0.75224229  1
  O  O258  1  0.62769851  0.48412005  0.25218976  1
  O  O259  1  0.61523882  0.49765949  0.72755285  1
  O  O260  1  0.62388064  1.00569291  0.23571439  1
  O  O261  1  0.62951030  1.00012301  0.73739643  1
  O  O262  1  0.36426733  0.01196902  0.24074884  1
  O  O263  1  0.36153900  -0.00576835  0.75902599  1
  O  O264  1  0.38166998  0.51393571  0.25578002  1
  O  O265  1  0.38735249  0.49321409  0.77026674  1
  O  O266  1  0.87592601  0.01422770  0.24850610  1
  O  O267  1  0.87067553  0.00906345  0.75728414  1
  O  O268  1  0.87867438  0.50649165  0.26819850  1
  O  O269  1  0.86490828  0.50320633  0.75717096  1
  O  O270  1  0.13634241  0.37808402  0.35851494  1
  O  O271  1  0.11288885  0.36687190  0.88247599  1
  O  O272  1  0.10980306  0.88570125  0.36269494  1
  O  O273  1  0.12795262  0.86895651  0.85531948  1
  O  O274  1  0.60792093  0.37843184  0.37577546  1
  O  O275  1  0.62273677  0.35822843  0.88522010  1
  O  O276  1  0.61801645  0.86594087  0.37140451  1
  O  O277  1  0.61482413  0.88886776  0.86434464  1
  O  O278  1  0.37778514  0.13032555  0.13003888  1
  O  O279  1  0.36056861  0.14116973  0.61746906  1
  O  O280  1  0.38886256  0.61971481  0.13573115  1
  O  O281  1  0.38062944  0.63652334  0.62089921  1
  O  O282  1  0.88122613  0.13164820  0.12873841  1
  O  O283  1  0.88353603  0.13145504  0.63481536  1
  O  O284  1  0.87872656  0.63372459  0.13854038  1
  O  O285  1  0.88527995  0.62042027  0.62454293  1
  O  O286  1  0.26010731  0.25258947  0.11376010  1
  O  O287  1  0.25338211  0.26316177  0.62050451  1
  O  O288  1  0.25229667  0.76749343  0.12908020  1
  O  O289  1  0.26585519  0.74457783  0.63669002  1
  O  O290  1  0.76556605  0.24542808  0.12943659  1
  O  O291  1  0.76224813  0.24765782  0.61844892  1
  O  O292  1  0.75897891  0.75828750  0.11938819  1
  O  O293  1  0.73956616  0.74755045  0.61141463  1
  O  O294  1  0.25050687  0.24178257  0.38318375  1
  O  O295  1  0.25996800  0.23977261  0.88569582  1
  O  O296  1  0.25368045  0.73253617  0.36950691  1
  O  O297  1  0.23844483  0.74835588  0.86423190  1
  O  O298  1  0.76381722  0.23562026  0.39146287  1
  O  O299  1  0.74134571  0.23661582  0.86368150  1
  O  O300  1  0.74069676  0.74354057  0.37984357  1
  O  O301  1  0.75510703  0.75282812  0.89050723  1
  O  O302  1  0.01063947  0.13225355  0.00828736  1
  O  O303  1  0.01208408  0.13144772  0.50730444  1
  O  O304  1  -0.00302116  0.60710895  0.00642830  1
  O  O305  1  0.00129372  0.61960976  0.51567233  1
  O  O306  1  0.50752538  0.12000282  0.00434119  1
  O  O307  1  0.51470163  0.13618390  0.49096893  1
  O  O308  1  0.50924042  0.62134343  0.00823966  1
  O  O309  1  0.51062129  0.62680030  0.48769337  1
  O  O310  1  0.48411706  0.36732370  0.48828191  1
  O  O311  1  0.49284916  0.38362602  1.00598015  1
  O  O312  1  0.50360867  0.87102608  0.48381837  1
  O  O313  1  0.49805362  0.88024481  0.99195854  1
  O  O314  1  1.00277633  0.39097422  0.50984855  1
  O  O315  1  0.99758781  0.37736312  0.99543870  1
  O  O316  1  1.00521751  0.88166342  0.49075205  1
  O  O317  1  0.98624147  0.87091970  1.00558426  1
  O  O318  1  0.48426192  0.48622404  0.37376741  1
  O  O319  1  0.49871837  0.49874257  0.88794623  1
  O  O320  1  0.50514312  0.98313558  0.36572836  1
  O  O321  1  0.49221227  0.99571073  0.87681274  1
  O  O322  1  0.98985264  0.50371878  0.39038779  1
  O  O323  1  0.99992114  0.47997339  0.88719029  1
  O  O324  1  0.98604510  0.99276887  0.37059295  1
  O  O325  1  0.98644219  1.00837437  0.87032172  1
  O  O326  1  0.00975958  0.01211390  0.13001729  1
  O  O327  1  -0.00071092  0.01652723  0.63514547  1
  O  O328  1  -0.00040317  0.49747307  0.11799157  1
  O  O329  1  0.00776847  0.50689675  0.62266725  1
  O  O330  1  0.50963027  0.00573740  0.11887227  1
  O  O331  1  0.50435134  0.00572801  0.62965046  1
  O  O332  1  0.50259829  0.50883271  0.11468146  1
  O  O333  1  0.50338450  0.49349205  0.61591888  1
  O  O334  1  0.23966861  0.36789266  0.23567399  1
  O  O335  1  0.25031042  0.37228377  0.74038601  1
  O  O336  1  0.24643532  0.88406750  0.24633673  1
  O  O337  1  0.24356902  0.88899738  0.74659447  1
  O  O338  1  0.73409434  0.37169088  0.26575078  1
  O  O339  1  0.74764664  0.37563883  0.74347259  1
  O  O340  1  0.74920552  0.87108529  0.23634105  1
  O  O341  1  0.73691185  0.88704914  0.75898088  1
  O  O342  1  0.25152929  0.12140630  0.25307911  1
  O  O343  1  0.23910449  0.11264159  0.76180848  1
  O  O344  1  0.26578917  0.62667882  0.24739826  1
  O  O345  1  0.24280869  0.59419674  0.74224454  1
  O  O346  1  0.76005146  0.13510108  0.26517150  1
  O  O347  1  0.75921486  0.11917308  0.75487460  1
  O  O348  1  0.75926115  0.62186101  0.26532820  1
  O  O349  1  0.74094995  0.61469145  0.75103217  1
  O  O350  1  0.36093843  0.13086479  0.36325087  1
  O  O351  1  0.36512834  0.11331416  0.88253403  1
  O  O352  1  0.36807375  0.61960436  0.36543464  1
  O  O353  1  0.37777616  0.61471640  0.87958174  1
  O  O354  1  0.87289262  0.11263467  0.37076170  1
  O  O355  1  0.86944460  0.12293364  0.86976147  1
  O  O356  1  0.86974069  0.62342415  0.37247391  1
  O  O357  1  0.90825894  0.62647904  0.87559267  1
  O  O358  1  0.13902977  0.36950932  0.12719100  1
  O  O359  1  0.13397814  0.38894430  0.62822956  1
  O  O360  1  0.13213666  0.87858563  0.13440417  1
  O  O361  1  0.13260464  0.86822188  0.63981934  1
  O  O362  1  0.62153893  0.37454731  0.14037935  1
  O  O363  1  0.62068449  0.38689631  0.60705620  1
  O  O364  1  0.63075454  0.88567441  0.12631246  1
  O  O365  1  0.61819944  0.89293624  0.63146313  1
  O  O366  1  0.11468092  0.25140622  0.24856602  1
  O  O367  1  0.11283418  0.24885606  0.74349239  1
  O  O368  1  0.13230474  0.76789515  0.25794183  1
  O  O369  1  0.11985816  0.75931710  0.75622234  1
  O  O370  1  0.62068101  0.26207908  0.25311342  1
  O  O371  1  0.61229411  0.24192822  0.75273253  1
  O  O372  1  0.61932519  0.74625659  0.25968647  1
  O  O373  1  0.61424434  0.76687102  0.73816381  1
  O  O374  1  0.36998727  0.24089311  0.23910990  1
  O  O375  1  0.37606079  0.24811186  0.73610491  1
  O  O376  1  0.38927751  0.73365702  0.25423000  1
  O  O377  1  0.39030593  0.75546573  0.74069701  1
  O  O378  1  0.88633350  0.24271030  0.23989191  1
  O  O379  1  0.87974699  0.24043808  0.74206839  1
  O  O380  1  0.86764311  0.74144840  0.24649805  1
  O  O381  1  0.88851607  0.76428810  0.75147448  1
  O  O382  1  0.36695972  0.48931412  0.49338535  1
  O  O383  1  0.38610807  0.49368784  0.99373126  1
  O  O384  1  0.37472647  0.99708557  0.48720182  1
  O  O385  1  0.38156237  0.99202084  0.99125041  1
  O  O386  1  0.88491711  0.50346933  0.49273983  1
  O  O387  1  0.88773805  0.48178144  1.00620633  1
  O  O388  1  0.88064086  1.00530810  0.49312255  1
  O  O389  1  0.87331228  0.98957706  0.99536254  1
  O  O390  1  0.13217178  0.00547348  0.00987003  1
  O  O391  1  0.12495810  0.01241957  0.50111338  1
  O  O392  1  0.11064270  0.49764473  -0.00013467  1
  O  O393  1  0.11079443  0.50912434  0.49915421  1
  O  O394  1  0.62134506  0.01123419  0.00560074  1
  O  O395  1  0.62444909  0.00958707  0.51290490  1
  O  O396  1  0.61949898  0.50660546  0.00293286  1
  O  O397  1  0.62339841  0.51264855  0.49990508  1
  O  O398  1  0.36757700  0.36817352  0.11958641  1
  O  O399  1  0.35840849  0.37464484  0.61819682  1
  O  O400  1  0.36985870  0.88567017  0.11414680  1
  O  O401  1  0.36577518  0.86536702  0.61888099  1
  O  O402  1  0.88077873  0.36089915  0.12043889  1
  O  O403  1  0.88116838  0.35970987  0.62808455  1
  O  O404  1  0.86672840  0.87505977  0.11587302  1
  O  O405  1  0.86000062  0.87904585  0.61997124  1
  O  O406  1  0.12781897  0.12350191  0.38591620  1
  O  O407  1  0.13555949  0.11688355  0.88673869  1
  O  O408  1  0.14313860  0.62286808  0.36577124  1
  O  O409  1  0.10915216  0.64278129  0.88171777  1
  O  O410  1  0.63594320  0.11476110  0.38949354  1
  O  O411  1  0.63084137  0.12952509  0.87999738  1
  O  O412  1  0.63220927  0.62802250  0.38015999  1
  O  O413  1  0.61827236  0.62837576  0.89130300  1
