# generated using pymatgen
data_V79Zn79O256
_symmetry_space_group_name_H-M   'P 1'
_cell_length_a   16.90227482
_cell_length_b   16.90965537
_cell_length_c   16.89265836
_cell_angle_alpha   90.09585596
_cell_angle_beta   89.78138315
_cell_angle_gamma   90.12361943
_symmetry_Int_Tables_number   1
_chemical_formula_structural   V79Zn79O256
_chemical_formula_sum   'V79 Zn79 O256'
_cell_volume   4828.06535209
_cell_formula_units_Z   1
loop_
 _symmetry_equiv_pos_site_id
 _symmetry_equiv_pos_as_xyz
  1  'x, y, z'
loop_
 _atom_site_type_symbol
 _atom_site_label
 _atom_site_symmetry_multiplicity
 _atom_site_fract_x
 _atom_site_fract_y
 _atom_site_fract_z
 _atom_site_occupancy
  V  V0  1  0.86512416  0.88454233  -0.00385484  1
  V  V1  1  0.61807766  0.87118228  0.76767721  1
  V  V2  1  0.12627368  -0.00041443  0.12113584  1
  V  V3  1  0.12151270  0.11690956  0.50958623  1
  V  V4  1  -0.01258610  0.74871378  0.74352724  1
  V  V5  1  0.37685165  -0.00418273  0.87663378  1
  V  V6  1  -0.01429456  0.62684234  0.62951569  1
  V  V7  1  0.75626649  0.11943706  0.36518643  1
  V  V8  1  0.50422983  0.38064579  0.37643991  1
  V  V9  1  0.36951596  0.12449810  0.25815848  1
  V  V10  1  0.25447413  0.25429413  0.00362009  1
  V  V11  1  0.49944390  0.12627133  0.12171670  1
  V  V12  1  0.74515285  0.52249036  0.75544004  1
  V  V13  1  0.87602196  0.51271274  0.87035841  1
  V  V14  1  0.62354479  0.12231696  0.49460698  1
  V  V15  1  0.87734542  0.36999739  0.50389751  1
  V  V16  1  0.50661706  0.64315516  0.12379060  1
  V  V17  1  0.49883365  -0.01160918  0.49213987  1
  V  V18  1  0.12439585  0.74536035  0.88140133  1
  V  V19  1  0.75937571  0.86633092  0.62105088  1
  V  V20  1  0.38363859  0.63963518  0.24964553  1
  V  V21  1  -0.01139450  0.00304402  0.50377427  1
  V  V22  1  0.37337513  0.12246489  0.74774331  1
  V  V23  1  0.87907095  0.62726841  0.24209739  1
  V  V24  1  0.00055722  0.87931877  0.87545682  1
  V  V25  1  0.50172252  0.00460860  -0.00249970  1
  V  V26  1  0.25376162  0.86474620  0.12448195  1
  V  V27  1  0.87533809  0.49941089  0.37306046  1
  V  V28  1  0.87155960  0.76297274  0.12899629  1
  V  V29  1  0.50005436  0.12356206  0.62330655  1
  V  V30  1  0.00772823  0.37267310  0.36493428  1
  V  V31  1  0.12738118  0.24190881  0.36741802  1
  V  V32  1  0.75299169  0.24864478  0.49957197  1
  V  V33  1  0.61753789  0.51249713  0.61502470  1
  V  V34  1  0.62166242  0.23365154  0.87217118  1
  V  V35  1  0.11782316  0.25244251  0.87253829  1
  V  V36  1  0.24715951  0.12511253  0.88197258  1
  V  V37  1  0.00425438  0.00013422  0.00362846  1
  V  V38  1  0.50224467  0.25327739  0.24941884  1
  V  V39  1  0.36526281  0.87131158  0.51402471  1
  V  V40  1  0.62701364  -0.00472630  0.62281790  1
  V  V41  1  0.88964052  0.23852760  0.63609250  1
  V  V42  1  0.62104050  0.48445387  0.12200299  1
  V  V43  1  0.74094367  0.25378476  0.00229773  1
  V  V44  1  0.74411009  0.37178005  0.64039857  1
  V  V45  1  0.11708351  0.36943837  0.74876158  1
  V  V46  1  0.87551561  0.37936616  0.00025159  1
  V  V47  1  0.12796949  0.50633219  0.11004388  1
  V  V48  1  0.74439267  0.48801876  0.24507002  1
  V  V49  1  0.00535506  0.50537612  0.50049165  1
  V  V50  1  0.24982925  0.37074844  0.62420478  1
  V  V51  1  -0.00330515  0.87393873  0.37177142  1
  V  V52  1  0.50682877  0.37417878  0.86845854  1
  V  V53  1  0.50481528  0.24999585  0.74667197  1
  V  V54  1  0.37957251  0.86312185  -0.00154513  1
  V  V55  1  0.12187828  0.86506651  0.24784514  1
  V  V56  1  0.87214090  0.85740043  0.49803022  1
  V  V57  1  0.12393353  0.74167920  0.37638144  1
  V  V58  1  0.77339014  0.12424458  0.87624961  1
  V  V59  1  0.38099404  0.37789879  0.49951302  1
  V  V60  1  0.36681070  -0.00877100  0.37120649  1
  V  V61  1  0.24675015  -0.00312212  0.73961323  1
  V  V62  1  0.62483033  0.25358764  0.37054450  1
  V  V63  1  0.24402264  0.74672858  0.51263574  1
  V  V64  1  0.38295699  0.50254352  0.87014359  1
  V  V65  1  0.12379050  0.50705562  0.62338635  1
  V  V66  1  0.48614350  0.74570064  0.74404252  1
  V  V67  1  0.38007532  0.38120787  0.00423707  1
  V  V68  1  0.62523677  -0.00638389  0.12917240  1
  V  V69  1  0.74631504  0.63055754  0.38649128  1
  V  V70  1  0.75491267  -0.00908385  0.24810326  1
  V  V71  1  0.61191436  0.74874322  0.38611786  1
  V  V72  1  0.24895262  0.24350503  0.49541623  1
  V  V73  1  0.74319012  0.74211423  -0.00892793  1
  V  V74  1  0.12974700  0.87931087  0.74067026  1
  V  V75  1  0.37537954  0.50065952  0.37149188  1
  V  V76  1  0.25078256  0.50101266  0.74823806  1
  V  V77  1  0.76077458  0.00641472  0.75114238  1
  V  V78  1  0.25053568  0.62523856  0.87915529  1
  Zn  Zn79  1  0.14125301  0.37456788  0.23490852  1
  Zn  Zn80  1  0.24787210  0.00109581  0.24973002  1
  Zn  Zn81  1  -0.00471733  0.37680463  0.87030997  1
  Zn  Zn82  1  0.00500977  0.62702971  0.10452230  1
  Zn  Zn83  1  0.84011508  0.26867580  0.14644610  1
  Zn  Zn84  1  0.25625134  0.49502750  0.23521912  1
  Zn  Zn85  1  0.24544548  0.62170179  0.37231468  1
  Zn  Zn86  1  0.60357301  0.85160537  0.25290433  1
  Zn  Zn87  1  0.09294338  0.16278138  0.03920644  1
  Zn  Zn88  1  0.36963189  0.25797626  0.13156774  1
  Zn  Zn89  1  0.62622909  0.61406351  -0.00749029  1
  Zn  Zn90  1  0.37719662  0.62891392  0.73119883  1
  Zn  Zn91  1  0.37640432  0.24767978  0.62238743  1
  Zn  Zn92  1  -0.03790413  0.17830132  0.19534820  1
  Zn  Zn93  1  0.24869612  0.74304731  0.00413951  1
  Zn  Zn94  1  0.19077893  0.18892438  0.18946487  1
  Zn  Zn95  1  0.18315296  0.18219781  0.68909358  1
  Zn  Zn96  1  0.19292911  0.67726261  0.18957720  1
  Zn  Zn97  1  0.17904956  0.68650511  0.69773212  1
  Zn  Zn98  1  0.68097802  0.17949638  0.18637537  1
  Zn  Zn99  1  0.69241432  0.18548022  0.68627044  1
  Zn  Zn100  1  0.69110418  0.68378923  0.19099376  1
  Zn  Zn101  1  0.67857639  0.69179598  0.68526891  1
  Zn  Zn102  1  0.31331176  0.31565446  0.31118923  1
  Zn  Zn103  1  0.31580758  0.31087295  0.81299186  1
  Zn  Zn104  1  0.30901276  0.81405491  0.31718674  1
  Zn  Zn105  1  0.31487878  0.80972853  0.80994822  1
  Zn  Zn106  1  0.81874215  0.30710467  0.31522248  1
  Zn  Zn107  1  0.81801845  0.30803014  0.81733552  1
  Zn  Zn108  1  0.80520991  0.81182640  0.31293478  1
  Zn  Zn109  1  0.80720019  0.82020722  0.81179527  1
  Zn  Zn110  1  0.19065910  0.43591766  0.43627212  1
  Zn  Zn111  1  0.19323223  0.43418055  0.93748688  1
  Zn  Zn112  1  0.18604029  0.93272847  0.43755729  1
  Zn  Zn113  1  0.19036713  0.93141376  0.93515867  1
  Zn  Zn114  1  0.69066292  0.43867360  0.44013430  1
  Zn  Zn115  1  0.68627103  0.43637724  0.93230465  1
  Zn  Zn116  1  0.68802980  0.92982672  0.43235208  1
  Zn  Zn117  1  0.68794153  0.94861751  0.94016307  1
  Zn  Zn118  1  0.31349479  0.06031248  0.06630212  1
  Zn  Zn119  1  0.31135776  0.06206202  0.55795054  1
  Zn  Zn120  1  0.32320651  0.56555553  0.06381728  1
  Zn  Zn121  1  0.30361268  0.55829072  0.54997930  1
  Zn  Zn122  1  0.81278841  0.06961684  0.07065783  1
  Zn  Zn123  1  0.81405268  0.06126137  0.55975514  1
  Zn  Zn124  1  0.80604107  0.56083468  0.05971083  1
  Zn  Zn125  1  0.80958191  0.55602134  0.56583745  1
  Zn  Zn126  1  0.44428578  0.44259441  0.19004538  1
  Zn  Zn127  1  0.43971288  0.43628351  0.68568873  1
  Zn  Zn128  1  0.43805906  0.92915414  0.18335368  1
  Zn  Zn129  1  0.43844287  0.93609966  0.68617297  1
  Zn  Zn130  1  0.94286789  0.44134535  0.17835890  1
  Zn  Zn131  1  0.93170733  0.44042602  0.69003474  1
  Zn  Zn132  1  0.94071754  0.94269352  0.18939948  1
  Zn  Zn133  1  0.96926202  0.98725168  0.70937867  1
  Zn  Zn134  1  0.07168883  0.05022587  0.31363502  1
  Zn  Zn135  1  0.06102804  0.07145100  0.82306263  1
  Zn  Zn136  1  0.06453253  0.55871590  0.29830519  1
  Zn  Zn137  1  0.05772112  0.56449903  0.93133238  1
  Zn  Zn138  1  0.55614856  0.05558020  0.30733733  1
  Zn  Zn139  1  0.56233080  0.05715490  0.80814448  1
  Zn  Zn140  1  0.56580429  0.56824034  0.30956230  1
  Zn  Zn141  1  0.56727374  0.56688533  0.80313798  1
  Zn  Zn142  1  0.43691755  0.18608699  0.43506067  1
  Zn  Zn143  1  0.43330066  0.18763472  0.93581504  1
  Zn  Zn144  1  0.43209079  0.68352893  0.45164931  1
  Zn  Zn145  1  0.47622693  0.67758677  0.91702201  1
  Zn  Zn146  1  0.95979928  0.16061598  0.38423668  1
  Zn  Zn147  1  0.93236243  0.18767316  1.02093089  1
  Zn  Zn148  1  0.93962953  0.68412493  0.43499593  1
  Zn  Zn149  1  0.92596639  0.69776742  0.93327762  1
  Zn  Zn150  1  0.05865918  0.32783129  0.06229712  1
  Zn  Zn151  1  0.06284289  0.31090483  0.55706388  1
  Zn  Zn152  1  0.05540737  0.80827721  0.06409396  1
  Zn  Zn153  1  0.05943639  0.81459693  0.56171215  1
  Zn  Zn154  1  0.55978809  0.31072058  0.05721817  1
  Zn  Zn155  1  0.56628206  0.31421044  0.56215797  1
  Zn  Zn156  1  0.56206520  0.81809867  0.05864007  1
  Zn  Zn157  1  0.56517599  0.80555160  0.55794963  1
  O  O158  1  0.13867928  0.10519702  0.12706704  1
  O  O159  1  0.11966646  0.13042466  0.60872903  1
  O  O160  1  0.12157629  0.61663478  0.12675112  1
  O  O161  1  0.11336688  0.61023102  0.63586159  1
  O  O162  1  0.60643106  0.11521020  0.12693589  1
  O  O163  1  0.62356025  0.11490559  0.61425545  1
  O  O164  1  0.61608279  0.62164268  0.12254696  1
  O  O165  1  0.62972623  0.61282172  0.62160623  1
  O  O166  1  0.38482370  0.38003217  0.38152399  1
  O  O167  1  0.38338255  0.38234126  0.87717374  1
  O  O168  1  0.37323151  0.88766659  0.38276987  1
  O  O169  1  0.36513655  0.88712601  0.88661875  1
  O  O170  1  0.88815850  0.38074161  0.38301358  1
  O  O171  1  0.87386621  0.38257747  0.88100926  1
  O  O172  1  0.88180498  0.86622066  0.38550977  1
  O  O173  1  0.88314815  0.87608110  0.88947623  1
  O  O174  1  0.26285179  -0.00184979  0.37452605  1
  O  O175  1  0.25712419  0.00822303  0.87231137  1
  O  O176  1  0.26414377  0.50254506  0.37916703  1
  O  O177  1  0.25896330  0.50484333  0.86467465  1
  O  O178  1  0.73939786  0.01095265  0.36166567  1
  O  O179  1  0.74843614  0.01394062  0.86410191  1
  O  O180  1  0.75955132  0.50318078  0.36780837  1
  O  O181  1  0.74961285  0.49968379  0.85955787  1
  O  O182  1  0.23691990  0.51107178  0.11710772  1
  O  O183  1  0.24396037  0.49252622  0.62591689  1
  O  O184  1  0.24307788  0.98420397  0.12349282  1
  O  O185  1  0.25233413  1.00642468  0.64038762  1
  O  O186  1  0.74199487  0.50230219  0.13939246  1
  O  O187  1  0.74869501  0.48806323  0.63765595  1
  O  O188  1  0.73349106  1.01045844  0.13286326  1
  O  O189  1  0.74445977  0.99887295  0.63333571  1
  O  O190  1  0.00381787  0.38318081  0.26487096  1
  O  O191  1  0.01448831  0.38189113  0.74804993  1
  O  O192  1  0.00884086  0.87842672  0.25836321  1
  O  O193  1  0.01174932  0.87907024  0.75766406  1
  O  O194  1  0.49401636  0.36094149  0.26038954  1
  O  O195  1  0.49215837  0.35762412  0.75462572  1
  O  O196  1  0.50554225  0.90154108  0.26263064  1
  O  O197  1  0.51657665  0.88550300  0.75021262  1
  O  O198  1  0.49151136  0.13378276  0.24505658  1
  O  O199  1  0.49395046  0.12783226  0.74245739  1
  O  O200  1  0.49162831  0.62402228  0.24273206  1
  O  O201  1  0.49655607  0.64055479  0.74275792  1
  O  O202  1  0.99223510  0.11908502  0.28264962  1
  O  O203  1  0.99423908  0.09164396  0.73997577  1
  O  O204  1  0.97939739  0.62318945  0.25552107  1
  O  O205  1  0.99337317  0.64658263  0.74537075  1
  O  O206  1  0.37112869  0.26152297  0.00084735  1
  O  O207  1  0.36578219  0.25613427  0.49745918  1
  O  O208  1  0.38251976  0.76472797  -0.01091659  1
  O  O209  1  0.36031482  0.76490835  0.49672767  1
  O  O210  1  0.85544195  0.26614902  -0.00716793  1
  O  O211  1  0.87092916  0.26203305  0.50797128  1
  O  O212  1  0.86349567  0.76573625  0.00847425  1
  O  O213  1  0.87904385  0.75887411  0.50215283  1
  O  O214  1  0.13062800  0.24153485  0.49135714  1
  O  O215  1  0.14019468  0.25764445  0.98940200  1
  O  O216  1  0.13424561  0.75952568  0.48880575  1
  O  O217  1  0.12592724  0.75700584  0.98542250  1
  O  O218  1  0.63008236  0.23992333  0.49202853  1
  O  O219  1  0.63298993  0.25155389  0.98643591  1
  O  O220  1  0.63115859  0.74762081  0.48786916  1
  O  O221  1  0.64368209  0.76065434  1.00569217  1
  O  O222  1  0.49829582  0.24403087  0.13266948  1
  O  O223  1  0.50196426  0.24280157  0.63014917  1
  O  O224  1  0.51021892  0.74338546  0.13069181  1
  O  O225  1  0.50610014  0.76971854  0.64417575  1
  O  O226  1  1.01533888  0.22983238  0.10111487  1
  O  O227  1  0.98838888  0.25519389  0.62095935  1
  O  O228  1  0.97697642  0.74350469  0.11977830  1
  O  O229  1  1.00582828  0.74233791  0.63439524  1
  O  O230  1  0.01510832  0.26456305  0.38194043  1
  O  O231  1  0.01907968  0.25156929  0.88163717  1
  O  O232  1  0.01400593  0.75964164  0.38446346  1
  O  O233  1  0.00381609  0.76039538  0.86318271  1
  O  O234  1  0.50694731  0.25542844  0.36891241  1
  O  O235  1  0.50421435  0.25113394  0.86592048  1
  O  O236  1  0.51218047  0.73167304  0.38656311  1
  O  O237  1  0.48869265  0.76641634  0.84685396  1
  O  O238  1  0.23931554  0.13485183  0.50288759  1
  O  O239  1  0.26034046  0.13450465  0.99044698  1
  O  O240  1  0.25554104  0.64219796  0.49023542  1
  O  O241  1  0.26609790  0.62847137  0.98290663  1
  O  O242  1  0.73671495  0.12450909  0.49045238  1
  O  O243  1  0.75820515  0.13623049  0.98434796  1
  O  O244  1  0.75964140  0.61438045  0.48464099  1
  O  O245  1  0.74559744  0.63770901  0.99875571  1
  O  O246  1  0.26941648  0.36574225  -0.00959725  1
  O  O247  1  0.25703396  0.36660381  0.50768533  1
  O  O248  1  0.26187161  0.86896128  0.00525943  1
  O  O249  1  0.25714791  0.86693704  0.50010481  1
  O  O250  1  0.75124349  0.35866280  -0.01012908  1
  O  O251  1  0.76196191  0.36933877  0.50274849  1
  O  O252  1  0.76287517  0.88062244  -0.00171334  1
  O  O253  1  0.76352771  0.88205829  0.50673347  1
  O  O254  1  0.13519538  0.49695612  0.23877443  1
  O  O255  1  0.14201776  0.48581933  0.73907342  1
  O  O256  1  0.12996924  0.98473224  0.24085938  1
  O  O257  1  0.13403227  0.98658531  0.75995551  1
  O  O258  1  0.63849901  0.50073730  0.24451927  1
  O  O259  1  0.64053892  0.50340230  0.73959723  1
  O  O260  1  0.63210620  1.00633456  0.23761346  1
  O  O261  1  0.63240896  0.99309184  0.73934083  1
  O  O262  1  0.37420334  0.00447488  0.26129161  1
  O  O263  1  0.36845046  0.00160874  0.75807893  1
  O  O264  1  0.37690395  0.50390035  0.26085859  1
  O  O265  1  0.36439482  0.49978791  0.74959929  1
  O  O266  1  0.85442343  -0.00055428  0.23688146  1
  O  O267  1  0.85730680  -0.01161802  0.74504530  1
  O  O268  1  0.86978078  0.50521668  0.25603825  1
  O  O269  1  0.85913516  0.49659948  0.76026187  1
  O  O270  1  0.11528349  0.37028174  0.37770382  1
  O  O271  1  0.12747147  0.36982342  0.86427627  1
  O  O272  1  0.11952740  0.86605940  0.36609900  1
  O  O273  1  0.11824533  0.86514545  0.86981648  1
  O  O274  1  0.61900763  0.36163391  0.38470808  1
  O  O275  1  0.61143132  0.36373727  0.87578444  1
  O  O276  1  0.62608009  0.85532709  0.37606762  1
  O  O277  1  0.62998158  0.88412741  0.86570985  1
  O  O278  1  0.38478545  0.12286833  0.13718057  1
  O  O279  1  0.38211833  0.12423322  0.62825045  1
  O  O280  1  0.38766275  0.62283503  0.14154722  1
  O  O281  1  0.38741445  0.62117420  0.60414012  1
  O  O282  1  0.87482900  0.15104954  0.11685380  1
  O  O283  1  0.86927711  0.14080637  0.61758203  1
  O  O284  1  0.87371280  0.62194984  0.13664883  1
  O  O285  1  0.88643281  0.61783069  0.62457591  1
  O  O286  1  0.25252645  0.24562886  0.10956553  1
  O  O287  1  0.24952385  0.25732332  0.61616669  1
  O  O288  1  0.24461944  0.75957451  0.12258231  1
  O  O289  1  0.23598150  0.74201443  0.61165335  1
  O  O290  1  0.73278267  0.24580361  0.10659686  1
  O  O291  1  0.75434636  0.25951142  0.61955338  1
  O  O292  1  0.76586759  0.74360711  0.11534658  1
  O  O293  1  0.74663631  0.76893825  0.62936818  1
  O  O294  1  0.23670824  0.26106974  0.38542299  1
  O  O295  1  0.25015602  0.24215361  0.88169396  1
  O  O296  1  0.23532096  0.74982095  0.38217816  1
  O  O297  1  0.24254145  0.74065148  0.87165394  1
  O  O298  1  0.74229732  0.24054468  0.37766592  1
  O  O299  1  0.74144383  0.23612626  0.87411016  1
  O  O300  1  0.75696899  0.73204632  0.37900325  1
  O  O301  1  0.75871950  0.75623482  0.89167701  1
  O  O302  1  0.00518980  0.10414270  -0.01350785  1
  O  O303  1  0.01022871  0.11097560  0.48515772  1
  O  O304  1  -0.00463997  0.63468866  -0.00822146  1
  O  O305  1  -0.00336770  0.61137953  0.50736650  1
  O  O306  1  0.48874551  0.11661713  0.00900306  1
  O  O307  1  0.50875431  0.11848658  0.50273857  1
  O  O308  1  0.48869074  0.62909983  0.02366293  1
  O  O309  1  0.45302822  0.63266062  0.55916850  1
  O  O310  1  0.49039685  0.36374530  0.49020148  1
  O  O311  1  0.48745046  0.36696230  0.98335496  1
  O  O312  1  0.48469678  0.88241021  0.50506062  1
  O  O313  1  0.48637173  0.88806635  1.00480315  1
  O  O314  1  0.99463215  0.38612420  0.49455557  1
  O  O315  1  0.97960979  0.37404883  0.99144933  1
  O  O316  1  0.98700726  0.87931377  0.49544613  1
  O  O317  1  0.99002409  0.87914852  0.99460733  1
  O  O318  1  0.49794314  0.48609802  0.36799138  1
  O  O319  1  0.49058325  0.48610572  0.85427684  1
  O  O320  1  0.48976054  1.00515775  0.38784146  1
  O  O321  1  0.48777719  1.00889106  0.88346507  1
  O  O322  1  0.99637467  0.49280071  0.38100269  1
  O  O323  1  0.98005688  0.49885298  0.87151725  1
  O  O324  1  1.01172928  0.97987711  0.38921947  1
  O  O325  1  1.01041831  0.98491835  0.88750331  1
  O  O326  1  0.01303343  -0.00542279  0.11686727  1
  O  O327  1  0.00599810  -0.00854156  0.60077257  1
  O  O328  1  0.01579347  0.50976061  0.12535230  1
  O  O329  1  0.00429509  0.50485375  0.62018155  1
  O  O330  1  0.50519403  0.00734156  0.11759192  1
  O  O331  1  0.50872302  0.00419797  0.61416740  1
  O  O332  1  0.51914346  0.50763188  0.13321140  1
  O  O333  1  0.51914866  0.49252699  0.63176349  1
  O  O334  1  0.25566133  0.37898803  0.24312220  1
  O  O335  1  0.25053353  0.37922962  0.73856731  1
  O  O336  1  0.24227466  0.87457704  0.24131557  1
  O  O337  1  0.23829573  0.88133917  0.75678459  1
  O  O338  1  0.75724858  0.38913251  0.25773342  1
  O  O339  1  0.74792549  0.36835133  0.73991769  1
  O  O340  1  0.74247085  0.88989752  0.25613630  1
  O  O341  1  0.73880146  0.88619272  0.73972261  1
  O  O342  1  0.26486164  0.12208493  0.24660112  1
  O  O343  1  0.25364090  0.11744650  0.75855096  1
  O  O344  1  0.27005084  0.61968806  0.25492976  1
  O  O345  1  0.25579182  0.61589598  0.75347584  1
  O  O346  1  0.74796518  0.12211877  0.26098618  1
  O  O347  1  0.74934565  0.11385963  0.75707410  1
  O  O348  1  0.76312926  0.61140420  0.26164334  1
  O  O349  1  0.75009233  0.62115770  0.74709419  1
  O  O350  1  0.38011956  0.11238768  0.36740218  1
  O  O351  1  0.36668331  0.11688447  0.86755726  1
  O  O352  1  0.38490431  0.61276974  0.36936136  1
  O  O353  1  0.37437760  0.61106864  0.86776090  1
  O  O354  1  0.85195442  0.12704945  0.38700374  1
  O  O355  1  0.86856933  0.12867665  0.87018040  1
  O  O356  1  0.87133958  0.61490649  0.36806286  1
  O  O357  1  0.86903002  0.61128556  0.87869561  1
  O  O358  1  0.12226242  0.39572125  0.12195048  1
  O  O359  1  0.13395586  0.37881862  0.62872404  1
  O  O360  1  0.12943544  0.87500331  0.13147242  1
  O  O361  1  0.12173521  0.87197617  0.64196370  1
  O  O362  1  0.61760172  0.38439024  0.12449216  1
  O  O363  1  0.64232370  0.37774015  0.62014023  1
  O  O364  1  0.61877771  0.89127005  0.13194615  1
  O  O365  1  0.63872234  0.88835911  0.61552761  1
  O  O366  1  0.13107680  0.25364158  0.26368906  1
  O  O367  1  0.13558854  0.26061177  0.75807692  1
  O  O368  1  0.13050453  0.75683535  0.26165442  1
  O  O369  1  0.11655582  0.76255024  0.75999152  1
  O  O370  1  0.61486883  0.24269918  0.26052859  1
  O  O371  1  0.61290550  0.23999795  0.75460055  1
  O  O372  1  0.63700194  0.74447553  0.27103121  1
  O  O373  1  0.62277523  0.76886585  0.75094705  1
  O  O374  1  0.38347409  0.24137735  0.25190436  1
  O  O375  1  0.38417147  0.23965603  0.74698509  1
  O  O376  1  0.37612222  0.73810804  0.26197898  1
  O  O377  1  0.37805221  0.74961322  0.73741282  1
  O  O378  1  0.89120974  0.26145507  0.24502636  1
  O  O379  1  0.87392111  0.25296353  0.73507410  1
  O  O380  1  0.86478399  0.73963445  0.23877527  1
  O  O381  1  0.89034140  0.76961286  0.75026421  1
  O  O382  1  0.37344571  0.48483132  0.49060484  1
  O  O383  1  0.37354815  0.48784239  0.98634430  1
  O  O384  1  0.37716297  0.99202183  0.49126449  1
  O  O385  1  0.38147713  0.99571186  0.99265842  1
  O  O386  1  0.88273894  0.49077360  0.49160812  1
  O  O387  1  0.85415932  0.48653126  0.98431207  1
  O  O388  1  0.88571832  0.99653942  0.49613970  1
  O  O389  1  0.88437411  0.98858778  1.01484435  1
  O  O390  1  0.11835727  -0.01321628  0.01009502  1
  O  O391  1  0.12736662  0.01416864  0.49441973  1
  O  O392  1  0.12578523  0.50052982  0.00096102  1
  O  O393  1  0.11783723  0.49226103  0.51161547  1
  O  O394  1  0.61314790  -0.00331991  0.01292829  1
  O  O395  1  0.61898391  0.00403177  0.50096849  1
  O  O396  1  0.63926877  0.49899986  0.01788268  1
  O  O397  1  0.63055790  0.49619719  0.51495033  1
  O  O398  1  0.38718206  0.37951597  0.10767921  1
  O  O399  1  0.36695442  0.37253457  0.61622493  1
  O  O400  1  0.36638542  0.87892061  0.11041282  1
  O  O401  1  0.36832149  0.88329623  0.61281382  1
  O  O402  1  0.87324419  0.37879194  0.10733847  1
  O  O403  1  0.86425680  0.37253281  0.61948480  1
  O  O404  1  0.87726484  0.86693970  0.11972288  1
  O  O405  1  0.86342911  0.87706175  0.61119287  1
  O  O406  1  0.12741051  0.13941468  0.38083071  1
  O  O407  1  0.13881322  0.13513349  0.87538425  1
  O  O408  1  0.12017444  0.63877729  0.36822521  1
  O  O409  1  0.13864617  0.63176683  0.87126705  1
  O  O410  1  0.62724519  0.13222359  0.38045917  1
  O  O411  1  0.62234844  0.13174273  0.87434922  1
  O  O412  1  0.64039974  0.62756246  0.37522622  1
  O  O413  1  0.58170206  0.63194245  0.89244674  1
