# generated using pymatgen
data_V79Zn79O256
_symmetry_space_group_name_H-M   'P 1'
_cell_length_a   16.91131882
_cell_length_b   16.89009023
_cell_length_c   16.88581179
_cell_angle_alpha   90.07635790
_cell_angle_beta   90.02148155
_cell_angle_gamma   90.23368098
_symmetry_Int_Tables_number   1
_chemical_formula_structural   V79Zn79O256
_chemical_formula_sum   'V79 Zn79 O256'
_cell_volume   4823.11216517
_cell_formula_units_Z   1
loop_
 _symmetry_equiv_pos_site_id
 _symmetry_equiv_pos_as_xyz
  1  'x, y, z'
loop_
 _atom_site_type_symbol
 _atom_site_label
 _atom_site_symmetry_multiplicity
 _atom_site_fract_x
 _atom_site_fract_y
 _atom_site_fract_z
 _atom_site_occupancy
  V  V0  1  0.87179909  0.10727047  0.25482761  1
  V  V1  1  0.88461665  -0.01168526  0.87238391  1
  V  V2  1  0.13300705  0.87324251  0.23996501  1
  V  V3  1  0.49969870  0.12540735  0.62528335  1
  V  V4  1  -0.00026089  0.49564160  -0.00755820  1
  V  V5  1  0.62924822  0.25645056  0.36521732  1
  V  V6  1  0.75224685  0.75135808  0.00970203  1
  V  V7  1  0.12785980  -0.00001567  0.11152787  1
  V  V8  1  0.13242700  0.62370019  -0.00729676  1
  V  V9  1  0.49980236  0.50216700  0.00223143  1
  V  V10  1  0.62541758  0.13245527  -0.00381492  1
  V  V11  1  0.38009562  0.63326207  0.25060604  1
  V  V12  1  0.62628063  0.13072347  0.49926180  1
  V  V13  1  0.37377809  0.76367540  0.62825540  1
  V  V14  1  0.62690532  0.49792232  0.13885810  1
  V  V15  1  0.49622613  -0.00641122  0.49538992  1
  V  V16  1  0.23920614  0.13346221  0.87940135  1
  V  V17  1  0.75397980  0.88249365  0.12754792  1
  V  V18  1  0.37102876  0.25639275  0.62701550  1
  V  V19  1  0.63409580  0.00508320  0.13228848  1
  V  V20  1  0.87991075  0.73174984  0.62934587  1
  V  V21  1  -0.00972420  0.74437803  0.25871176  1
  V  V22  1  0.72535708  0.37580069  0.62675131  1
  V  V23  1  0.63194684  -0.00036383  0.63063127  1
  V  V24  1  0.24059820  0.87383848  0.63151754  1
  V  V25  1  0.75424139  0.11533702  0.37490318  1
  V  V26  1  0.61608461  0.51825860  0.61939979  1
  V  V27  1  0.87190313  0.48338790  0.37697659  1
  V  V28  1  0.25037726  0.50042286  0.24592771  1
  V  V29  1  0.87559557  0.37543946  -0.00773673  1
  V  V30  1  0.48472097  0.62691528  0.61970176  1
  V  V31  1  0.12830422  0.37322487  0.75574984  1
  V  V32  1  0.74681100  0.37736957  0.13314582  1
  V  V33  1  0.11913232  0.48999773  0.61236693  1
  V  V34  1  0.12837610  0.11879606  0.49597306  1
  V  V35  1  0.87079727  0.50442495  0.86899896  1
  V  V36  1  0.62428225  0.62602795  0.00377719  1
  V  V37  1  0.01200577  0.37771823  0.39706754  1
  V  V38  1  0.11702198  -0.00311294  0.62725182  1
  V  V39  1  0.49038757  0.13065769  0.12875871  1
  V  V40  1  0.74685280  0.25345947  -0.01054166  1
  V  V41  1  0.25476361  0.24349167  0.49511422  1
  V  V42  1  0.24980487  0.75721641  -0.00696446  1
  V  V43  1  0.75788420  0.62873597  0.36835533  1
  V  V44  1  0.12665591  0.50017929  0.12411402  1
  V  V45  1  0.50287237  0.87018575  0.36475598  1
  V  V46  1  0.37109983  0.00228281  0.87733957  1
  V  V47  1  0.37125156  0.37269047  0.01094213  1
  V  V48  1  0.74788630  0.11670149  0.87031611  1
  V  V49  1  0.00361630  0.87876569  0.37584619  1
  V  V50  1  -0.00828384  0.25121399  0.25018064  1
  V  V51  1  0.62824241  0.74388966  0.38333209  1
  V  V52  1  0.13291941  0.23756950  0.37124305  1
  V  V53  1  0.12822700  0.37459174  0.24627932  1
  V  V54  1  0.11245809  0.75554958  0.86239902  1
  V  V55  1  0.87120002  0.11369197  0.74096929  1
  V  V56  1  0.25822756  0.50462668  0.73641304  1
  V  V57  1  0.85980161  0.87016626  0.48854520  1
  V  V58  1  0.75034964  0.62742585  0.86859970  1
  V  V59  1  0.37933048  0.50438952  0.37926447  1
  V  V60  1  0.24033240  0.63615359  0.37502751  1
  V  V61  1  0.88385745  0.27539549  0.62481207  1
  V  V62  1  0.37057903  0.76268643  0.13372784  1
  V  V63  1  0.51265250  0.25339465  0.75264023  1
  V  V64  1  0.36837353  0.51219570  0.87306585  1
  V  V65  1  0.24919176  0.25198765  0.01451815  1
  V  V66  1  0.24102315  -0.00063839  0.75311875  1
  V  V67  1  0.50521421  0.37802482  0.37167286  1
  V  V68  1  -0.01222833  0.63023631  0.12566202  1
  V  V69  1  0.88656517  0.87234576  -0.00275701  1
  V  V70  1  0.49668127  0.87820272  0.87765312  1
  V  V71  1  0.74860043  0.86666085  0.63677540  1
  V  V72  1  0.37260135  0.12997757  0.75243063  1
  V  V73  1  0.62501204  0.75340443  0.87505460  1
  V  V74  1  0.49826781  0.00538227  0.00247716  1
  V  V75  1  0.37418163  0.37638577  0.49880366  1
  V  V76  1  0.50754965  0.37220354  0.87131382  1
  V  V77  1  0.48463870  0.24966327  0.24699746  1
  V  V78  1  0.11555241  0.62562184  0.50373150  1
  Zn  Zn79  1  0.63066356  0.88448892  0.75988112  1
  Zn  Zn80  1  0.49193258  0.74769222  0.75752048  1
  Zn  Zn81  1  0.00510114  0.11813410  0.10438065  1
  Zn  Zn82  1  0.63101664  0.87059980  0.24736231  1
  Zn  Zn83  1  0.36531021  0.88437397  0.01060533  1
  Zn  Zn84  1  0.24590379  0.75365900  0.49982555  1
  Zn  Zn85  1  0.87636831  0.24755048  0.12141829  1
  Zn  Zn86  1  0.50563645  0.63830127  0.13453283  1
  Zn  Zn87  1  0.11559417  0.25682601  0.88868254  1
  Zn  Zn88  1  -0.00160738  0.12908114  0.62308340  1
  Zn  Zn89  1  0.76579457  0.26200770  0.49637718  1
  Zn  Zn90  1  -0.00804303  0.00500765  0.49217514  1
  Zn  Zn91  1  -0.00628006  0.26254039  0.76123332  1
  Zn  Zn92  1  0.34135529  0.90581103  0.46819137  1
  Zn  Zn93  1  0.73709189  0.49456629  0.75259915  1
  Zn  Zn94  1  0.17484074  0.19405858  0.17108479  1
  Zn  Zn95  1  0.18819833  0.18710132  0.68526958  1
  Zn  Zn96  1  0.18389041  0.69388693  0.18413941  1
  Zn  Zn97  1  0.18741840  0.67847839  0.68725552  1
  Zn  Zn98  1  0.69224916  0.18979494  0.18576227  1
  Zn  Zn99  1  0.69470039  0.19075401  0.68356564  1
  Zn  Zn100  1  0.69056889  0.68565101  0.19848434  1
  Zn  Zn101  1  0.68548856  0.69033061  0.68748389  1
  Zn  Zn102  1  0.31167784  0.31461104  0.31212986  1
  Zn  Zn103  1  0.31299887  0.32179918  0.81917476  1
  Zn  Zn104  1  0.30325347  0.83566267  0.31952037  1
  Zn  Zn105  1  0.30842653  0.81067295  0.81439638  1
  Zn  Zn106  1  0.81116266  0.32510194  0.32337175  1
  Zn  Zn107  1  0.80957725  0.31258519  0.80586996  1
  Zn  Zn108  1  0.81472506  0.80528906  0.30743734  1
  Zn  Zn109  1  0.93685734  0.80397166  0.79780253  1
  Zn  Zn110  1  0.19420209  0.43541942  0.43289517  1
  Zn  Zn111  1  0.19096484  0.43646238  0.93635165  1
  Zn  Zn112  1  0.17521423  0.93256922  0.43246804  1
  Zn  Zn113  1  0.17775530  0.93644337  0.93473679  1
  Zn  Zn114  1  0.69061895  0.45019933  0.44417638  1
  Zn  Zn115  1  0.68715947  0.43988059  0.94196103  1
  Zn  Zn116  1  0.68012743  0.93791649  0.43936515  1
  Zn  Zn117  1  0.68968180  0.94093713  0.94466603  1
  Zn  Zn118  1  0.30492948  0.06518719  0.06613489  1
  Zn  Zn119  1  0.31029925  0.06408545  0.56674169  1
  Zn  Zn120  1  0.31461726  0.56989724  0.06361210  1
  Zn  Zn121  1  0.31260299  0.56858040  0.55854402  1
  Zn  Zn122  1  0.82947281  0.06854454  0.05481459  1
  Zn  Zn123  1  0.81088611  0.05478309  0.55303678  1
  Zn  Zn124  1  0.80887912  0.55821032  0.06134639  1
  Zn  Zn125  1  0.80549586  0.55084309  0.54509569  1
  Zn  Zn126  1  0.44108329  0.44141093  0.19189880  1
  Zn  Zn127  1  0.44006504  0.43915698  0.68887713  1
  Zn  Zn128  1  0.43654107  0.94982755  0.19026212  1
  Zn  Zn129  1  0.43704588  0.94089697  0.69059509  1
  Zn  Zn130  1  0.93483406  0.44112288  0.18842660  1
  Zn  Zn131  1  0.95449928  0.47052358  0.69732924  1
  Zn  Zn132  1  0.94269373  0.93256151  0.18260604  1
  Zn  Zn133  1  0.93107311  0.93417006  0.67814706  1
  Zn  Zn134  1  0.05922403  0.05620351  0.29625456  1
  Zn  Zn135  1  0.05603176  0.06783729  0.81262412  1
  Zn  Zn136  1  0.04583089  0.55580709  0.30938131  1
  Zn  Zn137  1  0.06718879  0.56907047  0.80422101  1
  Zn  Zn138  1  0.56494013  0.06535536  0.31244935  1
  Zn  Zn139  1  0.56054958  0.06619727  0.81286151  1
  Zn  Zn140  1  0.56179606  0.56813092  0.31890292  1
  Zn  Zn141  1  0.55777213  0.56437078  0.80332993  1
  Zn  Zn142  1  0.43868417  0.18327858  0.43004602  1
  Zn  Zn143  1  0.43393800  0.19038742  0.93914358  1
  Zn  Zn144  1  0.43378038  0.69987359  0.44234711  1
  Zn  Zn145  1  0.43662035  0.69183580  0.94500171  1
  Zn  Zn146  1  0.94177058  0.19247252  0.43831154  1
  Zn  Zn147  1  0.93669035  0.18269511  0.93291851  1
  Zn  Zn148  1  0.92970227  0.68427393  0.44462938  1
  Zn  Zn149  1  0.93740702  0.68328447  0.94231914  1
  Zn  Zn150  1  0.05909158  0.31379578  0.06570394  1
  Zn  Zn151  1  0.07580846  0.30645358  0.57644280  1
  Zn  Zn152  1  0.06548060  0.80942644  0.06256463  1
  Zn  Zn153  1  0.05696309  0.80718784  0.56791361  1
  Zn  Zn154  1  0.56182532  0.31484330  0.06409689  1
  Zn  Zn155  1  0.55513227  0.31301420  0.55652542  1
  Zn  Zn156  1  0.55981811  0.81786210  0.06592861  1
  Zn  Zn157  1  0.56593425  0.80939681  0.56130623  1
  O  O158  1  0.11768863  0.11046469  0.13141820  1
  O  O159  1  0.12494171  0.11665956  0.61437246  1
  O  O160  1  0.11910990  0.61473354  0.11556913  1
  O  O161  1  0.13307114  0.60712796  0.61178516  1
  O  O162  1  0.62247667  0.12276006  0.11645018  1
  O  O163  1  0.62286050  0.12187117  0.61712305  1
  O  O164  1  0.62507895  0.61929118  0.11932934  1
  O  O165  1  0.62098995  0.62156500  0.61641331  1
  O  O166  1  0.38110598  0.38462388  0.37749427  1
  O  O167  1  0.38554317  0.38824559  0.88799642  1
  O  O168  1  0.40204397  0.85362252  0.38191058  1
  O  O169  1  0.38083864  0.88344575  0.87904880  1
  O  O170  1  0.90581415  0.37354018  0.37798789  1
  O  O171  1  0.86475318  0.38487603  0.88582041  1
  O  O172  1  0.88214555  0.86576440  0.38306863  1
  O  O173  1  0.87690998  0.88133286  0.87749776  1
  O  O174  1  0.27131427  -0.06856113  0.37951054  1
  O  O175  1  0.24957066  0.00855699  0.87116272  1
  O  O176  1  0.25973883  0.50876621  0.36349280  1
  O  O177  1  0.26601036  0.50243727  0.87709653  1
  O  O178  1  0.74383267  0.01669370  0.37965291  1
  O  O179  1  0.75355890  0.01104768  0.87657662  1
  O  O180  1  0.77684060  0.44768482  0.36019729  1
  O  O181  1  0.75255765  0.51047197  0.87835540  1
  O  O182  1  0.24190866  0.50995379  0.13670919  1
  O  O183  1  0.26334277  0.49821851  0.63432816  1
  O  O184  1  0.23125654  1.00410706  0.12400568  1
  O  O185  1  0.24074180  0.99500980  0.63393786  1
  O  O186  1  0.74121906  0.48788918  0.12139631  1
  O  O187  1  0.73314390  0.49176944  0.62369321  1
  O  O188  1  0.74366236  0.99520870  0.11123262  1
  O  O189  1  0.73765635  0.98712934  0.61342113  1
  O  O190  1  0.01714301  0.36768232  0.25307005  1
  O  O191  1  0.02352198  0.38293640  0.74357472  1
  O  O192  1  -0.00325959  0.86195725  0.25929334  1
  O  O193  1  -0.00156370  0.87989409  0.74556601  1
  O  O194  1  0.49545974  0.36278353  0.25913331  1
  O  O195  1  0.49552610  0.36949451  0.76373895  1
  O  O196  1  0.50301091  0.88546153  0.26291884  1
  O  O197  1  0.50236057  0.87835237  0.76761541  1
  O  O198  1  0.50710684  0.14066584  0.24465868  1
  O  O199  1  0.49156678  0.13450134  0.74753181  1
  O  O200  1  0.48404988  0.62677842  0.25335373  1
  O  O201  1  0.50724944  0.63714948  0.73005661  1
  O  O202  1  0.98057006  0.13453382  0.26095321  1
  O  O203  1  0.98001769  0.12701881  0.74615077  1
  O  O204  1  1.00995969  0.63489440  0.23569904  1
  O  O205  1  0.99013455  0.57696410  0.72732458  1
  O  O206  1  0.36880077  0.26559615  -0.00041151  1
  O  O207  1  0.37149383  0.25018310  0.50310685  1
  O  O208  1  0.36093518  0.75343130  0.00603473  1
  O  O209  1  0.36521881  0.75891619  0.51761544  1
  O  O210  1  0.86416356  0.26360517  0.00081477  1
  O  O211  1  0.88018543  0.24584753  0.52146322  1
  O  O212  1  0.86318233  0.76207019  -0.00948486  1
  O  O213  1  0.87667679  0.76538688  0.50780191  1
  O  O214  1  0.13670091  0.23903422  0.49330396  1
  O  O215  1  0.14363137  0.26348924  1.00504444  1
  O  O216  1  0.12969671  0.73034600  0.51333645  1
  O  O217  1  0.13384352  0.74260808  0.99541024  1
  O  O218  1  0.61817411  0.23844298  0.49034940  1
  O  O219  1  0.63207201  0.24213594  1.00359133  1
  O  O220  1  0.63198319  0.75960753  0.48393743  1
  O  O221  1  0.62678859  0.74260028  0.99838335  1
  O  O222  1  0.50534598  0.24743271  0.13988635  1
  O  O223  1  0.49089267  0.24500440  0.63236098  1
  O  O224  1  0.47829552  0.75106330  0.11403136  1
  O  O225  1  0.48577596  0.75391143  0.62646199  1
  O  O226  1  0.99909584  0.24401215  0.13684528  1
  O  O227  1  0.99188053  0.24897691  0.63392141  1
  O  O228  1  0.99738182  0.73246559  0.11916375  1
  O  O229  1  0.98110132  0.74320782  0.62176717  1
  O  O230  1  0.01442810  0.25643398  0.36746269  1
  O  O231  1  0.00435808  0.24487865  0.87297302  1
  O  O232  1  -0.00643152  0.74743142  0.36235590  1
  O  O233  1  0.00592067  0.74328954  0.87205268  1
  O  O234  1  0.50604775  0.25433641  0.36290614  1
  O  O235  1  0.49314208  0.26364906  0.86882065  1
  O  O236  1  0.51527763  0.76052588  0.37953435  1
  O  O237  1  0.50654279  0.76070702  0.88155953  1
  O  O238  1  0.24187346  0.12989615  0.49957255  1
  O  O239  1  0.25868423  0.14419911  0.99265245  1
  O  O240  1  0.24760918  0.62804485  0.48448455  1
  O  O241  1  0.23909764  0.63294535  1.00290056  1
  O  O242  1  0.74263208  0.13033409  0.49165697  1
  O  O243  1  0.74416139  0.13403222  0.99204723  1
  O  O244  1  0.73244050  0.56683561  0.45127862  1
  O  O245  1  0.73959651  0.63031374  0.99854962  1
  O  O246  1  0.26333189  0.36835724  -0.00154847  1
  O  O247  1  0.26477757  0.35842327  0.48949349  1
  O  O248  1  0.24683776  0.86162395  -0.00145176  1
  O  O249  1  0.24102582  0.87170132  0.52235252  1
  O  O250  1  0.75522066  0.36985336  0.00337280  1
  O  O251  1  0.74548697  0.37613455  0.52117208  1
  O  O252  1  0.75256582  0.86616164  0.00777643  1
  O  O253  1  0.75808480  0.87551372  0.49569410  1
  O  O254  1  0.13056493  0.49499855  0.24399587  1
  O  O255  1  0.13937344  0.49262023  0.73467607  1
  O  O256  1  0.12830413  0.97878218  0.25083432  1
  O  O257  1  0.13257108  1.01287672  0.74089536  1
  O  O258  1  0.61150370  0.50285224  0.23718339  1
  O  O259  1  0.62081230  0.50088645  0.73029875  1
  O  O260  1  0.62537597  1.00273921  0.23587439  1
  O  O261  1  0.61945753  1.00325906  0.73630575  1
  O  O262  1  0.37127058  0.00618008  0.27522308  1
  O  O263  1  0.36389787  0.00977037  0.75558170  1
  O  O264  1  0.36801052  0.51000863  0.25579874  1
  O  O265  1  0.36903416  0.49422299  0.76342739  1
  O  O266  1  0.87683620  0.00930750  0.25165537  1
  O  O267  1  0.86976582  0.00764729  0.75568825  1
  O  O268  1  0.91751228  0.50361792  0.28138372  1
  O  O269  1  0.86322632  0.49145809  0.76760895  1
  O  O270  1  0.12562130  0.36047819  0.36785402  1
  O  O271  1  0.12799276  0.37669782  0.86212194  1
  O  O272  1  0.10794564  0.86469763  0.36089108  1
  O  O273  1  0.12299306  0.85505807  0.87615526  1
  O  O274  1  0.61306765  0.37028729  0.38593560  1
  O  O275  1  0.60650721  0.38107997  0.88354141  1
  O  O276  1  0.61899536  0.87013566  0.37042815  1
  O  O277  1  0.61698390  0.87137444  0.88182188  1
  O  O278  1  0.39124817  0.12023112  0.12383771  1
  O  O279  1  0.37968822  0.13457663  0.63180156  1
  O  O280  1  0.37760941  0.63474394  0.13601099  1
  O  O281  1  0.37900270  0.64012103  0.62429959  1
  O  O282  1  0.85622239  0.13315338  0.15459136  1
  O  O283  1  0.86801366  0.11751023  0.63539097  1
  O  O284  1  0.88911887  0.61386552  0.12134002  1
  O  O285  1  0.85367643  0.63640735  0.60316766  1
  O  O286  1  0.25709961  0.24582759  0.11529697  1
  O  O287  1  0.26333748  0.24419736  0.61219106  1
  O  O288  1  0.26187375  0.74492636  0.11188683  1
  O  O289  1  0.25623442  0.75914275  0.63472206  1
  O  O290  1  0.75016307  0.26204688  0.11153616  1
  O  O291  1  0.76182242  0.26496621  0.62315253  1
  O  O292  1  0.74306294  0.75690248  0.11505852  1
  O  O293  1  0.74687363  0.76285924  0.62290172  1
  O  O294  1  0.24339582  0.24651416  0.37923907  1
  O  O295  1  0.24779982  0.24593389  0.88306030  1
  O  O296  1  0.25132385  0.73775788  0.37311087  1
  O  O297  1  0.24256255  0.74752697  0.88761628  1
  O  O298  1  0.74292753  0.25098826  0.38213572  1
  O  O299  1  0.75504338  0.24105428  0.88340787  1
  O  O300  1  0.74872054  0.73553756  0.37697523  1
  O  O301  1  0.73555018  0.74103587  0.89250264  1
  O  O302  1  -0.06825296  0.11876788  0.02203027  1
  O  O303  1  0.01346125  0.12398968  0.50025300  1
  O  O304  1  0.00805103  0.61565044  0.01049797  1
  O  O305  1  0.01785178  0.62188425  0.48786487  1
  O  O306  1  0.50679221  0.12747177  0.00714666  1
  O  O307  1  0.50655735  0.11671349  0.50241749  1
  O  O308  1  0.50883911  0.61768082  0.00289489  1
  O  O309  1  0.49571288  0.63754415  0.51866371  1
  O  O310  1  0.48354429  0.36563661  0.48381695  1
  O  O311  1  0.49165531  0.38136675  0.99350512  1
  O  O312  1  0.50750479  0.89000384  0.49560852  1
  O  O313  1  0.49666729  0.88646137  0.99213069  1
  O  O314  1  1.01736645  0.35974294  0.49373527  1
  O  O315  1  0.98878418  0.38522098  1.00793073  1
  O  O316  1  1.00090838  0.86987850  0.48291046  1
  O  O317  1  0.98475865  0.86638468  1.00131558  1
  O  O318  1  0.48826141  0.49275906  0.36805295  1
  O  O319  1  0.49435363  0.49327545  0.88312957  1
  O  O320  1  0.50962129  0.99154673  0.38760409  1
  O  O321  1  0.49244479  0.99841971  0.88178534  1
  O  O322  1  1.02540061  0.47868477  0.39015532  1
  O  O323  1  0.99036141  0.50839227  0.88886788  1
  O  O324  1  1.00134702  0.98258201  0.37171616  1
  O  O325  1  0.98292252  1.00428694  0.87426878  1
  O  O326  1  0.01536317  0.00588012  0.13922885  1
  O  O327  1  0.00912991  0.00354519  0.61916951  1
  O  O328  1  0.00926086  0.50740557  0.11733285  1
  O  O329  1  0.02136030  0.48601384  0.60212429  1
  O  O330  1  0.50951939  0.01172457  0.12181945  1
  O  O331  1  0.50869661  0.00501727  0.61727752  1
  O  O332  1  0.50736943  0.50079302  0.11416952  1
  O  O333  1  0.49945049  0.51816289  0.62891286  1
  O  O334  1  0.23979409  0.38631715  0.25594621  1
  O  O335  1  0.24324349  0.39043590  0.75700902  1
  O  O336  1  0.23022859  0.85519730  0.23551112  1
  O  O337  1  0.24997930  0.89106247  0.74743589  1
  O  O338  1  0.75273748  0.36440833  0.23006720  1
  O  O339  1  0.75065074  0.37660377  0.73171136  1
  O  O340  1  0.75819708  0.87192207  0.23099088  1
  O  O341  1  0.74865392  0.87818435  0.73510383  1
  O  O342  1  0.37127248  0.08416978  0.29304018  1
  O  O343  1  0.25380866  0.12062275  0.75790392  1
  O  O344  1  0.25384599  0.62102199  0.25946870  1
  O  O345  1  0.24694195  0.60352336  0.75227809  1
  O  O346  1  0.75725167  0.13221286  0.26759873  1
  O  O347  1  0.76003559  0.13286921  0.75825383  1
  O  O348  1  0.74172428  0.60747492  0.27013299  1
  O  O349  1  0.73914602  0.62400300  0.76672942  1
  O  O350  1  0.37019074  0.09905753  0.37232990  1
  O  O351  1  0.36529905  0.12201853  0.87118108  1
  O  O352  1  0.36764367  0.62285995  0.37115633  1
  O  O353  1  0.38608277  0.61093695  0.88010164  1
  O  O354  1  0.86230929  0.13162683  0.37282953  1
  O  O355  1  0.86520769  0.11269640  0.86183966  1
  O  O356  1  0.86199042  0.61464751  0.37784867  1
  O  O357  1  0.86069850  0.61655817  0.88645335  1
  O  O358  1  0.12262404  0.38871119  0.13313573  1
  O  O359  1  0.14075293  0.38491271  0.63017987  1
  O  O360  1  0.11372246  0.88588278  0.13174374  1
  O  O361  1  0.12784416  0.88553251  0.62467445  1
  O  O362  1  0.63710977  0.38379242  0.11734302  1
  O  O363  1  0.62439596  0.36837305  0.62990538  1
  O  O364  1  0.63384253  0.88692581  0.12428235  1
  O  O365  1  0.63312313  0.88102024  0.62585668  1
  O  O366  1  0.12305679  0.25349208  0.25400874  1
  O  O367  1  0.12979041  0.26623030  0.74401640  1
  O  O368  1  0.10438250  0.76180525  0.23398847  1
  O  O369  1  0.12871301  0.73882414  0.76465132  1
  O  O370  1  0.62447428  0.25050894  0.26252361  1
  O  O371  1  0.61108073  0.24305948  0.74638034  1
  O  O372  1  0.63362922  0.75581421  0.26789514  1
  O  O373  1  0.62382770  0.75660118  0.76802187  1
  O  O374  1  0.38536706  0.24652095  0.25481633  1
  O  O375  1  0.37798651  0.24997627  0.74236302  1
  O  O376  1  0.36363851  0.74785274  0.23892469  1
  O  O377  1  0.37460473  0.75738695  0.73699986  1
  O  O378  1  0.88798594  0.26087546  0.25397715  1
  O  O379  1  0.87462499  0.24370010  0.73534097  1
  O  O380  1  0.89082418  0.74807486  0.24123392  1
  O  O381  1  0.86725731  0.74188473  0.73074652  1
  O  O382  1  0.36628617  0.49125013  0.48781916  1
  O  O383  1  0.38118056  0.49665481  0.99486521  1
  O  O384  1  0.39210085  1.00154659  0.51147549  1
  O  O385  1  0.37875910  1.00291704  0.99632902  1
  O  O386  1  0.88440352  0.49908585  0.47703633  1
  O  O387  1  0.88078676  0.49376527  0.99324104  1
  O  O388  1  0.88076908  0.97791357  0.50473255  1
  O  O389  1  0.86434250  0.98105958  0.98078693  1
  O  O390  1  0.11825304  -0.00469301  0.01068144  1
  O  O391  1  0.12396904  0.00559568  0.50539914  1
  O  O392  1  0.12070571  0.50270119  0.00403335  1
  O  O393  1  0.14575812  0.50578352  0.50855791  1
  O  O394  1  0.61781010  0.01285145  0.00890036  1
  O  O395  1  0.61572855  0.01224473  0.50798825  1
  O  O396  1  0.61744013  0.50971596  0.00732950  1
  O  O397  1  0.61030733  0.48515673  0.52379068  1
  O  O398  1  0.38028113  0.38552999  0.10997448  1
  O  O399  1  0.38660395  0.36522850  0.61338153  1
  O  O400  1  0.37578761  0.86839644  0.13011668  1
  O  O401  1  0.36288723  0.87250068  0.62853604  1
  O  O402  1  0.86305354  0.38045946  0.11513780  1
  O  O403  1  0.88621604  0.37378501  0.63107766  1
  O  O404  1  0.86750041  0.88565370  0.10594678  1
  O  O405  1  0.85877456  0.86761346  0.61460222  1
  O  O406  1  0.11985145  0.12994108  0.37796677  1
  O  O407  1  0.13637301  0.12846506  0.87272797  1
  O  O408  1  0.13730299  0.61678182  0.38219045  1
  O  O409  1  0.11704418  0.63181972  0.88681603  1
  O  O410  1  0.63540270  0.13429851  0.37988158  1
  O  O411  1  0.63096405  0.12013249  0.88715322  1
  O  O412  1  0.62540771  0.64003559  0.37620587  1
  O  O413  1  0.62669743  0.63144998  0.88606719  1
