# generated using pymatgen
data_V79Zn79O256
_symmetry_space_group_name_H-M   'P 1'
_cell_length_a   16.94697375
_cell_length_b   16.90401907
_cell_length_c   16.92858523
_cell_angle_alpha   89.89392272
_cell_angle_beta   89.97250781
_cell_angle_gamma   89.88045577
_symmetry_Int_Tables_number   1
_chemical_formula_structural   V79Zn79O256
_chemical_formula_sum   'V79 Zn79 O256'
_cell_volume   4849.54569927
_cell_formula_units_Z   1
loop_
 _symmetry_equiv_pos_site_id
 _symmetry_equiv_pos_as_xyz
  1  'x, y, z'
loop_
 _atom_site_type_symbol
 _atom_site_label
 _atom_site_symmetry_multiplicity
 _atom_site_fract_x
 _atom_site_fract_y
 _atom_site_fract_z
 _atom_site_occupancy
  V  V0  1  0.24632067  0.74477517  0.00768698  1
  V  V1  1  0.12271238  0.12487222  0.50043274  1
  V  V2  1  0.36946511  0.13039786  0.23974091  1
  V  V3  1  0.51144379  0.36341382  0.36292446  1
  V  V4  1  0.49958465  0.51054560  0.50320865  1
  V  V5  1  0.24737386  0.00102851  0.75290669  1
  V  V6  1  0.63751010  0.74351732  0.37181096  1
  V  V7  1  0.24303660  0.61775138  0.38460901  1
  V  V8  1  0.37516299  0.49881607  0.37791291  1
  V  V9  1  0.64677979  0.63050249  0.50104885  1
  V  V10  1  0.74524345  0.87299505  0.12528813  1
  V  V11  1  0.25292353  0.87979433  0.13130610  1
  V  V12  1  0.35407831  0.62054154  0.75078451  1
  V  V13  1  0.86981877  0.87317659  -0.00352889  1
  V  V14  1  0.62579504  0.87282221  0.74251968  1
  V  V15  1  0.11604336  0.88856305  0.24680933  1
  V  V16  1  0.87066353  -0.00410776  0.87310546  1
  V  V17  1  0.90406044  0.62221765  0.76067998  1
  V  V18  1  0.89100357  0.74822677  0.61838159  1
  V  V19  1  0.87254569  0.37548951  0.00745204  1
  V  V20  1  0.25336541  0.24731145  0.50594516  1
  V  V21  1  0.86031226  0.61945246  0.24772364  1
  V  V22  1  0.37098211  0.38751707  -0.00456625  1
  V  V23  1  0.37692935  0.87203075  0.00271602  1
  V  V24  1  0.12588609  0.88652160  0.75816428  1
  V  V25  1  0.74433723  -0.00306227  0.73698616  1
  V  V26  1  0.50861376  0.25158005  0.75793501  1
  V  V27  1  0.75690318  0.36859370  0.61952208  1
  V  V28  1  0.50079314  0.00582467  0.00512854  1
  V  V29  1  0.49875214  0.38674299  0.87454930  1
  V  V30  1  0.63047872  0.37661263  0.75675255  1
  V  V31  1  0.87562902  0.12991034  0.74669052  1
  V  V32  1  0.74079175  0.37962928  0.12964176  1
  V  V33  1  0.62135420  0.13346268  -0.00762608  1
  V  V34  1  0.50363349  0.86067489  0.87617788  1
  V  V35  1  0.87290279  0.74449559  0.12987026  1
  V  V36  1  0.00111738  0.12671018  0.62889096  1
  V  V37  1  0.23365527  0.49523963  0.24827147  1
  V  V38  1  0.26135275  0.12125955  0.37923235  1
  V  V39  1  0.74632895  0.74064099  -0.01865783  1
  V  V40  1  -0.01064999  0.87314440  0.38345137  1
  V  V41  1  0.50849986  0.11568087  0.62733737  1
  V  V42  1  0.87016851  0.01202736  0.37358879  1
  V  V43  1  0.38146738  0.36942535  0.50267421  1
  V  V44  1  0.11937825  0.74711020  0.38105130  1
  V  V45  1  0.12983115  0.25317182  0.36561854  1
  V  V46  1  0.74555432  0.14254814  0.37224052  1
  V  V47  1  0.37885050  -0.00260801  0.88035642  1
  V  V48  1  0.61629585  0.62943847  -0.00625693  1
  V  V49  1  0.13667004  0.75164881  0.88320310  1
  V  V50  1  0.38754327  0.74612242  0.13382327  1
  V  V51  1  0.62324278  0.87262006  0.25249800  1
  V  V52  1  0.24675340  0.25780028  0.00001974  1
  V  V53  1  0.50028014  0.00038695  0.48150612  1
  V  V54  1  0.49292409  0.86626370  0.37251384  1
  V  V55  1  0.49659211  0.50679858  0.00826154  1
  V  V56  1  0.26391997  -0.00870378  0.26222088  1
  V  V57  1  0.75501484  0.51472563  0.76121487  1
  V  V58  1  0.04996529  0.69650374  0.18657026  1
  V  V59  1  0.37729973  0.24970302  0.62834712  1
  V  V60  1  0.74595049  0.13187137  0.87242171  1
  V  V61  1  -0.00161251  0.50520163  0.02024883  1
  V  V62  1  0.55171410  0.18174689  0.17891962  1
  V  V63  1  0.38686956  0.62064224  0.25031713  1
  V  V64  1  -0.01926761  0.24255884  0.24450799  1
  V  V65  1  0.11985907  0.49723429  0.62395176  1
  V  V66  1  0.12318329  0.25525515  0.87355549  1
  V  V67  1  -0.01117525  0.38892705  0.86321068  1
  V  V68  1  0.86940648  0.50220686  0.39138469  1
  V  V69  1  0.14954451  0.37376121  0.74048124  1
  V  V70  1  0.62990801  0.13948368  0.50059340  1
  V  V71  1  0.00688458  0.37853670  0.38044032  1
  V  V72  1  0.49713652  0.73923177  0.72276814  1
  V  V73  1  0.25068735  0.13128302  0.88052431  1
  V  V74  1  0.62607109  0.50775365  0.62587705  1
  V  V75  1  0.37997085  0.12525914  0.75199926  1
  V  V76  1  -0.00568068  0.87178842  0.87749074  1
  V  V77  1  0.23801650  0.38020610  0.12757481  1
  V  V78  1  0.10025988  0.60921105  0.49355595  1
  Zn  Zn79  1  0.75187654  0.00482567  0.24614235  1
  Zn  Zn80  1  0.13741587  -0.01460473  0.60202446  1
  Zn  Zn81  1  0.77753693  0.87107900  0.59649676  1
  Zn  Zn82  1  0.01622627  0.74208674  0.74743954  1
  Zn  Zn83  1  0.87048959  0.34329399  0.50405130  1
  Zn  Zn84  1  0.28937799  0.81444154  0.54014879  1
  Zn  Zn85  1  0.12127225  0.61567530  0.01186553  1
  Zn  Zn86  1  0.62207628  0.00320373  0.12673657  1
  Zn  Zn87  1  -0.01135834  -0.00403508  0.50777697  1
  Zn  Zn88  1  0.75265316  0.25053819  -0.00253258  1
  Zn  Zn89  1  0.37548751  0.25364946  0.12399903  1
  Zn  Zn90  1  0.73848308  0.49396215  0.25962504  1
  Zn  Zn91  1  0.61780677  0.50986201  0.13421320  1
  Zn  Zn92  1  0.06318677  0.06789830  0.04273457  1
  Zn  Zn93  1  -0.00453177  0.25631002  0.74490857  1
  Zn  Zn94  1  0.13463810  0.20802189  0.16327339  1
  Zn  Zn95  1  0.18879829  0.18202712  0.68802486  1
  Zn  Zn96  1  0.23057413  0.72033284  0.23225006  1
  Zn  Zn97  1  0.23539003  0.65533191  0.62546217  1
  Zn  Zn98  1  0.72907777  0.20814622  0.19901053  1
  Zn  Zn99  1  0.68880067  0.18810662  0.68661938  1
  Zn  Zn100  1  0.68027605  0.68552373  0.18278239  1
  Zn  Zn101  1  0.69297820  0.69723715  0.68440219  1
  Zn  Zn102  1  0.31344880  0.31249151  0.31450621  1
  Zn  Zn103  1  0.31960979  0.31564214  0.81426607  1
  Zn  Zn104  1  0.34919043  0.76388021  0.36935517  1
  Zn  Zn105  1  0.30025246  0.80795603  0.70402022  1
  Zn  Zn106  1  0.82174239  0.32008763  0.31340692  1
  Zn  Zn107  1  0.81195533  0.31684200  0.81050051  1
  Zn  Zn108  1  0.81192793  0.81112050  0.31150141  1
  Zn  Zn109  1  0.81408830  0.80308479  0.79425362  1
  Zn  Zn110  1  0.19472572  0.43875246  0.45644382  1
  Zn  Zn111  1  0.18164307  0.44348650  0.93615948  1
  Zn  Zn112  1  0.18007286  0.93610324  0.42909910  1
  Zn  Zn113  1  0.19136685  0.94239746  0.94020329  1
  Zn  Zn114  1  0.68612646  0.43666856  0.43844689  1
  Zn  Zn115  1  0.68584467  0.44613532  0.94009156  1
  Zn  Zn116  1  0.68663066  0.95212150  0.44098871  1
  Zn  Zn117  1  0.68424636  0.94005304  0.93343920  1
  Zn  Zn118  1  0.25042475  0.08911078  0.09251232  1
  Zn  Zn119  1  0.31779110  -0.02769935  0.56683100  1
  Zn  Zn120  1  0.31021449  0.56387428  0.06918238  1
  Zn  Zn121  1  0.32115107  0.52134560  0.60317779  1
  Zn  Zn122  1  0.80976893  0.06013957  0.05780193  1
  Zn  Zn123  1  0.81691755  0.07279813  0.55657509  1
  Zn  Zn124  1  0.81377268  0.55954837  0.05623076  1
  Zn  Zn125  1  0.81850085  0.56931421  0.57852025  1
  Zn  Zn126  1  0.43135264  0.43340391  0.18684497  1
  Zn  Zn127  1  0.44269622  0.43934828  0.69014037  1
  Zn  Zn128  1  0.43790420  0.93764025  0.19111774  1
  Zn  Zn129  1  0.43938113  0.93155324  0.68914792  1
  Zn  Zn130  1  0.93611153  0.43060878  0.19616242  1
  Zn  Zn131  1  0.93693228  0.44603343  0.67917210  1
  Zn  Zn132  1  0.92971081  0.94442783  0.18438274  1
  Zn  Zn133  1  0.94470786  0.93977456  0.68760047  1
  Zn  Zn134  1  0.06217248  0.06459264  0.31513640  1
  Zn  Zn135  1  0.04895145  0.07459886  0.84422931  1
  Zn  Zn136  1  0.05301184  0.55693494  0.30995867  1
  Zn  Zn137  1  0.09703624  0.55751321  0.82293019  1
  Zn  Zn138  1  0.57013414  0.06274730  0.31342535  1
  Zn  Zn139  1  0.56455608  0.05809034  0.81431036  1
  Zn  Zn140  1  0.56470507  0.55974869  0.32002464  1
  Zn  Zn141  1  0.56489646  0.56871746  0.81354402  1
  Zn  Zn142  1  0.44188473  0.18513216  0.43686633  1
  Zn  Zn143  1  0.43535551  0.19344984  0.93985532  1
  Zn  Zn144  1  0.42149865  0.69173684  0.55068045  1
  Zn  Zn145  1  0.42297050  0.68123440  0.93218428  1
  Zn  Zn146  1  0.94085250  0.19096289  0.43584569  1
  Zn  Zn147  1  0.93896658  0.19201931  0.93958276  1
  Zn  Zn148  1  0.92941734  0.69158956  0.42887866  1
  Zn  Zn149  1  0.93794159  0.68488225  0.93836304  1
  Zn  Zn150  1  0.05578228  0.32203004  0.05884804  1
  Zn  Zn151  1  0.06001312  0.30921097  0.56083359  1
  Zn  Zn152  1  0.07979155  0.86308055  0.04376021  1
  Zn  Zn153  1  0.10646355  0.78175882  0.59457175  1
  Zn  Zn154  1  0.56360870  0.31925443  0.05751727  1
  Zn  Zn155  1  0.56450416  0.31728478  0.56706501  1
  Zn  Zn156  1  0.56485535  0.80970871  0.06072402  1
  Zn  Zn157  1  0.60198224  0.83668321  0.54081224  1
  O  O158  1  0.14203362  0.11241210  0.11242110  1
  O  O159  1  0.12144433  0.12297356  0.61468515  1
  O  O160  1  0.11180282  0.64679717  0.12760457  1
  O  O161  1  0.12736002  0.60832286  0.60365732  1
  O  O162  1  0.61502918  0.12479070  0.11666385  1
  O  O163  1  0.62050311  0.13044183  0.61383394  1
  O  O164  1  0.62748626  0.62502697  0.10439378  1
  O  O165  1  0.63303250  0.62027075  0.61187001  1
  O  O166  1  0.38145627  0.38262207  0.38351612  1
  O  O167  1  0.38351591  0.37907755  0.88473425  1
  O  O168  1  0.39335112  0.87137225  0.36444612  1
  O  O169  1  0.38867382  0.88475005  0.88293221  1
  O  O170  1  0.87974208  0.38702124  0.38632415  1
  O  O171  1  0.88577246  0.37834435  0.87702598  1
  O  O172  1  0.88600498  0.87440262  0.37323315  1
  O  O173  1  0.87413300  0.87479140  0.87628310  1
  O  O174  1  0.24913373  0.00856459  0.37053265  1
  O  O175  1  0.25984721  0.01126729  0.87599789  1
  O  O176  1  0.25700046  0.49656403  0.36951564  1
  O  O177  1  0.19892205  0.52645983  0.86569765  1
  O  O178  1  0.75941863  0.00848329  0.37420149  1
  O  O179  1  0.75387166  0.00579798  0.86292022  1
  O  O180  1  0.76620937  0.49268095  0.37463319  1
  O  O181  1  0.74922321  0.49736731  0.85924824  1
  O  O182  1  0.24976999  0.49612536  0.14123323  1
  O  O183  1  0.21809664  0.47841337  0.58290166  1
  O  O184  1  0.25915444  0.98417450  0.14122922  1
  O  O185  1  0.24292455  1.01659746  0.65131378  1
  O  O186  1  0.75187771  0.48691543  0.12169565  1
  O  O187  1  0.74042943  0.49574016  0.63468761  1
  O  O188  1  0.74650035  0.98476018  0.12333015  1
  O  O189  1  0.76016625  0.99617149  0.63596898  1
  O  O190  1  -0.01092778  0.35970270  0.27023593  1
  O  O191  1  -0.00647084  0.37709798  0.75670416  1
  O  O192  1  0.01258721  0.88770320  0.24841443  1
  O  O193  1  0.01069351  0.87629014  0.76511052  1
  O  O194  1  0.49252307  0.37847810  0.26420234  1
  O  O195  1  0.50869204  0.37280630  0.75671750  1
  O  O196  1  0.51245376  0.88202776  0.26059864  1
  O  O197  1  0.50268043  0.86327441  0.76111034  1
  O  O198  1  0.48949841  0.12208074  0.24319246  1
  O  O199  1  0.50239482  0.13330526  0.74843437  1
  O  O200  1  0.48397851  0.62287366  0.26127016  1
  O  O201  1  0.50587614  0.63895362  0.74356876  1
  O  O202  1  1.00711087  0.14464415  0.25702883  1
  O  O203  1  0.99162922  0.12369392  0.74854420  1
  O  O204  1  0.99382738  0.62899634  0.24153149  1
  O  O205  1  1.00667531  0.61552903  0.76054285  1
  O  O206  1  0.36392694  0.26566950  -0.00103395  1
  O  O207  1  0.37411122  0.25073099  0.50933515  1
  O  O208  1  0.36712455  0.75015407  0.01192207  1
  O  O209  1  0.35934916  0.75296437  0.48098332  1
  O  O210  1  0.87612802  0.26931562  -0.00877214  1
  O  O211  1  0.86237598  0.23215889  0.50006754  1
  O  O212  1  0.86076484  0.75170881  0.00625009  1
  O  O213  1  0.88212833  0.74085612  0.51862466  1
  O  O214  1  0.13590006  0.24460249  0.49397773  1
  O  O215  1  0.13518759  0.26820742  0.98408355  1
  O  O216  1  0.12118182  0.73659760  0.48505929  1
  O  O217  1  0.13370106  0.76762152  0.99779600  1
  O  O218  1  0.61975281  0.23956981  0.50182056  1
  O  O219  1  0.62349189  0.23723282  0.99890403  1
  O  O220  1  0.62041700  0.73362290  0.49109419  1
  O  O221  1  0.63562899  0.74182854  0.99914372  1
  O  O222  1  0.49572739  0.24785023  0.12114724  1
  O  O223  1  0.49708968  0.24565866  0.63776044  1
  O  O224  1  0.48637319  0.75452227  0.12518062  1
  O  O225  1  0.49922907  0.74892023  0.62316340  1
  O  O226  1  1.02214155  0.25729692  0.14718893  1
  O  O227  1  1.00675407  0.23348618  0.63039880  1
  O  O228  1  0.98658118  0.75432314  0.12791242  1
  O  O229  1  1.00078223  0.74971785  0.63123170  1
  O  O230  1  0.01006800  0.25485879  0.36393330  1
  O  O231  1  0.01174428  0.26789079  0.86975198  1
  O  O232  1  0.00423122  0.76383971  0.37115036  1
  O  O233  1  0.00504460  0.76294466  0.88026769  1
  O  O234  1  0.49654617  0.26413877  0.37684698  1
  O  O235  1  0.49493713  0.26411858  0.86415836  1
  O  O236  1  0.51451552  0.76770875  0.37803195  1
  O  O237  1  0.49325531  0.76103090  0.87914732  1
  O  O238  1  0.24243045  0.13341206  0.49203781  1
  O  O239  1  0.25810917  0.14231995  0.98762652  1
  O  O240  1  0.23247834  0.61674029  0.48429951  1
  O  O241  1  0.24040947  0.64042695  1.01844425  1
  O  O242  1  0.73636726  0.12369089  0.49105818  1
  O  O243  1  0.74141167  0.12582729  0.99108379  1
  O  O244  1  0.74452762  0.62441505  0.50107733  1
  O  O245  1  0.74527019  0.63626618  0.99790837  1
  O  O246  1  0.25396120  0.37885381  0.00255278  1
  O  O247  1  0.26760090  0.35579423  0.49184232  1
  O  O248  1  0.25974502  0.86904673  0.01282715  1
  O  O249  1  0.22965529  0.90999234  0.52461639  1
  O  O250  1  0.76174102  0.37924072  -0.00044352  1
  O  O251  1  0.74577562  0.37940053  0.51696962  1
  O  O252  1  0.74989650  0.86198887  0.00374084  1
  O  O253  1  0.70856371  0.87080182  0.51212392  1
  O  O254  1  0.13562727  0.49461667  0.25873414  1
  O  O255  1  0.13084215  0.48713994  0.72975687  1
  O  O256  1  0.13591782  0.99020683  0.25788572  1
  O  O257  1  0.13178221  0.99348334  0.77539227  1
  O  O258  1  0.62885704  0.51030235  0.24629668  1
  O  O259  1  0.63186459  0.49687672  0.74437676  1
  O  O260  1  0.63055116  0.98882991  0.24612952  1
  O  O261  1  0.63295516  0.98748724  0.75558354  1
  O  O262  1  0.37007825  0.00948572  0.25150947  1
  O  O263  1  0.36906035  0.00460088  0.76359886  1
  O  O264  1  0.37097830  0.50718040  0.25961355  1
  O  O265  1  0.36653925  0.51637777  0.71829791  1
  O  O266  1  0.86779586  -0.00803040  0.26730801  1
  O  O267  1  0.86453998  0.00342526  0.75736263  1
  O  O268  1  0.87028194  0.51164835  0.25073754  1
  O  O269  1  0.86453059  0.51591241  0.74155532  1
  O  O270  1  0.11330883  0.36880025  0.38773992  1
  O  O271  1  0.12140553  0.37175333  0.85397307  1
  O  O272  1  0.11695579  0.86549939  0.36089582  1
  O  O273  1  0.11419410  0.87207489  0.87826804  1
  O  O274  1  0.60983624  0.38188093  0.37726675  1
  O  O275  1  0.61772358  0.38198539  0.86418708  1
  O  O276  1  0.62476975  0.86714763  0.36485412  1
  O  O277  1  0.60812734  0.87755456  0.86825096  1
  O  O278  1  0.35743166  0.12682449  0.13740819  1
  O  O279  1  0.39186006  0.13757212  0.63679566  1
  O  O280  1  0.37203794  0.62968243  0.14320667  1
  O  O281  1  0.35065170  0.63249208  0.62115131  1
  O  O282  1  0.90488162  0.09359628  0.11510549  1
  O  O283  1  0.88630448  0.11557479  0.63751331  1
  O  O284  1  0.86838394  0.63286054  0.13416064  1
  O  O285  1  0.88106699  0.63638356  0.64411880  1
  O  O286  1  0.24519796  0.26023414  0.10976900  1
  O  O287  1  0.26544085  0.23911149  0.61757660  1
  O  O288  1  0.26238631  0.76261107  0.12740873  1
  O  O289  1  0.22120034  0.76684496  0.62355602  1
  O  O290  1  0.75162217  0.27077169  0.11267631  1
  O  O291  1  0.74883370  0.26975523  0.63506699  1
  O  O292  1  0.75645966  0.75796925  0.11942578  1
  O  O293  1  0.77780771  0.75819574  0.64233568  1
  O  O294  1  0.24873136  0.24227667  0.38494537  1
  O  O295  1  0.24721636  0.25117680  0.88051250  1
  O  O296  1  0.23181079  0.73154716  0.35670103  1
  O  O297  1  0.23950058  0.75479043  0.89442335  1
  O  O298  1  0.75472127  0.24138705  0.36827636  1
  O  O299  1  0.75370248  0.23586884  0.87345790  1
  O  O300  1  0.73651017  0.75271844  0.37696562  1
  O  O301  1  0.75398283  0.75269282  0.88383460  1
  O  O302  1  0.01665577  0.11607231  -0.04820904  1
  O  O303  1  0.00995250  0.12867183  0.50786783  1
  O  O304  1  -0.00720220  0.60905396  0.00457758  1
  O  O305  1  0.00358990  0.62550589  0.49203304  1
  O  O306  1  0.50688967  0.11664206  -0.01202045  1
  O  O307  1  0.51016985  0.12228769  0.50652604  1
  O  O308  1  0.50511568  0.62037217  -0.00633121  1
  O  O309  1  0.49439015  0.61090992  0.50383208  1
  O  O310  1  0.49391828  0.38088651  0.49309872  1
  O  O311  1  0.49184505  0.38499672  0.99235603  1
  O  O312  1  0.51268254  0.89133505  0.48429390  1
  O  O313  1  0.49900491  0.88032425  0.99054839  1
  O  O314  1  0.99040816  0.35953149  0.48432023  1
  O  O315  1  0.98968815  0.38450937  0.98899322  1
  O  O316  1  1.00787707  0.87965132  0.48111385  1
  O  O317  1  0.97536395  0.86806948  0.99487169  1
  O  O318  1  0.48909944  0.49440061  0.38583388  1
  O  O319  1  0.50305483  0.49199024  0.88235847  1
  O  O320  1  0.49998845  0.99730267  0.37774340  1
  O  O321  1  0.49312487  0.99328747  0.88127565  1
  O  O322  1  0.98752336  0.48424432  0.36939236  1
  O  O323  1  1.00894473  0.48725039  0.87405817  1
  O  O324  1  0.98678103  0.99202434  0.37151333  1
  O  O325  1  0.97922732  0.98384246  0.87048105  1
  O  O326  1  -0.03794591  0.03235470  0.11212987  1
  O  O327  1  0.01027621  0.01188503  0.62357364  1
  O  O328  1  -0.00431955  0.49157218  0.11923282  1
  O  O329  1  0.01942723  0.48671772  0.61313891  1
  O  O330  1  0.49985389  -0.00738618  0.10888543  1
  O  O331  1  0.49904106  0.01413848  0.63178401  1
  O  O332  1  0.49763311  0.49380196  0.11135876  1
  O  O333  1  0.51819556  0.49062866  0.61589227  1
  O  O334  1  0.25908525  0.38756493  0.24342064  1
  O  O335  1  0.24826764  0.37208681  0.74361651  1
  O  O336  1  0.24098353  0.87973632  0.24963289  1
  O  O337  1  0.23619726  0.88753911  0.76477328  1
  O  O338  1  0.75705698  0.37464859  0.23334308  1
  O  O339  1  0.74583038  0.38734338  0.74425841  1
  O  O340  1  0.74140408  0.87208427  0.23979017  1
  O  O341  1  0.73377824  0.87845970  0.75342777  1
  O  O342  1  0.26114362  0.11138885  0.26084643  1
  O  O343  1  0.26090226  0.12387681  0.76292189  1
  O  O344  1  0.25067395  0.60523675  0.26071087  1
  O  O345  1  0.25595645  0.63494591  0.74655139  1
  O  O346  1  0.74298478  0.12184350  0.26651269  1
  O  O347  1  0.75352442  0.11699117  0.75279052  1
  O  O348  1  0.75925730  0.62296666  0.24859760  1
  O  O349  1  0.74173428  0.61441780  0.75101056  1
  O  O350  1  0.36610210  0.13146479  0.36703884  1
  O  O351  1  0.37148837  0.12038096  0.87123685  1
  O  O352  1  0.36113550  0.61146662  0.36721102  1
  O  O353  1  0.37793051  0.61910306  0.84979894  1
  O  O354  1  0.86418959  0.11723937  0.37407419  1
  O  O355  1  0.86386898  0.11373726  0.86718006  1
  O  O356  1  0.88322602  0.61278540  0.35859843  1
  O  O357  1  0.87997094  0.62469685  0.85853573  1
  O  O358  1  0.13919785  0.37526006  0.12110956  1
  O  O359  1  0.12180582  0.37122177  0.63793470  1
  O  O360  1  0.13659078  0.86658914  0.14478200  1
  O  O361  1  0.11394737  0.88429336  0.65529521  1
  O  O362  1  0.63786462  0.38354546  0.11486130  1
  O  O363  1  0.63423158  0.38577301  0.63596179  1
  O  O364  1  0.63081317  0.86989958  0.13365240  1
  O  O365  1  0.60845504  0.88313209  0.64572066  1
  O  O366  1  0.14224864  0.25550115  0.26637028  1
  O  O367  1  0.12883450  0.26204548  0.75387438  1
  O  O368  1  0.11488695  0.75242175  0.25380316  1
  O  O369  1  0.12836482  0.76947042  0.77429646  1
  O  O370  1  0.61466642  0.23346050  0.23390592  1
  O  O371  1  0.61761435  0.26306821  0.74591655  1
  O  O372  1  0.62749918  0.75384680  0.26260321  1
  O  O373  1  0.61133542  0.76182366  0.74326792  1
  O  O374  1  0.36737970  0.23522169  0.24615664  1
  O  O375  1  0.38619553  0.24747545  0.74614811  1
  O  O376  1  0.36136760  0.72956181  0.25236433  1
  O  O377  1  0.38832684  0.73668260  0.73968930  1
  O  O378  1  0.88021366  0.24483498  0.24319941  1
  O  O379  1  0.87497084  0.23390315  0.75687210  1
  O  O380  1  0.86898145  0.73615896  0.24159818  1
  O  O381  1  0.89446308  0.73469411  0.75064059  1
  O  O382  1  0.38047703  0.48744446  0.49961054  1
  O  O383  1  0.37893686  0.49648606  1.00362708  1
  O  O384  1  0.40173067  1.01217010  0.50444896  1
  O  O385  1  0.38352910  0.99351209  0.99090250  1
  O  O386  1  0.87295097  0.51447554  0.48952666  1
  O  O387  1  0.88638944  0.48826488  0.99769238  1
  O  O388  1  0.87447916  1.00193749  0.48312988  1
  O  O389  1  0.85491946  0.98221716  0.98323706  1
  O  O390  1  0.11389137  -0.03100451  0.01464728  1
  O  O391  1  0.11468708  0.01665307  0.48941421  1
  O  O392  1  0.10395241  0.49776456  0.00480107  1
  O  O393  1  0.10622395  0.50702329  0.48580430  1
  O  O394  1  0.61802846  0.01058778  0.00183598  1
  O  O395  1  0.60816818  0.01967262  0.49652534  1
  O  O396  1  0.61437915  0.51192635  0.00295736  1
  O  O397  1  0.62059735  0.51498949  0.50336435  1
  O  O398  1  0.36297441  0.37420944  0.11256081  1
  O  O399  1  0.38680081  0.36186085  0.61569824  1
  O  O400  1  0.37177700  0.86649558  0.12452945  1
  O  O401  1  0.35844775  0.88068930  0.63157219  1
  O  O402  1  0.87031696  0.37695061  0.11080394  1
  O  O403  1  0.86109123  0.38441368  0.61982148  1
  O  O404  1  0.86514878  0.86695247  0.11756690  1
  O  O405  1  0.88545913  0.86037143  0.63268401  1
  O  O406  1  0.13467921  0.13478735  0.38177179  1
  O  O407  1  0.14371170  0.14334879  0.86241200  1
  O  O408  1  0.12035912  0.62656178  0.37875760  1
  O  O409  1  0.11218322  0.65269757  0.89365831  1
  O  O410  1  0.63568212  0.12865043  0.38463178  1
  O  O411  1  0.63516222  0.11919532  0.88073288  1
  O  O412  1  0.62410806  0.63510512  0.38680717  1
  O  O413  1  0.62593860  0.62294791  0.89286523  1
