# generated using pymatgen
data_V79Zn79O256
_symmetry_space_group_name_H-M   'P 1'
_cell_length_a   16.91161815
_cell_length_b   16.90978076
_cell_length_c   16.89146287
_cell_angle_alpha   89.95486523
_cell_angle_beta   89.97786533
_cell_angle_gamma   90.15404697
_symmetry_Int_Tables_number   1
_chemical_formula_structural   V79Zn79O256
_chemical_formula_sum   'V79 Zn79 O256'
_cell_volume   4830.46196217
_cell_formula_units_Z   1
loop_
 _symmetry_equiv_pos_site_id
 _symmetry_equiv_pos_as_xyz
  1  'x, y, z'
loop_
 _atom_site_type_symbol
 _atom_site_label
 _atom_site_symmetry_multiplicity
 _atom_site_fract_x
 _atom_site_fract_y
 _atom_site_fract_z
 _atom_site_occupancy
  V  V0  1  0.49765258  -0.00026294  0.00365392  1
  V  V1  1  0.49266742  0.74518642  0.74334177  1
  V  V2  1  0.61450190  0.37384946  0.24914008  1
  V  V3  1  0.49536143  0.12980833  0.13334744  1
  V  V4  1  -0.00719411  0.25047444  0.24661557  1
  V  V5  1  0.63163269  0.12438882  0.50036842  1
  V  V6  1  0.38255972  0.50139352  0.38151452  1
  V  V7  1  0.74988945  0.26852266  0.49871617  1
  V  V8  1  0.49689255  0.37439873  0.39155375  1
  V  V9  1  0.63293048  0.13340113  0.00421905  1
  V  V10  1  0.13862829  0.88076363  0.24710439  1
  V  V11  1  0.25231596  0.87260493  0.62388792  1
  V  V12  1  0.36272913  0.12057667  0.25668030  1
  V  V13  1  0.37265797  0.50345093  0.86295270  1
  V  V14  1  0.86900125  0.24656806  0.11376630  1
  V  V15  1  -0.00748066  0.37525998  0.37879129  1
  V  V16  1  0.74549348  0.47563367  0.74765222  1
  V  V17  1  0.87228863  0.49716909  0.38018275  1
  V  V18  1  -0.00287494  0.87896761  0.87347371  1
  V  V19  1  0.25504854  0.76210519  -0.00184332  1
  V  V20  1  0.75944822  0.87787153  0.59938459  1
  V  V21  1  0.88040087  0.86812434  0.00781869  1
  V  V22  1  0.49803922  0.13426341  0.63338761  1
  V  V23  1  -0.00014666  0.24149091  0.73805840  1
  V  V24  1  0.36827538  0.00050147  0.37805951  1
  V  V25  1  0.37669480  0.00205020  0.86701774  1
  V  V26  1  0.62232522  0.49019132  0.62319998  1
  V  V27  1  0.24070618  0.50446653  0.24580841  1
  V  V28  1  0.62247636  0.24839427  0.37372456  1
  V  V29  1  0.37554826  0.86139429  0.50655893  1
  V  V30  1  0.24133007  0.38069638  0.12900193  1
  V  V31  1  0.74897362  0.37213748  0.11648754  1
  V  V32  1  0.86050562  0.10846711  0.25037448  1
  V  V33  1  0.24315453  0.24516385  0.00128967  1
  V  V34  1  -0.00990216  0.74072580  0.74575904  1
  V  V35  1  0.62931490  -0.00101261  0.63046582  1
  V  V36  1  0.24639334  0.12308324  0.86870278  1
  V  V37  1  0.25492340  0.62314406  0.86308610  1
  V  V38  1  0.37247486  0.37456437  0.00417957  1
  V  V39  1  0.75783957  0.74576101  0.00792108  1
  V  V40  1  0.75323516  0.62679859  0.86319808  1
  V  V41  1  0.13059324  0.88306393  0.74749824  1
  V  V42  1  0.25097154  0.62744999  0.38156141  1
  V  V43  1  -0.00008045  0.37472141  0.86882673  1
  V  V44  1  0.50149139  0.36066249  0.87124413  1
  V  V45  1  0.74989915  0.50333933  0.25137271  1
  V  V46  1  0.49606336  0.87584038  0.88030478  1
  V  V47  1  0.11662429  0.24101168  0.38122549  1
  V  V48  1  0.12774739  0.75245777  0.37764905  1
  V  V49  1  0.64125898  0.24851430  0.87337469  1
  V  V50  1  0.86474381  0.25709341  0.62237790  1
  V  V51  1  0.13580271  0.49993846  0.62541512  1
  V  V52  1  0.13585313  0.37759078  0.74299397  1
  V  V53  1  -0.01136984  0.88660266  0.38365804  1
  V  V54  1  0.87647211  0.50538464  0.86725364  1
  V  V55  1  0.12183385  0.62861434  0.50270868  1
  V  V56  1  -0.00504415  0.50113436  0.50752462  1
  V  V57  1  0.63114841  0.74900407  0.36700008  1
  V  V58  1  0.62719926  0.74947956  0.87596658  1
  V  V59  1  0.13774562  0.00311200  0.12605738  1
  V  V60  1  0.49849275  0.63023471  0.12767976  1
  V  V61  1  0.63895572  0.87855778  0.75269210  1
  V  V62  1  0.00653477  0.50031845  0.00503246  1
  V  V63  1  -0.00217928  0.75305513  0.24215675  1
  V  V64  1  0.62370416  0.50090814  0.12460265  1
  V  V65  1  0.35675121  0.28667474  0.62349121  1
  V  V66  1  0.85522073  0.11154590  0.75663558  1
  V  V67  1  0.00292610  -0.00022688  -0.00064233  1
  V  V68  1  0.12653933  0.74717243  0.87471868  1
  V  V69  1  0.00021949  0.12361578  0.11866264  1
  V  V70  1  0.74570718  0.88182868  0.13025704  1
  V  V71  1  0.49835608  0.50185123  0.00016474  1
  V  V72  1  0.12182676  0.00902269  0.60673177  1
  V  V73  1  0.37271671  0.76258085  0.11853792  1
  V  V74  1  0.37326984  0.25154977  0.14347963  1
  V  V75  1  0.50101124  0.86739599  0.35859855  1
  V  V76  1  0.37614679  0.63103170  0.24739291  1
  V  V77  1  0.87662314  0.62838517  0.24085615  1
  V  V78  1  0.87185256  0.73962770  0.61079584  1
  Zn  Zn79  1  0.62881970  0.00094129  0.13754346  1
  Zn  Zn80  1  0.00911607  0.62519730  0.12549414  1
  Zn  Zn81  1  0.12324054  0.24629331  0.87503936  1
  Zn  Zn82  1  0.87067920  0.37149423  -0.00563035  1
  Zn  Zn83  1  0.49192820  0.62150062  0.62166261  1
  Zn  Zn84  1  0.31651130  0.68611649  0.57200883  1
  Zn  Zn85  1  0.62499976  0.63043512  0.50646828  1
  Zn  Zn86  1  0.13618546  0.61877680  0.00876521  1
  Zn  Zn87  1  0.38224552  0.13663055  0.74899682  1
  Zn  Zn88  1  0.50058203  -0.00195322  0.50158947  1
  Zn  Zn89  1  0.22361248  0.11015634  0.38703211  1
  Zn  Zn90  1  0.62927523  0.62475682  0.00099072  1
  Zn  Zn91  1  0.75668037  0.63831972  0.38771492  1
  Zn  Zn92  1  0.24639974  0.25210190  0.50024938  1
  Zn  Zn93  1  0.11700421  0.38097167  0.24734610  1
  Zn  Zn94  1  0.18619296  0.18889359  0.19367952  1
  Zn  Zn95  1  0.19179454  0.18848856  0.68529892  1
  Zn  Zn96  1  0.18759327  0.69142589  0.18570815  1
  Zn  Zn97  1  0.18218210  0.69184410  0.68747559  1
  Zn  Zn98  1  0.68492449  0.18916533  0.18695339  1
  Zn  Zn99  1  0.68638771  0.19078116  0.68949152  1
  Zn  Zn100  1  0.68380579  0.69117777  0.19253945  1
  Zn  Zn101  1  0.68839403  0.69012394  0.67827804  1
  Zn  Zn102  1  0.29108293  0.33309177  0.34405645  1
  Zn  Zn103  1  0.31754525  0.30920760  0.81119237  1
  Zn  Zn104  1  0.31588492  0.81155687  0.31212526  1
  Zn  Zn105  1  0.31306341  0.81452087  0.81123139  1
  Zn  Zn106  1  0.80703972  0.31042038  0.30657307  1
  Zn  Zn107  1  0.81795982  0.30468581  0.81600644  1
  Zn  Zn108  1  0.81502450  0.81598674  0.31260221  1
  Zn  Zn109  1  0.81610941  0.81523826  0.81784671  1
  Zn  Zn110  1  0.18269118  0.43405477  0.44011982  1
  Zn  Zn111  1  0.18846661  0.43491295  0.93277828  1
  Zn  Zn112  1  0.18808025  0.93005036  0.44088753  1
  Zn  Zn113  1  0.18638500  0.94134955  0.93609541  1
  Zn  Zn114  1  0.68354382  0.44312093  0.43895353  1
  Zn  Zn115  1  0.68391636  0.43810456  0.93205922  1
  Zn  Zn116  1  0.67949015  0.94058143  0.42695994  1
  Zn  Zn117  1  0.68526162  0.93798507  0.93922133  1
  Zn  Zn118  1  0.31654502  0.06355560  0.05660229  1
  Zn  Zn119  1  0.30599357  0.06249617  0.55966844  1
  Zn  Zn120  1  0.30970340  0.56782522  0.05826529  1
  Zn  Zn121  1  0.34524621  0.50239248  0.59246720  1
  Zn  Zn122  1  0.79765333  0.04148796  0.01911427  1
  Zn  Zn123  1  0.80855605  0.07480465  0.57805277  1
  Zn  Zn124  1  0.81744492  0.55895586  0.05712563  1
  Zn  Zn125  1  0.80415564  0.56162622  0.56642806  1
  Zn  Zn126  1  0.43043589  0.44265520  0.19142379  1
  Zn  Zn127  1  0.45398793  0.43160249  0.69480262  1
  Zn  Zn128  1  0.43293301  0.94448661  0.18832064  1
  Zn  Zn129  1  0.44485329  0.93463951  0.68882150  1
  Zn  Zn130  1  0.93103721  0.43532814  0.18704601  1
  Zn  Zn131  1  0.93594870  0.43694579  0.68734331  1
  Zn  Zn132  1  0.94140131  0.93359317  0.18786403  1
  Zn  Zn133  1  0.94080886  0.93802119  0.68157765  1
  Zn  Zn134  1  0.05041434  0.06058254  0.30400149  1
  Zn  Zn135  1  0.06381082  0.06071451  0.80873775  1
  Zn  Zn136  1  0.05878909  0.56609756  0.31530171  1
  Zn  Zn137  1  0.06587635  0.56290852  0.81104534  1
  Zn  Zn138  1  0.54886241  0.06534359  0.32061317  1
  Zn  Zn139  1  0.57135615  0.06538697  0.81627726  1
  Zn  Zn140  1  0.56315655  0.56659049  0.31377799  1
  Zn  Zn141  1  0.56521569  0.56219434  0.80874224  1
  Zn  Zn142  1  0.43590541  0.18690904  0.45014183  1
  Zn  Zn143  1  0.43116910  0.18311402  0.94663123  1
  Zn  Zn144  1  0.45160679  0.68614427  0.43895666  1
  Zn  Zn145  1  0.43686464  0.68796470  0.93597449  1
  Zn  Zn146  1  0.92179564  0.18600857  0.43002179  1
  Zn  Zn147  1  0.93849949  0.18375587  0.93238877  1
  Zn  Zn148  1  0.94106913  0.68703863  0.42939995  1
  Zn  Zn149  1  0.93997633  0.68504532  0.93600643  1
  Zn  Zn150  1  0.05981901  0.31378232  0.05980860  1
  Zn  Zn151  1  0.05740015  0.31583913  0.56134403  1
  Zn  Zn152  1  0.07166970  0.81381526  0.06279476  1
  Zn  Zn153  1  0.05898829  0.81634113  0.56473790  1
  Zn  Zn154  1  0.55821906  0.31201914  0.06406582  1
  Zn  Zn155  1  0.56397014  0.31389137  0.56664665  1
  Zn  Zn156  1  0.56553270  0.81274920  0.06529868  1
  Zn  Zn157  1  0.56555770  0.81145102  0.55680975  1
  O  O158  1  0.11497546  0.11278762  0.13555314  1
  O  O159  1  0.13821975  0.10677961  0.63031819  1
  O  O160  1  0.12329832  0.62678853  0.12125246  1
  O  O161  1  0.12954397  0.61234678  0.61579537  1
  O  O162  1  0.61131916  0.12548227  0.12305042  1
  O  O163  1  0.62006108  0.11808700  0.62156497  1
  O  O164  1  0.61456352  0.62012852  0.12449414  1
  O  O165  1  0.62418968  0.61346443  0.62795358  1
  O  O166  1  0.39193275  0.38876248  0.36030302  1
  O  O167  1  0.38104551  0.38247709  0.88470430  1
  O  O168  1  0.37987062  0.88092554  0.38118532  1
  O  O169  1  0.38888631  0.88285970  0.87257560  1
  O  O170  1  0.88076603  0.38473999  0.36664147  1
  O  O171  1  0.88476288  0.38180632  0.87426885  1
  O  O172  1  0.88883151  0.87176944  0.37466759  1
  O  O173  1  0.89099185  0.87143528  0.88656703  1
  O  O174  1  0.26410160  -0.00165303  0.37960833  1
  O  O175  1  0.26020128  0.01530364  0.88455413  1
  O  O176  1  0.25900585  0.51023758  0.36587983  1
  O  O177  1  0.26515740  0.50533479  0.88003352  1
  O  O178  1  0.70150469  -0.00530087  0.31949578  1
  O  O179  1  0.76291739  0.01098380  0.91518388  1
  O  O180  1  0.75602750  0.49388511  0.36342803  1
  O  O181  1  0.75511727  0.50499511  0.86592636  1
  O  O182  1  0.25749296  0.49223377  0.13260752  1
  O  O183  1  0.23292157  0.49128693  0.61786725  1
  O  O184  1  0.23676936  1.00930109  0.11945466  1
  O  O185  1  0.24192731  0.98167311  0.61943005  1
  O  O186  1  0.74541398  0.49478651  0.13251461  1
  O  O187  1  0.74432582  0.49712516  0.64310955  1
  O  O188  1  0.74980495  0.98545880  0.11556907  1
  O  O189  1  0.74228927  0.98830031  0.61862672  1
  O  O190  1  -0.00409145  0.36779298  0.25532928  1
  O  O191  1  0.00558819  0.36758829  0.75484747  1
  O  O192  1  0.00765448  0.86776758  0.25888102  1
  O  O193  1  0.00745410  0.86898805  0.75913856  1
  O  O194  1  0.51236526  0.38167787  0.24838147  1
  O  O195  1  0.50280079  0.36875120  0.77274700  1
  O  O196  1  0.49530901  0.87978655  0.25979639  1
  O  O197  1  0.51383439  0.86675610  0.76113998  1
  O  O198  1  0.48713867  0.12055018  0.23963464  1
  O  O199  1  0.50535042  0.12011875  0.73755340  1
  O  O200  1  0.48876799  0.61770300  0.23781030  1
  O  O201  1  0.50521823  0.64293556  0.75455187  1
  O  O202  1  0.98772699  0.13258994  0.23661596  1
  O  O203  1  1.00667094  0.14176329  0.75135863  1
  O  O204  1  0.99408554  0.63306535  0.24922581  1
  O  O205  1  1.00396930  0.64192823  0.75339132  1
  O  O206  1  0.36463726  0.26133672  0.01097281  1
  O  O207  1  0.38468096  0.25459495  0.52953876  1
  O  O208  1  0.37048085  0.74800516  0.00941391  1
  O  O209  1  0.37576289  0.75796908  0.49686584  1
  O  O210  1  0.88126963  0.25115407  0.00918992  1
  O  O211  1  0.86042938  0.24448923  0.50930226  1
  O  O212  1  0.86905311  0.75429695  -0.00426858  1
  O  O213  1  0.88443715  0.74422730  0.51161804  1
  O  O214  1  0.11534628  0.25182297  0.48421928  1
  O  O215  1  0.13825889  0.25729037  0.99562480  1
  O  O216  1  0.11619186  0.73970084  0.49038394  1
  O  O217  1  0.13333519  0.75039196  0.98714377  1
  O  O218  1  0.63494200  0.24908858  0.49594167  1
  O  O219  1  0.61433286  0.23831781  0.99718569  1
  O  O220  1  0.61713898  0.74936834  0.47884196  1
  O  O221  1  0.63424332  0.74981378  0.98909934  1
  O  O222  1  0.48403091  0.24219385  0.12194557  1
  O  O223  1  0.50487979  0.23624366  0.62767801  1
  O  O224  1  0.48832796  0.73926407  0.11396825  1
  O  O225  1  0.50985046  0.75365428  0.64177497  1
  O  O226  1  0.99282377  0.24517583  0.12714830  1
  O  O227  1  0.99031687  0.25222125  0.63259963  1
  O  O228  1  1.00602156  0.75349554  0.13841760  1
  O  O229  1  0.98598328  0.75823701  0.63719287  1
  O  O230  1  -0.00411042  0.25556574  0.36836774  1
  O  O231  1  0.00328810  0.25879742  0.86349812  1
  O  O232  1  0.01287974  0.75428996  0.36358817  1
  O  O233  1  0.00825208  0.75645911  0.86845201  1
  O  O234  1  0.50584638  0.26591778  0.38343866  1
  O  O235  1  0.49094487  0.26019672  0.88416845  1
  O  O236  1  0.49582209  0.76305309  0.36678529  1
  O  O237  1  0.50916645  0.75704844  0.87375494  1
  O  O238  1  0.26479605  0.14048638  0.48837908  1
  O  O239  1  0.25945092  0.13808614  0.98818623  1
  O  O240  1  0.23956113  0.62631994  0.48839795  1
  O  O241  1  0.25183313  0.63538856  0.98511142  1
  O  O242  1  0.73601793  0.13401496  0.50509207  1
  O  O243  1  0.73052912  0.13488249  1.02221460  1
  O  O244  1  0.73865346  0.61586826  0.49547154  1
  O  O245  1  0.75095939  0.62963550  0.99157044  1
  O  O246  1  0.25645794  0.37176677  0.00767398  1
  O  O247  1  0.25997644  0.35672843  0.45640674  1
  O  O248  1  0.25031141  0.86181551  -0.00998800  1
  O  O249  1  0.26728042  0.87218404  0.50415257  1
  O  O250  1  0.74938823  0.38644905  0.01273246  1
  O  O251  1  0.74904570  0.36705106  0.50057209  1
  O  O252  1  0.76139354  0.86306625  0.00646807  1
  O  O253  1  0.75122352  0.88235875  0.50023958  1
  O  O254  1  0.13655496  0.50200366  0.25797913  1
  O  O255  1  0.11901008  0.49125662  0.73551540  1
  O  O256  1  0.12355193  0.98974069  0.24095694  1
  O  O257  1  0.12565493  0.98556610  0.74719982  1
  O  O258  1  0.63189807  0.49470010  0.24554923  1
  O  O259  1  0.64199178  0.49765192  0.75333510  1
  O  O260  1  0.63768433  1.00183304  0.27134108  1
  O  O261  1  0.62324525  0.99109628  0.74181504  1
  O  O262  1  0.37448539  0.00651549  0.26557307  1
  O  O263  1  0.38283585  -0.00019257  0.76431307  1
  O  O264  1  0.36392179  0.51301077  0.25575128  1
  O  O265  1  0.37843155  0.49172073  0.76547824  1
  O  O266  1  0.87664025  0.00967447  0.24036717  1
  O  O267  1  0.88042417  0.01488332  0.74069458  1
  O  O268  1  0.86788451  0.50568070  0.25721266  1
  O  O269  1  0.86217285  0.49345496  0.75846282  1
  O  O270  1  0.10570169  0.36526161  0.36857884  1
  O  O271  1  0.11751189  0.37660719  0.85847085  1
  O  O272  1  0.12305231  0.86900428  0.36455575  1
  O  O273  1  0.12167026  0.86583632  0.86763681  1
  O  O274  1  0.61167062  0.37408349  0.37006546  1
  O  O275  1  0.60993297  0.35886364  0.89105733  1
  O  O276  1  0.60730665  0.86518095  0.37748970  1
  O  O277  1  0.61996274  0.86970025  0.87178626  1
  O  O278  1  0.37480340  0.13147029  0.13596527  1
  O  O279  1  0.39425032  0.11313231  0.62689747  1
  O  O280  1  0.38138503  0.62940493  0.13010812  1
  O  O281  1  0.37641778  0.60649104  0.61976576  1
  O  O282  1  0.88538327  0.13411742  0.12851048  1
  O  O283  1  0.87010558  0.14461579  0.64382993  1
  O  O284  1  0.88286554  0.61468134  0.13698240  1
  O  O285  1  0.86357586  0.64186969  0.62883418  1
  O  O286  1  0.25481621  0.25731806  0.12222548  1
  O  O287  1  0.25474003  0.26475411  0.62112795  1
  O  O288  1  0.26446557  0.74637789  0.11367090  1
  O  O289  1  0.24629500  0.76130507  0.62202639  1
  O  O290  1  0.75643438  0.26297258  0.12973767  1
  O  O291  1  0.75422550  0.25283060  0.61458521  1
  O  O292  1  0.74222785  0.75370494  0.11214916  1
  O  O293  1  0.76139800  0.76704237  0.62562026  1
  O  O294  1  0.21689971  0.24390440  0.35584980  1
  O  O295  1  0.25213525  0.24261875  0.88280794  1
  O  O296  1  0.23916207  0.74033405  0.36742530  1
  O  O297  1  0.24590999  0.74425452  0.87777401  1
  O  O298  1  0.73856047  0.25863475  0.38764353  1
  O  O299  1  0.73974343  0.25953447  0.88608733  1
  O  O300  1  0.73655377  0.75497658  0.36958353  1
  O  O301  1  0.74620432  0.74470125  0.88411531  1
  O  O302  1  -0.00170122  0.11578807  0.00760860  1
  O  O303  1  -0.04008759  0.09035046  0.49900905  1
  O  O304  1  0.00049615  0.60918820  -0.00038591  1
  O  O305  1  0.01279916  0.61274677  0.48921696  1
  O  O306  1  0.49915027  0.11922952  0.01590026  1
  O  O307  1  0.51292189  0.12311781  0.51433929  1
  O  O308  1  0.49910501  0.61493947  0.00716792  1
  O  O309  1  0.50963664  0.62350551  0.50687048  1
  O  O310  1  0.50074567  0.38045215  0.48981508  1
  O  O311  1  0.48869154  0.38336395  0.99911756  1
  O  O312  1  0.48509860  0.87489919  0.49530705  1
  O  O313  1  0.51160366  0.88594572  0.99011357  1
  O  O314  1  0.99889534  0.38617570  0.48853685  1
  O  O315  1  1.00190580  0.38300500  0.98484067  1
  O  O316  1  1.00695288  0.87143464  0.48225709  1
  O  O317  1  0.99900408  0.87576163  0.99423056  1
  O  O318  1  0.49018964  0.49392711  0.36990640  1
  O  O319  1  0.49169918  0.49273243  0.88312260  1
  O  O320  1  0.49053065  0.98525601  0.38008016  1
  O  O321  1  0.49753257  0.99539823  0.88187072  1
  O  O322  1  0.99124014  0.49325977  0.37974364  1
  O  O323  1  0.99350639  0.49416340  0.87360526  1
  O  O324  1  1.00160201  0.98567349  0.37066020  1
  O  O325  1  1.01652632  0.98818289  0.88606368  1
  O  O326  1  0.00916061  0.00699127  0.11937341  1
  O  O327  1  0.02288304  -0.00836478  0.62425840  1
  O  O328  1  -0.00350754  0.49036509  0.10659889  1
  O  O329  1  0.00244463  0.49549096  0.61229292  1
  O  O330  1  0.50255246  0.00789268  0.12117807  1
  O  O331  1  0.51723503  0.00010189  0.62211525  1
  O  O332  1  0.50150894  0.50715013  0.11769445  1
  O  O333  1  0.51910079  0.50685075  0.64614456  1
  O  O334  1  0.24772320  0.38699936  0.24502279  1
  O  O335  1  0.23390498  0.37180435  0.75510440  1
  O  O336  1  0.23746644  0.87343300  0.25244338  1
  O  O337  1  0.24045287  0.86760943  0.74095788  1
  O  O338  1  0.74034616  0.38526976  0.24059142  1
  O  O339  1  0.74825095  0.37724564  0.75599444  1
  O  O340  1  0.75992193  0.86797864  0.22790233  1
  O  O341  1  0.74038154  0.87435214  0.75600144  1
  O  O342  1  0.25942411  0.12545006  0.26097734  1
  O  O343  1  0.25978093  0.13545768  0.76555777  1
  O  O344  1  0.25652914  0.62203820  0.25772609  1
  O  O345  1  0.24549721  0.63062614  0.76322885  1
  O  O346  1  0.76188482  0.12381344  0.23457429  1
  O  O347  1  0.75432899  0.12070869  0.75085893  1
  O  O348  1  0.75698274  0.61486284  0.24877877  1
  O  O349  1  0.74948611  0.63141643  0.76309357  1
  O  O350  1  0.38752578  0.11116058  0.37179704  1
  O  O351  1  0.37118769  0.12020649  0.87033875  1
  O  O352  1  0.37214263  0.61970986  0.36787824  1
  O  O353  1  0.37297711  0.61015817  0.87677502  1
  O  O354  1  0.87136076  0.12715001  0.35022213  1
  O  O355  1  0.87858474  0.13164810  0.85468756  1
  O  O356  1  0.87347042  0.61403158  0.36329659  1
  O  O357  1  0.86790780  0.61396958  0.87759237  1
  O  O358  1  0.13742412  0.37075298  0.12736909  1
  O  O359  1  0.11860479  0.38517864  0.63320769  1
  O  O360  1  0.12424859  0.88618827  0.13826706  1
  O  O361  1  0.13307959  0.87868478  0.62942821  1
  O  O362  1  0.62869520  0.37905851  0.13053057  1
  O  O363  1  0.61920957  0.38820920  0.63117488  1
  O  O364  1  0.63880816  0.87982260  0.12104861  1
  O  O365  1  0.64008856  0.87946203  0.62989581  1
  O  O366  1  0.10292894  0.25067664  0.25196591  1
  O  O367  1  0.11452619  0.26287714  0.74286344  1
  O  O368  1  0.12045025  0.76198735  0.25596036  1
  O  O369  1  0.11330153  0.75860299  0.75655543  1
  O  O370  1  0.63155568  0.26184878  0.26293387  1
  O  O371  1  0.62878498  0.24304601  0.77403686  1
  O  O372  1  0.61809529  0.74855076  0.26410924  1
  O  O373  1  0.62346609  0.75847698  0.76331730  1
  O  O374  1  0.36748262  0.24362555  0.24519249  1
  O  O375  1  0.37487324  0.25642816  0.72489093  1
  O  O376  1  0.36730680  0.73946839  0.23469242  1
  O  O377  1  0.39348487  0.75738553  0.75393851  1
  O  O378  1  0.88032527  0.24771400  0.23784252  1
  O  O379  1  0.88584293  0.24672844  0.74273194  1
  O  O380  1  0.88502806  0.73756620  0.25709348  1
  O  O381  1  0.88759804  0.75457437  0.75066061  1
  O  O382  1  0.36915740  0.49916254  0.47829578  1
  O  O383  1  0.38145966  0.49065406  0.99793481  1
  O  O384  1  0.37776516  0.99165554  0.48842639  1
  O  O385  1  0.38971552  1.00476692  0.98982134  1
  O  O386  1  0.88082940  0.50863996  0.48873042  1
  O  O387  1  0.88665622  0.49438359  0.98589462  1
  O  O388  1  0.90477061  1.03830517  0.50739291  1
  O  O389  1  0.89732217  0.98534893  1.00564416  1
  O  O390  1  0.11685416  -0.01066493  0.01690704  1
  O  O391  1  0.13081326  0.00329602  0.50514443  1
  O  O392  1  0.11037080  0.49941624  -0.01222304  1
  O  O393  1  0.11753095  0.50384461  0.50777765  1
  O  O394  1  0.61126671  0.01766872  0.00254836  1
  O  O395  1  0.62602545  0.00888636  0.50586080  1
  O  O396  1  0.61274124  0.50033312  0.00414190  1
  O  O397  1  0.62725108  0.49780006  0.51943784  1
  O  O398  1  0.36634549  0.36974889  0.12265215  1
  O  O399  1  0.37320904  0.39002935  0.62385121  1
  O  O400  1  0.38065002  0.86070757  0.12841755  1
  O  O401  1  0.37219657  0.87926489  0.61257859  1
  O  O402  1  0.86541856  0.36612541  0.12102951  1
  O  O403  1  0.87543746  0.35687597  0.62997784  1
  O  O404  1  0.87019053  0.87291332  0.11332231  1
  O  O405  1  0.86192217  0.87506779  0.62142410  1
  O  O406  1  0.10867382  0.13594480  0.36959077  1
  O  O407  1  0.14182179  0.12589103  0.86965356  1
  O  O408  1  0.13227722  0.63144512  0.38107761  1
  O  O409  1  0.13315789  0.63462563  0.87594964  1
  O  O410  1  0.61053532  0.14055021  0.38622390  1
  O  O411  1  0.62178110  0.13693709  0.89281767  1
  O  O412  1  0.62668944  0.63708523  0.37399137  1
  O  O413  1  0.63376495  0.63368640  0.87800162  1
