# generated using pymatgen
data_V79Zn79O256
_symmetry_space_group_name_H-M   'P 1'
_cell_length_a   16.95929768
_cell_length_b   16.91744993
_cell_length_c   16.94200655
_cell_angle_alpha   89.91303293
_cell_angle_beta   89.44272431
_cell_angle_gamma   89.83934481
_symmetry_Int_Tables_number   1
_chemical_formula_structural   V79Zn79O256
_chemical_formula_sum   'V79 Zn79 O256'
_cell_volume   4860.54396704
_cell_formula_units_Z   1
loop_
 _symmetry_equiv_pos_site_id
 _symmetry_equiv_pos_as_xyz
  1  'x, y, z'
loop_
 _atom_site_type_symbol
 _atom_site_label
 _atom_site_symmetry_multiplicity
 _atom_site_fract_x
 _atom_site_fract_y
 _atom_site_fract_z
 _atom_site_occupancy
  V  V0  1  -0.00190526  0.00163266  0.49329988  1
  V  V1  1  0.88068394  0.37660297  -0.00556107  1
  V  V2  1  0.50783955  0.87523513  0.37806144  1
  V  V3  1  0.37182376  0.51374358  0.37040581  1
  V  V4  1  0.26591009  0.26218435  0.00836338  1
  V  V5  1  0.87993565  0.76055452  0.61292420  1
  V  V6  1  0.37069215  0.00015452  0.36178090  1
  V  V7  1  0.87744207  0.61663188  0.24577246  1
  V  V8  1  0.59693860  0.01616309  0.62963671  1
  V  V9  1  0.74839841  0.75028340  -0.00179003  1
  V  V10  1  0.37339631  0.88537777  0.50069790  1
  V  V11  1  0.74634637  0.49716676  0.25610825  1
  V  V12  1  0.37839766  -0.01142382  0.87758611  1
  V  V13  1  0.12401530  0.87647748  0.75708371  1
  V  V14  1  0.12663977  0.00674985  0.63136806  1
  V  V15  1  0.87850554  0.62532708  0.73955737  1
  V  V16  1  0.00098315  0.75549570  0.25615714  1
  V  V17  1  0.75201260  0.24794857  -0.00361635  1
  V  V18  1  0.87460985  0.74882493  0.12556683  1
  V  V19  1  0.48978888  0.49603050  0.00252809  1
  V  V20  1  0.49786565  0.13161052  0.12370326  1
  V  V21  1  0.87622662  0.36534967  0.49401297  1
  V  V22  1  0.62816812  0.12438988  -0.00414315  1
  V  V23  1  0.12396977  0.12916855  0.50159475  1
  V  V24  1  0.12090830  0.25518326  0.37303714  1
  V  V25  1  0.87750644  0.12738619  0.25524215  1
  V  V26  1  0.49736727  -0.01278428  -0.00424838  1
  V  V27  1  0.62679304  0.50399719  0.61731428  1
  V  V28  1  0.75034047  0.50096615  0.75411604  1
  V  V29  1  0.63033832  0.86485416  0.24782571  1
  V  V30  1  0.51457734  0.25189334  0.25282094  1
  V  V31  1  0.00134090  0.50205015  -0.00025268  1
  V  V32  1  0.12090328  0.62566058  0.00631902  1
  V  V33  1  0.25144968  0.87355198  0.62771514  1
  V  V34  1  0.14213872  0.37595140  0.24885510  1
  V  V35  1  0.12360855  0.24704370  0.87917252  1
  V  V36  1  0.87110732  0.02620063  0.87686616  1
  V  V37  1  0.63034722  -0.00389296  0.12220876  1
  V  V38  1  0.50365531  0.63241590  0.62806311  1
  V  V39  1  0.37985838  0.62956572  0.75778926  1
  V  V40  1  0.74917840  0.00708664  0.74895365  1
  V  V41  1  -0.01325377  0.87587044  0.87774736  1
  V  V42  1  0.87829971  0.24605378  0.63979077  1
  V  V43  1  0.24886705  0.00732183  0.76177612  1
  V  V44  1  0.73733595  0.77383513  0.49105972  1
  V  V45  1  0.12990016  -0.00371657  0.13482660  1
  V  V46  1  0.49132359  0.73745889  0.25178539  1
  V  V47  1  0.25073528  0.25701096  0.50079608  1
  V  V48  1  -0.00381763  0.74649492  0.75337779  1
  V  V49  1  0.62543232  0.37557793  0.74990200  1
  V  V50  1  0.10581993  0.37109419  0.75452228  1
  V  V51  1  0.74361057  0.62197696  0.38567826  1
  V  V52  1  0.37576799  0.75058190  0.62196744  1
  V  V53  1  0.50193420  0.50628059  0.50026861  1
  V  V54  1  0.37002815  0.13425175  0.24566144  1
  V  V55  1  0.25921052  0.76136255  -0.00431306  1
  V  V56  1  0.48736635  0.37662296  0.87980075  1
  V  V57  1  -0.00106613  0.13048418  0.63947238  1
  V  V58  1  0.37219591  0.24891049  0.62588073  1
  V  V59  1  0.25982639  0.49017277  0.74565533  1
  V  V60  1  0.25643954  0.52047822  0.24547669  1
  V  V61  1  0.00403216  0.48913397  0.51417072  1
  V  V62  1  0.62364701  0.50247338  0.12404175  1
  V  V63  1  0.74939339  0.36757976  0.61703655  1
  V  V64  1  0.74591745  0.37580780  0.12449395  1
  V  V65  1  0.12660200  0.49698896  0.12324200  1
  V  V66  1  0.37214333  0.12686935  0.75605370  1
  V  V67  1  0.11975341  0.74918075  0.87749744  1
  V  V68  1  0.50980993  0.37348782  0.36894035  1
  V  V69  1  0.49878761  0.24602324  0.74688893  1
  V  V70  1  0.05076457  0.66712088  0.57111207  1
  V  V71  1  0.62878898  0.24806808  0.87416381  1
  V  V72  1  0.74783350  0.00822140  0.25524698  1
  V  V73  1  0.63042365  0.62403824  -0.00719922  1
  V  V74  1  0.87783479  0.50583146  0.87467604  1
  V  V75  1  0.25049208  0.61785525  0.87461201  1
  V  V76  1  0.86750017  0.87681971  0.00678048  1
  V  V77  1  0.37156211  0.37682155  0.50208354  1
  V  V78  1  0.00216973  0.38787078  0.36876560  1
  Zn  Zn79  1  0.94200217  0.83357793  0.43002818  1
  Zn  Zn80  1  0.13811735  0.48596056  0.62268180  1
  Zn  Zn81  1  0.19111710  0.70004356  0.43393862  1
  Zn  Zn82  1  0.38094959  0.74983094  0.12816336  1
  Zn  Zn83  1  0.00316984  0.25488125  0.24507175  1
  Zn  Zn84  1  0.24594095  0.12275752  0.37056464  1
  Zn  Zn85  1  0.00153524  0.12560731  0.12274085  1
  Zn  Zn86  1  0.65367817  0.15065144  0.50075094  1
  Zn  Zn87  1  0.00171243  0.00358121  0.00567926  1
  Zn  Zn88  1  0.13285256  0.12431289  0.00012312  1
  Zn  Zn89  1  0.69868661  0.67955553  0.82521191  1
  Zn  Zn90  1  0.13001267  0.87539088  0.26281045  1
  Zn  Zn91  1  0.85457341  -0.00352641  0.39361591  1
  Zn  Zn92  1  0.26162018  0.88413349  0.12865199  1
  Zn  Zn93  1  0.87969753  0.24745930  0.12128946  1
  Zn  Zn94  1  0.18919049  0.18807910  0.17872251  1
  Zn  Zn95  1  0.18867067  0.19441123  0.69049057  1
  Zn  Zn96  1  0.20215473  0.71567939  0.19865335  1
  Zn  Zn97  1  0.19203394  0.68754387  0.69221836  1
  Zn  Zn98  1  0.68912378  0.18657844  0.18299260  1
  Zn  Zn99  1  0.68807979  0.18315519  0.68615046  1
  Zn  Zn100  1  0.68989710  0.68292111  0.18109433  1
  Zn  Zn101  1  0.69421479  0.69305305  0.66021341  1
  Zn  Zn102  1  0.31743049  0.31615792  0.31631117  1
  Zn  Zn103  1  0.30670890  0.30755780  0.82359804  1
  Zn  Zn104  1  0.31240994  0.81805098  0.30686223  1
  Zn  Zn105  1  0.31400454  0.80876455  0.81355676  1
  Zn  Zn106  1  0.81795968  0.31768960  0.30929856  1
  Zn  Zn107  1  0.81355160  0.31659228  0.81432671  1
  Zn  Zn108  1  0.81042493  0.81336226  0.31279513  1
  Zn  Zn109  1  0.78101215  0.81865391  0.79549047  1
  Zn  Zn110  1  0.18525259  0.53929578  0.43852358  1
  Zn  Zn111  1  0.19203275  0.43175553  0.93456339  1
  Zn  Zn112  1  0.19068470  0.94173010  0.44159055  1
  Zn  Zn113  1  0.18172697  0.94126580  0.94117554  1
  Zn  Zn114  1  0.68606004  0.32177522  0.43322277  1
  Zn  Zn115  1  0.68678765  0.43436211  0.93669283  1
  Zn  Zn116  1  0.68062481  0.95519661  0.44831914  1
  Zn  Zn117  1  0.70190839  0.94317659  0.92496188  1
  Zn  Zn118  1  0.30786939  0.06928595  0.05943837  1
  Zn  Zn119  1  0.31300558  0.06624896  0.56633651  1
  Zn  Zn120  1  0.30818465  0.57074999  0.07162534  1
  Zn  Zn121  1  0.31457122  0.56975193  0.56372465  1
  Zn  Zn122  1  0.81572085  0.06168829  0.06667529  1
  Zn  Zn123  1  0.81266815  0.05671518  0.57623805  1
  Zn  Zn124  1  0.81041606  0.56424899  0.06397965  1
  Zn  Zn125  1  0.81951483  0.55296949  0.56255937  1
  Zn  Zn126  1  0.43431795  0.43421133  0.18574997  1
  Zn  Zn127  1  0.43681336  0.43745223  0.68837833  1
  Zn  Zn128  1  0.44266453  0.93129277  0.18359118  1
  Zn  Zn129  1  0.43232649  0.94239888  0.68786753  1
  Zn  Zn130  1  0.93947526  0.43666939  0.17944852  1
  Zn  Zn131  1  0.93294603  0.43036972  0.68840398  1
  Zn  Zn132  1  0.93988883  0.93605718  0.19094908  1
  Zn  Zn133  1  0.93642493  0.94409985  0.69269170  1
  Zn  Zn134  1  0.06506029  0.06585384  0.30980182  1
  Zn  Zn135  1  0.05959070  0.06541138  0.82244173  1
  Zn  Zn136  1  0.06520779  0.57055701  0.30833888  1
  Zn  Zn137  1  0.06510207  0.55683367  0.81210021  1
  Zn  Zn138  1  0.55579190  0.05813649  0.31075663  1
  Zn  Zn139  1  0.56181146  0.06156190  0.81192928  1
  Zn  Zn140  1  0.56973500  0.55792047  0.31804730  1
  Zn  Zn141  1  0.55823239  0.55835686  0.81307971  1
  Zn  Zn142  1  0.44242982  0.18696402  0.43475584  1
  Zn  Zn143  1  0.43609796  0.18238253  0.93629180  1
  Zn  Zn144  1  0.44072043  0.69531241  0.44151553  1
  Zn  Zn145  1  0.41722389  0.65941565  0.97514099  1
  Zn  Zn146  1  0.81404739  0.18243537  0.43834503  1
  Zn  Zn147  1  0.95257978  0.19527504  0.94206937  1
  Zn  Zn148  1  0.93035233  0.66526528  0.42774522  1
  Zn  Zn149  1  0.93221894  0.68506392  0.93720093  1
  Zn  Zn150  1  0.06671357  0.31152784  0.06240464  1
  Zn  Zn151  1  0.06447050  0.31325027  0.56800297  1
  Zn  Zn152  1  0.05857987  0.81503304  0.06621893  1
  Zn  Zn153  1  0.06565334  0.83015081  0.56883091  1
  Zn  Zn154  1  0.55970522  0.31442982  0.06388056  1
  Zn  Zn155  1  0.55557119  0.31755174  0.56467931  1
  Zn  Zn156  1  0.56407541  0.80621135  0.06866040  1
  Zn  Zn157  1  0.56470939  0.83547215  0.56450639  1
  O  O158  1  0.12207931  0.10886562  0.13335585  1
  O  O159  1  0.12102640  0.12696637  0.62205590  1
  O  O160  1  0.13280958  0.61180122  0.11004190  1
  O  O161  1  0.11614493  0.62023121  0.63179596  1
  O  O162  1  0.61749485  0.11707990  0.11464286  1
  O  O163  1  0.62817824  0.11448847  0.61253288  1
  O  O164  1  0.62713302  0.61117150  0.11230551  1
  O  O165  1  0.61701669  0.61578995  0.63025827  1
  O  O166  1  0.38421252  0.38579571  0.38402911  1
  O  O167  1  0.39011406  0.37190884  0.87302659  1
  O  O168  1  0.37639988  0.88465341  0.37926477  1
  O  O169  1  0.37975718  0.88925003  0.86240950  1
  O  O170  1  0.89260116  0.37055620  0.38112671  1
  O  O171  1  0.86921102  0.38850832  0.88641794  1
  O  O172  1  0.87546092  0.88997468  0.36176946  1
  O  O173  1  0.88081865  0.87571937  0.88344490  1
  O  O174  1  0.26497048  0.00282979  0.37510423  1
  O  O175  1  0.25814688  -0.00593699  0.86706867  1
  O  O176  1  0.26501983  0.50112243  0.36082022  1
  O  O177  1  0.24602284  0.51136272  0.86255166  1
  O  O178  1  0.73723121  0.00241228  0.35821766  1
  O  O179  1  0.77041812  0.03275405  0.89084566  1
  O  O180  1  0.74991778  0.50422271  0.35582748  1
  O  O181  1  0.75675900  0.49205466  0.86065650  1
  O  O182  1  0.24601209  0.50243233  0.13828440  1
  O  O183  1  0.25166238  0.50742075  0.64188580  1
  O  O184  1  0.23680180  0.99882429  0.12076190  1
  O  O185  1  0.24729877  0.99564867  0.63988131  1
  O  O186  1  0.74215990  0.49340995  0.12788838  1
  O  O187  1  0.74492322  0.49130240  0.63230612  1
  O  O188  1  0.73502429  1.00202890  0.13058330  1
  O  O189  1  0.76249885  0.98406112  0.65122466  1
  O  O190  1  0.00670248  0.38021796  0.25623620  1
  O  O191  1  0.00672042  0.37840221  0.75736162  1
  O  O192  1  0.00641958  0.85963516  0.25220545  1
  O  O193  1  0.00338031  0.86858291  0.75882516  1
  O  O194  1  0.49836862  0.36994456  0.26224903  1
  O  O195  1  0.50452434  0.37003308  0.76109591  1
  O  O196  1  0.51085377  0.86688298  0.26040776  1
  O  O197  1  0.51459035  0.86509884  0.72376594  1
  O  O198  1  0.49496799  0.13110993  0.24255807  1
  O  O199  1  0.49156082  0.13975679  0.75688265  1
  O  O200  1  0.51340115  0.64077112  0.26439663  1
  O  O201  1  0.49142785  0.61850268  0.74157172  1
  O  O202  1  0.98450824  0.12344644  0.24990512  1
  O  O203  1  1.00482709  0.12141335  0.73798662  1
  O  O204  1  0.98032060  0.62422503  0.25080105  1
  O  O205  1  0.98921793  0.63110576  0.75801865  1
  O  O206  1  0.36713546  0.24631065  -0.00444401  1
  O  O207  1  0.37247006  0.25262355  0.50528705  1
  O  O208  1  0.35863320  0.76011758  -0.02423094  1
  O  O209  1  0.37425221  0.76367785  0.51288861  1
  O  O210  1  0.86688034  0.25901761  -0.00461973  1
  O  O211  1  0.87267235  0.26129586  0.51011594  1
  O  O212  1  0.86969336  0.75511247  0.00770845  1
  O  O213  1  0.89868916  0.74964301  0.50315492  1
  O  O214  1  0.13202082  0.24825530  0.49476421  1
  O  O215  1  0.13495736  0.25511038  0.99065917  1
  O  O216  1  0.10418306  0.73321223  0.51452167  1
  O  O217  1  0.12414860  0.74145804  0.99529911  1
  O  O218  1  0.62864817  0.25895703  0.50741513  1
  O  O219  1  0.63110035  0.24471316  0.99301191  1
  O  O220  1  0.63840608  0.76802657  0.50775198  1
  O  O221  1  0.62982493  0.73273604  1.00765782  1
  O  O222  1  0.50713591  0.23851907  0.13267196  1
  O  O223  1  0.48924689  0.25825697  0.63977592  1
  O  O224  1  0.50407788  0.75178987  0.14831667  1
  O  O225  1  0.49319509  0.73823377  0.61506924  1
  O  O226  1  0.99766131  0.24885629  0.12987573  1
  O  O227  1  0.98672868  0.24510024  0.62269631  1
  O  O228  1  0.98234803  0.75357432  0.13504998  1
  O  O229  1  0.99998471  0.74215845  0.63011178  1
  O  O230  1  0.01703780  0.26134798  0.36992266  1
  O  O231  1  0.02253818  0.26209155  0.88354855  1
  O  O232  1  -0.01425252  0.74439384  0.36001580  1
  O  O233  1  -0.00015732  0.75683003  0.87196788  1
  O  O234  1  0.49792821  0.26683050  0.37026570  1
  O  O235  1  0.50801843  0.26001144  0.86940337  1
  O  O236  1  0.49599559  0.76604387  0.36722017  1
  O  O237  1  0.52095899  0.78369727  0.86626862  1
  O  O238  1  0.23940131  0.13407694  0.50133603  1
  O  O239  1  0.24614753  0.14247548  1.00291676  1
  O  O240  1  0.24349918  0.62086487  0.49729766  1
  O  O241  1  0.24033789  0.62922643  0.98713909  1
  O  O242  1  0.75439794  0.09890642  0.49040560  1
  O  O243  1  0.73913528  0.13759661  1.01010133  1
  O  O244  1  0.76149744  0.61242587  0.48475548  1
  O  O245  1  0.73803894  0.62892038  0.99907121  1
  O  O246  1  0.25575211  0.36560176  -0.00386668  1
  O  O247  1  0.26368935  0.36350234  0.49608017  1
  O  O248  1  0.24172424  0.86207852  -0.00124921  1
  O  O249  1  0.25695888  0.88514539  0.52122194  1
  O  O250  1  0.75740087  0.36788861  0.00487067  1
  O  O251  1  0.76032138  0.38176819  0.51200408  1
  O  O252  1  0.75798454  0.86948521  -0.00530972  1
  O  O253  1  0.75736898  0.87054731  0.48304069  1
  O  O254  1  0.13894342  0.49867476  0.24350595  1
  O  O255  1  0.13685124  0.48670458  0.74989964  1
  O  O256  1  0.12327438  0.99266105  0.24357882  1
  O  O257  1  0.13237511  0.99763021  0.75250212  1
  O  O258  1  0.63789680  0.50373440  0.23862931  1
  O  O259  1  0.63209617  0.49572126  0.74261769  1
  O  O260  1  0.63040100  0.99910473  0.24108228  1
  O  O261  1  0.62634496  1.00857490  0.73291871  1
  O  O262  1  0.37888416  0.00753364  0.25739071  1
  O  O263  1  0.36812824  0.00803340  0.75678298  1
  O  O264  1  0.36795251  0.50227624  0.25795179  1
  O  O265  1  0.36748650  0.51340897  0.74602417  1
  O  O266  1  0.85530721  0.00512255  0.24089468  1
  O  O267  1  0.86299202  -0.00446310  0.77007150  1
  O  O268  1  0.86315927  0.51074102  0.23348731  1
  O  O269  1  0.87080220  0.50392398  0.75440550  1
  O  O270  1  0.11870912  0.37060112  0.36167682  1
  O  O271  1  0.13191945  0.37103780  0.85923867  1
  O  O272  1  0.15294475  0.85079769  0.38030030  1
  O  O273  1  0.11100484  0.87076758  0.87372478  1
  O  O274  1  0.60753058  0.38631695  0.37812260  1
  O  O275  1  0.62098869  0.36373634  0.86892332  1
  O  O276  1  0.61199478  0.88659183  0.36711050  1
  O  O277  1  0.58134671  0.82404329  0.86548497  1
  O  O278  1  0.38648981  0.11626866  0.13867416  1
  O  O279  1  0.37390565  0.13784043  0.63733276  1
  O  O280  1  0.38835958  0.64461505  0.08730047  1
  O  O281  1  0.38323790  0.63372249  0.63359076  1
  O  O282  1  0.87574667  0.12641389  0.13727867  1
  O  O283  1  0.88189304  0.13950382  0.62492091  1
  O  O284  1  0.86673886  0.63481248  0.13508609  1
  O  O285  1  0.87781200  0.62940549  0.63345402  1
  O  O286  1  0.24580701  0.25501107  0.11008500  1
  O  O287  1  0.26143879  0.24873178  0.61451664  1
  O  O288  1  0.25345309  0.73955471  0.09708533  1
  O  O289  1  0.25871378  0.76362021  0.63426848  1
  O  O290  1  0.74986470  0.25960145  0.11407809  1
  O  O291  1  0.76140672  0.25795496  0.63179201  1
  O  O292  1  0.75911883  0.74833151  0.11174624  1
  O  O293  1  0.77025822  0.74146083  0.58864677  1
  O  O294  1  0.24379703  0.24827464  0.38484863  1
  O  O295  1  0.23921974  0.25078650  0.88918842  1
  O  O296  1  0.22331830  0.79831036  0.38792072  1
  O  O297  1  0.23880046  0.74310431  0.87884882  1
  O  O298  1  0.75453606  0.25523860  0.37592846  1
  O  O299  1  0.74001211  0.25669555  0.88410807  1
  O  O300  1  0.75685227  0.73650280  0.38888351  1
  O  O301  1  0.76100259  0.74887147  0.89471453  1
  O  O302  1  0.01103329  0.12266646  0.00550250  1
  O  O303  1  0.01720455  0.11715153  0.51517972  1
  O  O304  1  0.00979006  0.61636414  -0.00573238  1
  O  O305  1  -0.00364451  0.60504131  0.50507547  1
  O  O306  1  0.51051995  0.12089400  0.00672649  1
  O  O307  1  0.51981579  0.10777228  0.46660569  1
  O  O308  1  0.51690927  0.60324169  -0.00943105  1
  O  O309  1  0.49304576  0.61377312  0.51024399  1
  O  O310  1  0.49091222  0.38632317  0.49157896  1
  O  O311  1  0.50535343  0.38095254  0.98788343  1
  O  O312  1  0.48828689  0.87189684  0.48511183  1
  O  O313  1  0.50919094  0.88926294  1.00660996  1
  O  O314  1  0.99774354  0.37730417  0.49258087  1
  O  O315  1  0.98790617  0.38620113  1.00641976  1
  O  O316  1  1.01209911  0.89505166  0.49762182  1
  O  O317  1  0.98710736  0.87396328  0.99116346  1
  O  O318  1  0.49147709  0.49407804  0.37900780  1
  O  O319  1  0.50500598  0.48391223  0.88477038  1
  O  O320  1  0.48396783  0.98252330  0.36700912  1
  O  O321  1  0.49813348  1.00161536  0.88871509  1
  O  O322  1  1.00864778  0.49065638  0.38524736  1
  O  O323  1  0.99053986  0.50166712  0.88680538  1
  O  O324  1  1.00704011  1.01069875  0.39376695  1
  O  O325  1  0.98860058  0.99000649  0.87541399  1
  O  O326  1  0.01101337  -0.00017237  0.12658339  1
  O  O327  1  0.00759001  0.00853864  0.62311788  1
  O  O328  1  0.01168055  0.50089377  0.11189607  1
  O  O329  1  0.00306291  0.48989090  0.61633926  1
  O  O330  1  0.50952629  0.00861122  0.11411279  1
  O  O331  1  0.49701255  0.01685602  0.62951288  1
  O  O332  1  0.51161505  0.48504357  0.11098601  1
  O  O333  1  0.50584776  0.50707143  0.61989823  1
  O  O334  1  0.24424236  0.38371363  0.25528195  1
  O  O335  1  0.26590311  0.39070203  0.75279198  1
  O  O336  1  0.23192615  0.82839480  0.22932523  1
  O  O337  1  0.24526590  0.88453548  0.74660929  1
  O  O338  1  0.76071543  0.38950232  0.23787357  1
  O  O339  1  0.74585476  0.38183384  0.73965945  1
  O  O340  1  0.73348298  0.88489994  0.25375251  1
  O  O341  1  0.72289080  0.91852464  0.81066963  1
  O  O342  1  0.26782326  0.13354167  0.24999601  1
  O  O343  1  0.25824137  0.11612766  0.74697306  1
  O  O344  1  0.25178894  0.61914720  0.24522221  1
  O  O345  1  0.25887079  0.62070482  0.75835234  1
  O  O346  1  0.75407037  0.11442775  0.24479692  1
  O  O347  1  0.74281348  0.10879863  0.75351663  1
  O  O348  1  0.75425751  0.61536586  0.25293994  1
  O  O349  1  0.76051135  0.61045401  0.74375406  1
  O  O350  1  0.37847805  0.11346986  0.36392171  1
  O  O351  1  0.38009949  0.11288301  0.86179701  1
  O  O352  1  0.38310061  0.61143790  0.38168418  1
  O  O353  1  0.36569644  0.63185516  0.86815928  1
  O  O354  1  0.86896497  0.11105402  0.35745762  1
  O  O355  1  0.89538295  0.12181277  0.87341302  1
  O  O356  1  0.85890048  0.61926349  0.35368702  1
  O  O357  1  0.87205186  0.61266356  0.86578841  1
  O  O358  1  0.12238307  0.38879873  0.13556354  1
  O  O359  1  0.12534383  0.36891645  0.64669315  1
  O  O360  1  0.12477208  0.88731552  0.12536927  1
  O  O361  1  0.13393897  0.88506695  0.63790159  1
  O  O362  1  0.63829406  0.38339584  0.11662462  1
  O  O363  1  0.63086407  0.38393883  0.63169443  1
  O  O364  1  0.61690462  0.88419271  0.14057707  1
  O  O365  1  0.57799694  0.87132903  0.67644575  1
  O  O366  1  0.13056622  0.25878267  0.25670208  1
  O  O367  1  0.13356229  0.26330577  0.76228207  1
  O  O368  1  0.09735081  0.73037983  0.24184820  1
  O  O369  1  0.11734750  0.75515553  0.75729892  1
  O  O370  1  0.61420597  0.24191027  0.25089515  1
  O  O371  1  0.61813939  0.25268197  0.75497501  1
  O  O372  1  0.62832157  0.76286084  0.24691692  1
  O  O373  1  0.69332900  0.76098047  0.74722114  1
  O  O374  1  0.38770554  0.23688054  0.25885438  1
  O  O375  1  0.37773803  0.24561909  0.74687743  1
  O  O376  1  0.38777300  0.74282631  0.25632116  1
  O  O377  1  0.37360256  0.74076965  0.73882378  1
  O  O378  1  0.87454313  0.23518101  0.24792433  1
  O  O379  1  0.87582178  0.25708966  0.73900653  1
  O  O380  1  0.87546341  0.74140815  0.24261754  1
  O  O381  1  0.87703602  0.74268501  0.73850142  1
  O  O382  1  0.38051114  0.49497662  0.49214647  1
  O  O383  1  0.39205044  0.50268571  1.00572620  1
  O  O384  1  0.37155078  0.99197528  0.49262502  1
  O  O385  1  0.39068202  1.00540057  0.99400576  1
  O  O386  1  0.89222301  0.48114587  0.50730614  1
  O  O387  1  0.88029654  0.49858124  0.99455859  1
  O  O388  1  0.89553030  1.00636291  0.50570749  1
  O  O389  1  0.87724990  0.99448613  0.99186710  1
  O  O390  1  0.12095726  0.00367505  0.01216847  1
  O  O391  1  0.12442702  0.01083916  0.50994494  1
  O  O392  1  0.12049684  0.50296623  0.00301221  1
  O  O393  1  0.11066828  0.48721423  0.50847049  1
  O  O394  1  0.62103780  0.00499097  -0.00117842  1
  O  O395  1  0.62503929  -0.04467571  0.54819538  1
  O  O396  1  0.62715660  0.50648144  0.00545884  1
  O  O397  1  0.61285333  0.49509335  0.51417520  1
  O  O398  1  0.37456147  0.35842276  0.13458704  1
  O  O399  1  0.38238107  0.36592594  0.61273175  1
  O  O400  1  0.37352095  0.86409869  0.13018142  1
  O  O401  1  0.37065232  0.87156163  0.62086213  1
  O  O402  1  0.86380157  0.37552032  0.11202828  1
  O  O403  1  0.86873126  0.36369777  0.61933366  1
  O  O404  1  0.87574986  0.86993611  0.11294144  1
  O  O405  1  0.88597504  0.85927754  0.63059073  1
  O  O406  1  0.12661944  0.13564615  0.38306648  1
  O  O407  1  0.12486063  0.14100574  0.87329622  1
  O  O408  1  0.13065979  0.62078493  0.37925714  1
  O  O409  1  0.13108437  0.62900491  0.88080297  1
  O  O410  1  0.58518756  0.10965600  0.41112527  1
  O  O411  1  0.61717529  0.13703112  0.88471819  1
  O  O412  1  0.64416944  0.61941014  0.37812813  1
  O  O413  1  0.62609983  0.61848979  0.88508031  1
