# generated using pymatgen
data_V79Zn79O256
_symmetry_space_group_name_H-M   'P 1'
_cell_length_a   16.92161149
_cell_length_b   16.93220558
_cell_length_c   16.96084785
_cell_angle_alpha   90.17957356
_cell_angle_beta   90.06148994
_cell_angle_gamma   90.12135575
_symmetry_Int_Tables_number   1
_chemical_formula_structural   V79Zn79O256
_chemical_formula_sum   'V79 Zn79 O256'
_cell_volume   4859.58799259
_cell_formula_units_Z   1
loop_
 _symmetry_equiv_pos_site_id
 _symmetry_equiv_pos_as_xyz
  1  'x, y, z'
loop_
 _atom_site_type_symbol
 _atom_site_label
 _atom_site_symmetry_multiplicity
 _atom_site_fract_x
 _atom_site_fract_y
 _atom_site_fract_z
 _atom_site_occupancy
  V  V0  1  0.37814296  0.74927223  0.12166074  1
  V  V1  1  0.61780394  0.11773173  0.49976032  1
  V  V2  1  0.89513542  -0.00385853  0.37215780  1
  V  V3  1  0.00757837  0.75366449  0.24259729  1
  V  V4  1  -0.00703749  0.24357473  0.24384619  1
  V  V5  1  0.50284398  0.75209474  0.25196030  1
  V  V6  1  0.13123804  0.38504570  0.24656073  1
  V  V7  1  0.49465971  0.37530881  0.38033693  1
  V  V8  1  0.35972045  0.11367578  0.26027442  1
  V  V9  1  0.49173434  0.25084520  0.75557178  1
  V  V10  1  0.24786498  0.38866637  0.11772522  1
  V  V11  1  0.50365098  0.86931873  0.87177924  1
  V  V12  1  0.49373038  0.11994851  0.63169335  1
  V  V13  1  0.24132802  0.86877923  0.63373411  1
  V  V14  1  0.74790673  0.86334563  0.62355421  1
  V  V15  1  0.63169731  -0.00274557  0.63014196  1
  V  V16  1  0.74573042  0.24840677  0.49473586  1
  V  V17  1  0.25022278  0.62974651  0.37846694  1
  V  V18  1  0.87084916  0.87610993  -0.00875050  1
  V  V19  1  0.63985321  0.25260428  0.87306036  1
  V  V20  1  0.38037946  0.00977089  0.86206433  1
  V  V21  1  0.49278456  0.25461983  0.24627450  1
  V  V22  1  0.68674694  0.44514781  0.06993610  1
  V  V23  1  0.37809428  0.48653593  0.86774079  1
  V  V24  1  0.37353402  0.62415634  0.25227957  1
  V  V25  1  0.89564896  0.87263940  0.50757598  1
  V  V26  1  0.87224315  0.12236563  0.77526424  1
  V  V27  1  0.48124125  0.49107156  -0.00110683  1
  V  V28  1  0.62383277  0.74848095  0.86612344  1
  V  V29  1  0.63666164  0.13302423  -0.00169905  1
  V  V30  1  0.38613203  0.88262509  0.50942263  1
  V  V31  1  0.86495161  0.75584369  0.13000898  1
  V  V32  1  0.12437663  0.37079442  0.74554115  1
  V  V33  1  0.11867061  0.50165689  0.62385062  1
  V  V34  1  0.12743196  0.24133942  0.37512631  1
  V  V35  1  0.75025405  0.62871171  0.37858053  1
  V  V36  1  0.37578135  0.87191901  -0.00277334  1
  V  V37  1  -0.00442985  0.25219342  0.74175777  1
  V  V38  1  0.63049817  0.24071695  0.36248210  1
  V  V39  1  0.62713165  0.62729929  0.00274286  1
  V  V40  1  0.64048227  -0.00395712  0.12473667  1
  V  V41  1  0.63089835  0.75004087  0.38129589  1
  V  V42  1  0.25738970  0.01241540  0.73711927  1
  V  V43  1  0.25690505  0.50351643  0.74737419  1
  V  V44  1  0.75694696  0.63014048  0.86985070  1
  V  V45  1  0.24905858  0.62401703  0.87720239  1
  V  V46  1  0.85797421  0.25044839  0.11405912  1
  V  V47  1  0.87772376  0.50000396  0.37299892  1
  V  V48  1  0.11770787  0.62309669  0.50324047  1
  V  V49  1  0.49872395  0.89415930  0.37196753  1
  V  V50  1  0.49437316  0.12458701  0.12477118  1
  V  V51  1  0.87358829  0.37298872  0.49898801  1
  V  V52  1  0.37304350  0.50053412  0.37807274  1
  V  V53  1  -0.00269424  0.00071160  -0.01034962  1
  V  V54  1  0.50321530  0.61960877  0.12465077  1
  V  V55  1  0.49868622  -0.00076264  0.00195122  1
  V  V56  1  0.74969361  0.49722156  0.24784058  1
  V  V57  1  0.26105729  0.24851005  0.49425790  1
  V  V58  1  0.12179083  0.00944667  0.12734507  1
  V  V59  1  0.74983650  0.50200676  0.74708231  1
  V  V60  1  0.00104849  0.37621748  0.37411315  1
  V  V61  1  0.88810978  0.73656585  0.63468717  1
  V  V62  1  0.87784942  0.50483565  0.87580620  1
  V  V63  1  0.24293042  0.87899418  0.12741628  1
  V  V64  1  0.62230345  0.38326709  0.24637075  1
  V  V65  1  0.00219164  0.37713251  0.87526571  1
  V  V66  1  0.02575035  0.74406845  0.76796802  1
  V  V67  1  0.36029739  0.25106836  0.11170627  1
  V  V68  1  0.11280094  0.75389907  0.38618211  1
  V  V69  1  0.26097108  0.37417822  0.61408814  1
  V  V70  1  0.87416297  0.23612399  0.62005839  1
  V  V71  1  0.47878996  0.74700318  0.74685245  1
  V  V72  1  0.50792136  0.50232552  0.50196619  1
  V  V73  1  0.49453075  0.62506389  0.62868933  1
  V  V74  1  0.12444420  0.12512695  0.53048361  1
  V  V75  1  0.74188569  0.37768432  0.62530877  1
  V  V76  1  0.23269183  0.74702125  -0.00659320  1
  V  V77  1  0.01363336  0.51003277  0.01257915  1
  V  V78  1  0.64192469  0.87689285  0.24531781  1
  Zn  Zn79  1  0.02988834  0.87747743  0.87190531  1
  Zn  Zn80  1  0.63169063  0.62665336  0.50965527  1
  Zn  Zn81  1  0.37371795  0.24049502  0.62456344  1
  Zn  Zn82  1  -0.00794632  0.12089678  0.12620000  1
  Zn  Zn83  1  0.16674999  0.18179303  0.95103844  1
  Zn  Zn84  1  0.74685461  0.75540351  0.00443830  1
  Zn  Zn85  1  0.76792265  0.10765265  0.34883776  1
  Zn  Zn86  1  -0.00486446  0.50050967  0.50642605  1
  Zn  Zn87  1  -0.02898270  0.05005211  0.57258418  1
  Zn  Zn88  1  0.12583627  0.89680120  0.29060931  1
  Zn  Zn89  1  0.86868972  0.37547117  0.00313220  1
  Zn  Zn90  1  0.76050083  -0.00084772  0.76582816  1
  Zn  Zn91  1  0.88672381  0.62122273  0.24521145  1
  Zn  Zn92  1  0.26668026  0.74710466  0.50954565  1
  Zn  Zn93  1  0.61952930  0.37522235  0.74835714  1
  Zn  Zn94  1  0.18350396  0.18887122  0.19266500  1
  Zn  Zn95  1  0.19025680  0.18357996  0.79229206  1
  Zn  Zn96  1  0.19363609  0.70139688  0.19707127  1
  Zn  Zn97  1  0.19552652  0.68567286  0.68694033  1
  Zn  Zn98  1  0.68551014  0.18819412  0.18380417  1
  Zn  Zn99  1  0.69062371  0.18469221  0.68919436  1
  Zn  Zn100  1  0.68898825  0.68441465  0.19231104  1
  Zn  Zn101  1  0.68208642  0.68384753  0.68588325  1
  Zn  Zn102  1  0.31189973  0.31118870  0.30825027  1
  Zn  Zn103  1  0.31563153  0.30675417  0.80908332  1
  Zn  Zn104  1  0.29131697  0.84409616  0.33718808  1
  Zn  Zn105  1  0.20145549  0.83278215  0.82081753  1
  Zn  Zn106  1  0.81193958  0.31393006  0.30733101  1
  Zn  Zn107  1  0.81681244  0.31542697  0.81110571  1
  Zn  Zn108  1  0.82332227  0.81729012  0.32083686  1
  Zn  Zn109  1  0.81037890  0.81394849  0.80544658  1
  Zn  Zn110  1  0.18786536  0.44035700  0.43310028  1
  Zn  Zn111  1  0.20912247  0.37350087  0.91377417  1
  Zn  Zn112  1  0.19222870  0.94125906  0.45763636  1
  Zn  Zn113  1  0.17103423  1.01387737  0.91046106  1
  Zn  Zn114  1  0.68577524  0.43403365  0.43259807  1
  Zn  Zn115  1  0.66925908  0.44920853  0.90208806  1
  Zn  Zn116  1  0.69385133  0.92774184  0.43476980  1
  Zn  Zn117  1  0.69441466  0.93225696  0.94199254  1
  Zn  Zn118  1  0.30452729  0.06638034  0.05473935  1
  Zn  Zn119  1  0.31239129  0.05755248  0.55284400  1
  Zn  Zn120  1  0.19487180  0.56648936  0.06157877  1
  Zn  Zn121  1  0.31657664  0.56122268  0.55979012  1
  Zn  Zn122  1  0.82333920  0.06931002  0.05867285  1
  Zn  Zn123  1  0.79034276  0.03729041  0.52174445  1
  Zn  Zn124  1  0.82799313  0.57483641  0.05686936  1
  Zn  Zn125  1  0.80984527  0.55984597  0.56149295  1
  Zn  Zn126  1  0.42770964  0.43945703  0.18558398  1
  Zn  Zn127  1  0.44340239  0.43655298  0.68368172  1
  Zn  Zn128  1  0.43893307  0.93604300  0.19057429  1
  Zn  Zn129  1  0.45102013  0.93748185  0.68878935  1
  Zn  Zn130  1  0.93595182  0.42864096  0.18537856  1
  Zn  Zn131  1  0.93033598  0.43823290  0.68723144  1
  Zn  Zn132  1  0.94378190  0.92960647  0.19272203  1
  Zn  Zn133  1  0.93806892  0.92935495  0.70238852  1
  Zn  Zn134  1  0.06479999  0.06213646  0.31274924  1
  Zn  Zn135  1  0.06774381  0.06302204  0.74685400  1
  Zn  Zn136  1  0.06130776  0.57079592  0.18972790  1
  Zn  Zn137  1  0.06750854  0.56096777  0.81295661  1
  Zn  Zn138  1  0.58048477  0.07147875  0.30088163  1
  Zn  Zn139  1  0.60026525  0.04179661  0.83418184  1
  Zn  Zn140  1  0.56262346  0.56364367  0.31525003  1
  Zn  Zn141  1  0.56024342  0.56516507  0.81152806  1
  Zn  Zn142  1  0.44371029  0.17999936  0.43486941  1
  Zn  Zn143  1  0.44099217  0.19074860  0.93741980  1
  Zn  Zn144  1  0.44208185  0.69253826  0.44123232  1
  Zn  Zn145  1  0.43170637  0.67692090  0.93314565  1
  Zn  Zn146  1  0.94215584  0.18292734  0.43652294  1
  Zn  Zn147  1  0.96938095  0.19789844  0.94576945  1
  Zn  Zn148  1  0.93299711  0.68633697  0.44278642  1
  Zn  Zn149  1  0.94452136  0.69281683  0.94151053  1
  Zn  Zn150  1  0.06484245  0.31768035  0.05941934  1
  Zn  Zn151  1  0.06581042  0.31014527  0.56138702  1
  Zn  Zn152  1  0.05806299  0.81979059  0.06082083  1
  Zn  Zn153  1  0.06470485  0.80789465  0.57818375  1
  Zn  Zn154  1  0.55620002  0.30921633  0.05889443  1
  Zn  Zn155  1  0.55898356  0.30612231  0.56136984  1
  Zn  Zn156  1  0.56523400  0.81289440  0.06314610  1
  Zn  Zn157  1  0.55665233  0.81367669  0.56248059  1
  O  O158  1  0.12415057  0.11203758  0.12675234  1
  O  O159  1  0.12464290  0.13191362  0.62744839  1
  O  O160  1  0.13740548  0.62951305  0.13396096  1
  O  O161  1  0.13632860  0.61442809  0.61184879  1
  O  O162  1  0.61551276  0.11804754  0.11561684  1
  O  O163  1  0.62072119  0.11918242  0.61671373  1
  O  O164  1  0.61512627  0.62973860  0.11651625  1
  O  O165  1  0.60935861  0.62770835  0.62162424  1
  O  O166  1  0.38544232  0.38560826  0.36246406  1
  O  O167  1  0.37330050  0.38623311  0.87305528  1
  O  O168  1  0.39861959  0.87878936  0.36106241  1
  O  O169  1  0.39286677  0.88419461  0.88763755  1
  O  O170  1  0.88011729  0.38022277  0.37811345  1
  O  O171  1  0.88129858  0.38705788  0.87854947  1
  O  O172  1  0.87692537  0.88165458  0.40006415  1
  O  O173  1  0.86961811  0.86648781  0.89073739  1
  O  O174  1  0.21963539  -0.06801163  0.35030551  1
  O  O175  1  0.27745950  -0.00630761  0.85226632  1
  O  O176  1  0.26213914  0.51301992  0.38163706  1
  O  O177  1  0.26241014  0.49439711  0.86320427  1
  O  O178  1  0.77046169  0.00533204  0.40291700  1
  O  O179  1  0.70664543  0.00625570  0.86386231  1
  O  O180  1  0.75882205  0.50271747  0.36602202  1
  O  O181  1  0.76090626  0.51127117  0.87113699  1
  O  O182  1  0.25435367  0.48725960  0.12455180  1
  O  O183  1  0.24629894  0.49225802  0.62695916  1
  O  O184  1  0.23855800  0.98664928  0.11636751  1
  O  O185  1  0.27510939  0.98325046  0.63372161  1
  O  O186  1  0.75030264  0.50408835  0.12794892  1
  O  O187  1  0.75333523  0.49299761  0.63619859  1
  O  O188  1  0.73752146  1.00963913  0.11938270  1
  O  O189  1  0.73695637  1.00151761  0.62244013  1
  O  O190  1  0.00879513  0.36581059  0.25752996  1
  O  O191  1  0.00504499  0.37558250  0.75271355  1
  O  O192  1  0.01466212  0.86008566  0.25742962  1
  O  O193  1  -0.00693752  0.84987373  0.76211162  1
  O  O194  1  0.50261872  0.37327949  0.25193731  1
  O  O195  1  0.50565068  0.35676108  0.73674081  1
  O  O196  1  0.51317435  0.86823575  0.25364023  1
  O  O197  1  0.49834958  0.85855928  0.76112463  1
  O  O198  1  0.50027323  0.13665027  0.23648876  1
  O  O199  1  0.50667679  0.13874789  0.73419227  1
  O  O200  1  0.49878084  0.63222080  0.24337826  1
  O  O201  1  0.50127725  0.63261674  0.73974569  1
  O  O202  1  1.00442484  0.14167003  0.25030143  1
  O  O203  1  0.98319709  0.14548379  0.74894297  1
  O  O204  1  1.00123113  0.64439875  0.25327368  1
  O  O205  1  1.00971637  0.64301707  0.75905435  1
  O  O206  1  0.37751565  0.24861898  0.01350406  1
  O  O207  1  0.36368227  0.24636230  0.49534637  1
  O  O208  1  0.38549084  0.75544962  0.00858851  1
  O  O209  1  0.37667423  0.77457678  0.48168791  1
  O  O210  1  0.88080683  0.25348500  0.01188766  1
  O  O211  1  0.86598788  0.25463353  0.50065780  1
  O  O212  1  0.87694701  0.75844193  0.01427839  1
  O  O213  1  0.88448377  0.76200844  0.51531191  1
  O  O214  1  0.13403548  0.24304414  0.49494918  1
  O  O215  1  0.07746858  0.23846848  0.98262098  1
  O  O216  1  0.12064796  0.73285772  0.50286736  1
  O  O217  1  0.13543343  0.75530287  1.00204482  1
  O  O218  1  0.63197894  0.24747626  0.48906007  1
  O  O219  1  0.62099402  0.23971682  0.99505372  1
  O  O220  1  0.62068348  0.75249536  0.48332618  1
  O  O221  1  0.62335906  0.73944374  0.99342438  1
  O  O222  1  0.48790308  0.24575618  0.12890027  1
  O  O223  1  0.49694738  0.24031055  0.63089613  1
  O  O224  1  0.49837327  0.74382575  0.13170127  1
  O  O225  1  0.50339928  0.74317741  0.63856192  1
  O  O226  1  1.00106234  0.25152989  0.13998727  1
  O  O227  1  0.98523719  0.26659515  0.63234478  1
  O  O228  1  1.00236385  0.75431251  0.13945431  1
  O  O229  1  0.99327184  0.74633647  0.64449411  1
  O  O230  1  0.00540315  0.25909045  0.36736795  1
  O  O231  1  -0.01347239  0.27144281  0.85438247  1
  O  O232  1  0.00985062  0.73955561  0.37290793  1
  O  O233  1  0.01112547  0.75266962  0.87262084  1
  O  O234  1  0.50368057  0.25813232  0.36219947  1
  O  O235  1  0.50047751  0.24600510  0.85815642  1
  O  O236  1  0.51236194  0.75224657  0.36225451  1
  O  O237  1  0.50181707  0.74779146  0.86518730  1
  O  O238  1  0.24356515  0.14491067  0.51112794  1
  O  O239  1  0.23188895  0.09609345  0.97680320  1
  O  O240  1  0.24773869  0.62864412  0.49447829  1
  O  O241  1  0.25278742  0.64156892  0.99523126  1
  O  O242  1  0.73189606  0.13827626  0.49956115  1
  O  O243  1  0.73433887  0.12258585  1.00268781  1
  O  O244  1  0.74624678  0.61551091  0.48251298  1
  O  O245  1  0.74111713  0.62925809  0.99274319  1
  O  O246  1  0.23933493  0.37258225  0.01949422  1
  O  O247  1  0.24415477  0.36904027  0.50799855  1
  O  O248  1  0.26566413  0.85872744  0.00906122  1
  O  O249  1  0.26682393  0.87393177  0.52027174  1
  O  O250  1  0.74132525  0.39294515  0.00526030  1
  O  O251  1  0.75246968  0.36895024  0.50416937  1
  O  O252  1  0.76323159  0.87162257  0.00599420  1
  O  O253  1  0.76365654  0.88252749  0.51915706  1
  O  O254  1  0.11584288  0.48256359  0.24927345  1
  O  O255  1  0.13505430  0.49296989  0.73872948  1
  O  O256  1  0.11845573  0.99781012  0.23296898  1
  O  O257  1  0.16039776  0.99380067  0.74510220  1
  O  O258  1  0.63126121  0.49223637  0.25192680  1
  O  O259  1  0.64054658  0.48875668  0.77735208  1
  O  O260  1  0.62422988  0.99225339  0.23069818  1
  O  O261  1  0.62369458  1.00294047  0.72960862  1
  O  O262  1  0.37672798  0.01622636  0.23861026  1
  O  O263  1  0.39069952  0.00165172  0.75996187  1
  O  O264  1  0.38408115  0.51611512  0.26136777  1
  O  O265  1  0.37194020  0.49300917  0.75777100  1
  O  O266  1  0.87873704  -0.01979465  0.27404094  1
  O  O267  1  0.87826462  0.01834685  0.76046629  1
  O  O268  1  0.86695362  0.49729114  0.25561342  1
  O  O269  1  0.86227302  0.49738945  0.76187245  1
  O  O270  1  0.11918056  0.36978659  0.36663756  1
  O  O271  1  0.11262906  0.38901707  0.85577551  1
  O  O272  1  0.11244387  0.85093812  0.41026692  1
  O  O273  1  0.14097239  0.90153451  0.88510914  1
  O  O274  1  0.61504865  0.36750318  0.36185903  1
  O  O275  1  0.61645918  0.35393775  0.87832976  1
  O  O276  1  0.62063269  0.86890540  0.36591823  1
  O  O277  1  0.61050706  0.85941104  0.89119617  1
  O  O278  1  0.37729519  0.13469986  0.12810810  1
  O  O279  1  0.39131658  0.12014412  0.61585726  1
  O  O280  1  0.38790549  0.63699481  0.13470081  1
  O  O281  1  0.39348054  0.62608583  0.61677275  1
  O  O282  1  0.87566387  0.14375766  0.12832194  1
  O  O283  1  0.87739998  0.13707577  0.61083831  1
  O  O284  1  0.87715248  0.64625940  0.12968703  1
  O  O285  1  0.87104317  0.63921466  0.61321831  1
  O  O286  1  0.25832406  0.24759130  0.12314195  1
  O  O287  1  0.25547288  0.26696800  0.61256024  1
  O  O288  1  0.26189231  0.75469020  0.11141583  1
  O  O289  1  0.25375120  0.76169154  0.62561510  1
  O  O290  1  0.75706165  0.24924903  0.12445401  1
  O  O291  1  0.75592104  0.25654564  0.61365217  1
  O  O292  1  0.76067349  0.75081184  0.12931630  1
  O  O293  1  0.74727700  0.76109834  0.62667356  1
  O  O294  1  0.24269429  0.26219198  0.38833695  1
  O  O295  1  0.23115643  0.26365318  0.87009140  1
  O  O296  1  0.23666700  0.74531487  0.38417404  1
  O  O297  1  0.25121016  0.74372810  0.88796477  1
  O  O298  1  0.74663906  0.25617688  0.38417425  1
  O  O299  1  0.73903850  0.25406772  0.87284226  1
  O  O300  1  0.74480551  0.73907869  0.36477627  1
  O  O301  1  0.74170295  0.74435633  0.87581713  1
  O  O302  1  -0.01869351  0.10233157  0.00833665  1
  O  O303  1  0.01820387  0.13290341  0.50704825  1
  O  O304  1  -0.00269206  0.60772568  -0.00540064  1
  O  O305  1  0.01418263  0.61801703  0.49621596  1
  O  O306  1  0.50311871  0.11806840  0.01083926  1
  O  O307  1  0.51189700  0.13756332  0.51779984  1
  O  O308  1  0.50922156  0.61364423  0.00489691  1
  O  O309  1  0.50551979  0.62091961  0.50733981  1
  O  O310  1  0.50547547  0.37999437  0.48604830  1
  O  O311  1  0.50334415  0.39380515  1.00615185  1
  O  O312  1  0.49822126  0.87667059  0.48070722  1
  O  O313  1  0.49545081  0.88191532  0.99880553  1
  O  O314  1  0.99583468  0.37472559  0.48803478  1
  O  O315  1  1.00025646  0.39186578  0.98805846  1
  O  O316  1  0.99455088  0.87545607  0.51763954  1
  O  O317  1  0.98720984  0.88012050  0.99586263  1
  O  O318  1  0.49458065  0.49390587  0.37968430  1
  O  O319  1  0.48867155  0.50668250  0.88536382  1
  O  O320  1  0.51452857  0.99091205  0.36104970  1
  O  O321  1  0.50381246  0.98984252  0.88440067  1
  O  O322  1  0.98617247  0.48742780  0.37257575  1
  O  O323  1  0.99156678  0.49613134  0.87493350  1
  O  O324  1  0.99650437  0.99891960  0.37853535  1
  O  O325  1  0.99901242  0.99651649  0.89075418  1
  O  O326  1  0.00865280  -0.00211773  0.12525700  1
  O  O327  1  0.01244140  0.00376125  0.66332227  1
  O  O328  1  -0.00453776  0.50098364  0.11773208  1
  O  O329  1  0.01333720  0.49330848  0.62504463  1
  O  O330  1  0.50273113  0.00751182  0.11697484  1
  O  O331  1  0.51394955  0.01277514  0.62477528  1
  O  O332  1  0.48745961  0.51099047  0.11339325  1
  O  O333  1  0.49843843  0.51098268  0.61555624  1
  O  O334  1  0.23654251  0.37219407  0.24465154  1
  O  O335  1  0.24364560  0.38194869  0.73479479  1
  O  O336  1  0.25922679  0.85761374  0.22310257  1
  O  O337  1  0.26570494  0.87727947  0.73555783  1
  O  O338  1  0.73782220  0.38632229  0.25241097  1
  O  O339  1  0.74845978  0.38222005  0.74103065  1
  O  O340  1  0.74013697  0.87182345  0.25826586  1
  O  O341  1  0.75953566  0.88596551  0.72870251  1
  O  O342  1  0.26080025  0.12923028  0.25196648  1
  O  O343  1  0.26343854  0.11339244  0.73520076  1
  O  O344  1  0.26637570  0.63917252  0.26507759  1
  O  O345  1  0.25021246  0.60866949  0.75399767  1
  O  O346  1  0.68511608  0.14613790  0.28708295  1
  O  O347  1  0.76932672  0.12700877  0.74799425  1
  O  O348  1  0.75082543  0.61011058  0.25775669  1
  O  O349  1  0.74133477  0.61646665  0.76169598  1
  O  O350  1  0.38251121  0.12608839  0.35806813  1
  O  O351  1  0.38807519  0.10713223  0.88070925  1
  O  O352  1  0.37279057  0.62236823  0.37087168  1
  O  O353  1  0.36134501  0.60632154  0.87848310  1
  O  O354  1  0.87911349  0.10662331  0.37958226  1
  O  O355  1  0.88047838  0.13946802  0.87157402  1
  O  O356  1  0.86842802  0.61600381  0.37233753  1
  O  O357  1  0.86368443  0.62242873  0.88340566  1
  O  O358  1  0.13508657  0.36759795  0.13772124  1
  O  O359  1  0.13391688  0.38377840  0.62741681  1
  O  O360  1  0.13863355  0.87719403  0.12355948  1
  O  O361  1  0.14262427  0.87675047  0.62452540  1
  O  O362  1  0.62564833  0.38165272  0.12680515  1
  O  O363  1  0.63889363  0.36702678  0.62343630  1
  O  O364  1  0.62636705  0.88797099  0.12703832  1
  O  O365  1  0.63407062  0.88712643  0.61321979  1
  O  O366  1  0.11567884  0.25894810  0.25809881  1
  O  O367  1  0.11236310  0.26456300  0.74069688  1
  O  O368  1  0.12137451  0.75556478  0.27257934  1
  O  O369  1  0.12948153  0.75273514  0.75674340  1
  O  O370  1  0.60888023  0.26794644  0.24227263  1
  O  O371  1  0.62164181  0.24667320  0.76275436  1
  O  O372  1  0.61989630  0.75771091  0.25270480  1
  O  O373  1  0.62197985  0.74664262  0.76520913  1
  O  O374  1  0.38179560  0.24152236  0.24148545  1
  O  O375  1  0.38725802  0.24989044  0.74365859  1
  O  O376  1  0.39068571  0.74405795  0.24062816  1
  O  O377  1  0.38416728  0.74424086  0.75020229  1
  O  O378  1  0.88744211  0.25577918  0.24407194  1
  O  O379  1  0.87608832  0.24537148  0.73759993  1
  O  O380  1  0.88853224  0.75664684  0.24397509  1
  O  O381  1  0.86694263  0.74374185  0.73441357  1
  O  O382  1  0.38987031  0.50407522  0.48581708  1
  O  O383  1  0.38152275  0.49390050  0.98802916  1
  O  O384  1  0.37041599  0.98158357  0.48852180  1
  O  O385  1  0.38522567  0.99222431  0.99552749  1
  O  O386  1  0.87523993  0.49248170  0.48965194  1
  O  O387  1  0.88116327  0.49788611  0.98968729  1
  O  O388  1  0.89301880  0.98883687  0.50957402  1
  O  O389  1  0.88134729  0.98235900  1.01030072  1
  O  O390  1  0.10316155  -0.00540363  0.01609185  1
  O  O391  1  0.14171586  0.02752966  0.50715280  1
  O  O392  1  0.11366556  0.50143300  0.00623680  1
  O  O393  1  0.12515675  0.50779879  0.50563166  1
  O  O394  1  0.61571578  0.00852779  0.01021359  1
  O  O395  1  0.62725039  0.01451815  0.50485303  1
  O  O396  1  0.62744502  0.50531539  0.00281094  1
  O  O397  1  0.61216584  0.50272204  0.48845215  1
  O  O398  1  0.35826759  0.36146724  0.13501201  1
  O  O399  1  0.36207576  0.38001253  0.62169789  1
  O  O400  1  0.37576537  0.86742323  0.11621121  1
  O  O401  1  0.39985219  0.87513513  0.60892718  1
  O  O402  1  0.87482152  0.35826997  0.12269797  1
  O  O403  1  0.86221580  0.37076294  0.61624071  1
  O  O404  1  0.88159730  0.86030053  0.12147853  1
  O  O405  1  0.86872507  0.86326388  0.62162100  1
  O  O406  1  0.12522489  0.14094463  0.37226458  1
  O  O407  1  0.12211446  0.10869849  0.84797144  1
  O  O408  1  0.13768634  0.63041152  0.39310293  1
  O  O409  1  0.14928010  0.60888496  0.87644982  1
  O  O410  1  0.59809758  0.13204824  0.39807030  1
  O  O411  1  0.61410860  0.13960204  0.89273554  1
  O  O412  1  0.63363403  0.63494023  0.37167804  1
  O  O413  1  0.63176071  0.63031177  0.88525104  1
