# generated using pymatgen
data_V79Zn79O256
_symmetry_space_group_name_H-M   'P 1'
_cell_length_a   16.87416937
_cell_length_b   16.87854907
_cell_length_c   16.88303878
_cell_angle_alpha   89.85851283
_cell_angle_beta   90.01363231
_cell_angle_gamma   90.18000241
_symmetry_Int_Tables_number   1
_chemical_formula_structural   V79Zn79O256
_chemical_formula_sum   'V79 Zn79 O256'
_cell_volume   4808.44500917
_cell_formula_units_Z   1
loop_
 _symmetry_equiv_pos_site_id
 _symmetry_equiv_pos_as_xyz
  1  'x, y, z'
loop_
 _atom_site_type_symbol
 _atom_site_label
 _atom_site_symmetry_multiplicity
 _atom_site_fract_x
 _atom_site_fract_y
 _atom_site_fract_z
 _atom_site_occupancy
  V  V0  1  -0.00006390  0.62122767  0.62009807  1
  V  V1  1  -0.00452089  0.74369923  0.24027705  1
  V  V2  1  0.37751586  0.12265529  0.26036181  1
  V  V3  1  0.48684983  0.49507021  -0.00605312  1
  V  V4  1  0.62409002  0.86758931  0.24904438  1
  V  V5  1  0.25058502  0.74836290  -0.01083166  1
  V  V6  1  0.13688317  0.13101691  0.49350176  1
  V  V7  1  0.37357387  0.87557171  0.49805865  1
  V  V8  1  0.38139638  0.63678523  0.24568085  1
  V  V9  1  0.00726648  0.12384613  0.63240809  1
  V  V10  1  0.50256995  0.74302778  0.74681801  1
  V  V11  1  0.75178297  0.87935520  0.63245851  1
  V  V12  1  0.62137336  0.74745807  0.37352809  1
  V  V13  1  0.62307777  0.75276348  0.87370422  1
  V  V14  1  0.03052335  0.37044744  0.87485139  1
  V  V15  1  0.62224302  0.12464749  0.51770395  1
  V  V16  1  0.87411591  0.24230778  0.62454341  1
  V  V17  1  0.25127275  0.37418543  0.12191472  1
  V  V18  1  0.62872985  0.00195681  0.10814848  1
  V  V19  1  0.00717437  0.37659744  0.36886215  1
  V  V20  1  0.25199188  -0.00139695  0.26403367  1
  V  V21  1  0.37341157  0.61233446  0.75835425  1
  V  V22  1  0.00664417  0.00281695  0.50395116  1
  V  V23  1  0.74898939  0.37408104  0.61755120  1
  V  V24  1  0.50262495  0.49311803  0.49939844  1
  V  V25  1  0.35167639  0.74035017  0.62217277  1
  V  V26  1  0.62567855  0.49106964  0.13325114  1
  V  V27  1  0.00166312  0.74243913  0.75457996  1
  V  V28  1  0.11994753  0.49328642  0.62268668  1
  V  V29  1  0.00597083  0.87414146  0.36900315  1
  V  V30  1  0.12729921  0.88742461  0.75122555  1
  V  V31  1  0.63222270  0.37327278  0.76040571  1
  V  V32  1  0.12694026  0.75129728  0.37730549  1
  V  V33  1  0.74476224  0.74526830  0.50117277  1
  V  V34  1  0.24964499  0.49340176  0.75952064  1
  V  V35  1  0.12939853  0.13954245  -0.00035377  1
  V  V36  1  0.51375396  0.37406173  0.36892881  1
  V  V37  1  0.00263552  0.87373879  0.87713997  1
  V  V38  1  0.87387638  0.74237975  0.63209399  1
  V  V39  1  0.74858140  0.13219158  0.38362704  1
  V  V40  1  0.87728988  0.00076835  0.37433662  1
  V  V41  1  0.13243078  -0.00936822  0.12538192  1
  V  V42  1  0.87844369  0.13092283  0.24897253  1
  V  V43  1  0.62862595  0.49886779  0.62395982  1
  V  V44  1  0.25182347  0.37035376  0.62545822  1
  V  V45  1  0.87589772  0.87489406  0.50056738  1
  V  V46  1  0.31983837  0.31910663  0.44728978  1
  V  V47  1  0.50152775  0.12317155  0.11860151  1
  V  V48  1  0.74936932  0.62333845  0.37372470  1
  V  V49  1  0.76047023  0.61205007  0.86010259  1
  V  V50  1  0.11877812  0.51228918  0.11665134  1
  V  V51  1  0.88101301  0.25665090  0.11805854  1
  V  V52  1  0.62542980  0.61986800  -0.00763553  1
  V  V53  1  0.37478041  0.50305832  0.37778237  1
  V  V54  1  -0.01295632  0.49937421  -0.00746747  1
  V  V55  1  0.49100317  0.87662474  0.87747313  1
  V  V56  1  0.74020092  0.25537232  -0.00548797  1
  V  V57  1  0.23756024  0.50015943  0.25110310  1
  V  V58  1  0.75400148  0.87157485  0.12160918  1
  V  V59  1  0.25093769  0.63442412  0.38098654  1
  V  V60  1  0.87976272  0.00710645  0.87729796  1
  V  V61  1  0.74161583  0.12667228  0.88306611  1
  V  V62  1  0.23989647  0.89137663  0.62177994  1
  V  V63  1  0.57845098  0.93298299  0.69109546  1
  V  V64  1  0.74548523  0.37266755  0.13797034  1
  V  V65  1  0.50435670  0.63571739  0.12649820  1
  V  V66  1  0.37212341  0.11667002  0.75346072  1
  V  V67  1  0.75610820  0.74950269  -0.00169768  1
  V  V68  1  0.49995826  0.24823549  0.74968436  1
  V  V69  1  0.24901786  0.11587484  0.87081836  1
  V  V70  1  0.87691333  0.50624918  0.36817521  1
  V  V71  1  0.37633137  0.24953582  0.62537073  1
  V  V72  1  0.50035963  0.88448189  0.37579625  1
  V  V73  1  0.75810245  0.00734096  0.74941322  1
  V  V74  1  0.74902581  0.00050350  0.24932563  1
  V  V75  1  0.50281313  0.62182688  0.61574442  1
  V  V76  1  0.88488387  0.38240038  0.50308606  1
  V  V77  1  0.47709610  -0.00124611  -0.00502754  1
  V  V78  1  0.47598675  0.37142412  0.87630935  1
  Zn  Zn79  1  0.63604754  0.25708489  0.37425789  1
  Zn  Zn80  1  0.00987375  0.25438361  0.75707828  1
  Zn  Zn81  1  0.25963855  0.26525100  -0.01803144  1
  Zn  Zn82  1  0.00485050  0.00114224  0.00332428  1
  Zn  Zn83  1  0.14017202  0.63726439  0.51694171  1
  Zn  Zn84  1  0.50316721  0.00115563  0.51200144  1
  Zn  Zn85  1  0.26675612  0.86719438  0.12438979  1
  Zn  Zn86  1  0.51084808  0.25807835  0.23969115  1
  Zn  Zn87  1  0.87867894  0.62342839  0.22517564  1
  Zn  Zn88  1  0.14288965  0.25215673  0.37300798  1
  Zn  Zn89  1  0.13031535  0.63109309  0.95860599  1
  Zn  Zn90  1  0.88211452  0.87126841  0.00517865  1
  Zn  Zn91  1  0.01266087  0.25673400  0.24842607  1
  Zn  Zn92  1  0.00590732  0.12604270  0.12500582  1
  Zn  Zn93  1  0.38398183  0.25762827  0.11650586  1
  Zn  Zn94  1  0.18765772  0.18376436  0.19259942  1
  Zn  Zn95  1  0.18659569  0.18484198  0.68672829  1
  Zn  Zn96  1  0.18456898  0.69684022  0.18801715  1
  Zn  Zn97  1  0.16633556  0.66471563  0.74437587  1
  Zn  Zn98  1  0.68381623  0.18827586  0.18943472  1
  Zn  Zn99  1  0.69166615  0.19195685  0.69561624  1
  Zn  Zn100  1  0.71792700  0.66552087  0.16798447  1
  Zn  Zn101  1  0.68675780  0.68503445  0.68576838  1
  Zn  Zn102  1  0.32344237  0.31562835  0.27919593  1
  Zn  Zn103  1  0.29920443  0.30274147  0.80671380  1
  Zn  Zn104  1  0.31507246  0.81830967  0.30764558  1
  Zn  Zn105  1  0.30919456  0.80804180  0.80679707  1
  Zn  Zn106  1  0.81916743  0.31484169  0.31295418  1
  Zn  Zn107  1  0.81712218  0.30478110  0.80494906  1
  Zn  Zn108  1  0.81381441  0.80956086  0.31076957  1
  Zn  Zn109  1  0.81385111  0.81433572  0.81612785  1
  Zn  Zn110  1  0.18022953  0.45054765  0.44019790  1
  Zn  Zn111  1  0.19212276  0.44215924  0.94388475  1
  Zn  Zn112  1  0.18714199  0.93795710  0.44041595  1
  Zn  Zn113  1  0.19417456  0.93453067  0.94182016  1
  Zn  Zn114  1  0.69211343  0.44142720  0.44199486  1
  Zn  Zn115  1  0.68996083  0.43647940  0.94191286  1
  Zn  Zn116  1  0.68527936  0.94191084  0.43985552  1
  Zn  Zn117  1  0.68720642  0.93203929  0.93151369  1
  Zn  Zn118  1  0.30890171  0.06914135  0.06723286  1
  Zn  Zn119  1  0.31785469  0.06278078  0.56450805  1
  Zn  Zn120  1  0.30970948  0.57609173  0.06327033  1
  Zn  Zn121  1  0.31413990  0.55738264  0.56538621  1
  Zn  Zn122  1  0.81765549  0.06348848  0.06052543  1
  Zn  Zn123  1  0.81463912  0.06183486  0.56207719  1
  Zn  Zn124  1  0.80906802  0.55574548  0.05078083  1
  Zn  Zn125  1  0.81243587  0.56059482  0.56174966  1
  Zn  Zn126  1  0.43587753  0.44870259  0.18801306  1
  Zn  Zn127  1  0.43798965  0.43084016  0.68558579  1
  Zn  Zn128  1  0.44184906  0.94645002  0.19455662  1
  Zn  Zn129  1  0.41207175  0.92194336  0.70008972  1
  Zn  Zn130  1  0.93771406  0.44005382  0.18483667  1
  Zn  Zn131  1  0.94282602  0.42746513  0.69509729  1
  Zn  Zn132  1  0.94138104  0.93871239  0.18601186  1
  Zn  Zn133  1  0.93817340  0.93807912  0.69039606  1
  Zn  Zn134  1  0.06716316  0.06449743  0.31144574  1
  Zn  Zn135  1  0.06712297  0.06362782  0.81508845  1
  Zn  Zn136  1  0.05899286  0.56950636  0.31817846  1
  Zn  Zn137  1  0.05499264  0.54999771  0.80749376  1
  Zn  Zn138  1  0.56475473  0.06398829  0.31138302  1
  Zn  Zn139  1  0.55963527  0.06904040  0.82055370  1
  Zn  Zn140  1  0.56539493  0.56525009  0.31354082  1
  Zn  Zn141  1  0.56276532  0.55581279  0.81002467  1
  Zn  Zn142  1  0.45075677  0.18350651  0.44050902  1
  Zn  Zn143  1  0.43359506  0.18697872  0.93851062  1
  Zn  Zn144  1  0.43618423  0.69246197  0.43898899  1
  Zn  Zn145  1  0.43367096  0.68421948  0.93731821  1
  Zn  Zn146  1  0.93817951  0.19239943  0.44281523  1
  Zn  Zn147  1  0.93961315  0.18946956  0.93929329  1
  Zn  Zn148  1  0.93985139  0.68972938  0.44005445  1
  Zn  Zn149  1  0.93711827  0.67968091  0.93625911  1
  Zn  Zn150  1  0.06975760  0.32487010  0.06513220  1
  Zn  Zn151  1  0.06416349  0.30712467  0.55798468  1
  Zn  Zn152  1  0.07580152  0.80549245  0.06020459  1
  Zn  Zn153  1  0.06339929  0.80925327  0.56363640  1
  Zn  Zn154  1  0.56285902  0.31070732  0.05311435  1
  Zn  Zn155  1  0.56549441  0.30672078  0.55790523  1
  Zn  Zn156  1  0.43053478  0.81195507  0.06514594  1
  Zn  Zn157  1  0.55680750  0.80602049  0.55525988  1
  O  O158  1  0.12880334  0.12042633  0.11200549  1
  O  O159  1  0.11164972  0.12688446  0.61201462  1
  O  O160  1  0.12491624  0.61043375  0.13508570  1
  O  O161  1  0.11643474  0.61601434  0.63455566  1
  O  O162  1  0.61585661  0.11062510  0.13169776  1
  O  O163  1  0.63650025  0.13071705  0.61654413  1
  O  O164  1  0.62442082  0.61034685  0.11485265  1
  O  O165  1  0.61335234  0.61212811  0.63262281  1
  O  O166  1  0.37707298  0.38074396  0.38043004  1
  O  O167  1  0.37822417  0.37414268  0.87002708  1
  O  O168  1  0.38702192  0.86567427  0.38609406  1
  O  O169  1  0.39481862  0.87733396  0.84300208  1
  O  O170  1  0.87739115  0.38657117  0.38493960  1
  O  O171  1  0.86301500  0.41127641  0.83917751  1
  O  O172  1  0.88128120  0.87820591  0.38561720  1
  O  O173  1  0.88521373  0.88525876  0.87659582  1
  O  O174  1  0.24284150  0.00257794  0.36360511  1
  O  O175  1  0.24702966  0.01448574  0.87700990  1
  O  O176  1  0.25374545  0.50987479  0.36817051  1
  O  O177  1  0.24935667  0.49150877  0.85820581  1
  O  O178  1  0.75805943  0.00642714  0.36743239  1
  O  O179  1  0.75664362  0.00820813  0.87135326  1
  O  O180  1  0.76314074  0.50959379  0.38397430  1
  O  O181  1  0.74067378  0.51404862  0.87694523  1
  O  O182  1  0.24456482  0.50210312  0.13809377  1
  O  O183  1  0.24438907  0.48814433  0.62716295  1
  O  O184  1  0.24178629  0.99743880  0.12927199  1
  O  O185  1  0.25009777  0.98880612  0.63038654  1
  O  O186  1  0.73738906  0.48039841  0.11397595  1
  O  O187  1  0.73965542  0.49096680  0.62092804  1
  O  O188  1  0.74671064  0.99828162  0.13085080  1
  O  O189  1  0.75966712  0.99205207  0.63548304  1
  O  O190  1  -0.00426159  0.37803594  0.26430042  1
  O  O191  1  0.01437064  0.37984973  0.76938680  1
  O  O192  1  -0.00689992  0.86880354  0.26446034  1
  O  O193  1  0.00844812  0.86970828  0.75376109  1
  O  O194  1  0.49319548  0.38101980  0.26637965  1
  O  O195  1  0.50332279  0.36995711  0.76330901  1
  O  O196  1  0.51631054  0.88423993  0.26028516  1
  O  O197  1  0.51191488  0.86801655  0.74625140  1
  O  O198  1  0.49143146  0.11241216  0.23716577  1
  O  O199  1  0.48866757  0.13854574  0.76181812  1
  O  O200  1  0.49054675  0.61967195  0.24328248  1
  O  O201  1  0.49115546  0.62435961  0.73977589  1
  O  O202  1  0.98653320  0.12685374  0.25079164  1
  O  O203  1  1.00408736  0.12051003  0.73443372  1
  O  O204  1  0.99426800  0.63633612  0.25025064  1
  O  O205  1  0.99581701  0.63775751  0.74180517  1
  O  O206  1  0.36865895  0.24613077  0.00688772  1
  O  O207  1  0.37497460  0.25072103  0.50404092  1
  O  O208  1  0.36558564  0.74254342  0.00265256  1
  O  O209  1  0.37990068  0.76185664  0.51279523  1
  O  O210  1  0.86753983  0.24558429  0.01573017  1
  O  O211  1  0.87890381  0.26567307  0.51461165  1
  O  O212  1  0.86046246  0.74950637  -0.00786958  1
  O  O213  1  0.86784593  0.75888625  0.50896253  1
  O  O214  1  0.12816231  0.23790426  0.49313040  1
  O  O215  1  0.13345714  0.24170772  1.00908814  1
  O  O216  1  0.12132824  0.74823473  0.48624141  1
  O  O217  1  0.13777208  0.74133967  0.99533821  1
  O  O218  1  0.62252871  0.23230960  0.49074942  1
  O  O219  1  0.64101007  0.24726009  0.99633570  1
  O  O220  1  0.63759479  0.75629847  0.49157501  1
  O  O221  1  0.63168220  0.73314028  0.98549315  1
  O  O222  1  0.50731631  0.23648990  0.11955599  1
  O  O223  1  0.48855230  0.26173685  0.63588391  1
  O  O224  1  0.50821974  0.73329443  0.11479308  1
  O  O225  1  0.50042431  0.73893860  0.63173905  1
  O  O226  1  0.98889008  0.25763830  0.12547342  1
  O  O227  1  0.99386203  0.23714026  0.62102415  1
  O  O228  1  1.00663021  0.76115817  0.14234548  1
  O  O229  1  0.99152431  0.74400967  0.63247136  1
  O  O230  1  -0.00887634  0.27015141  0.37451200  1
  O  O231  1  -0.01429959  0.27285763  0.87816329  1
  O  O232  1  0.00517165  0.75747910  0.37206576  1
  O  O233  1  -0.01164211  0.75775640  0.86010058  1
  O  O234  1  0.49951001  0.27081018  0.37877235  1
  O  O235  1  0.49421904  0.26431450  0.86844204  1
  O  O236  1  0.51492618  0.75952366  0.38345740  1
  O  O237  1  0.50252750  0.75446857  0.86571980  1
  O  O238  1  0.23528215  0.11615017  0.50686597  1
  O  O239  1  0.24128759  0.12608718  0.99075188  1
  O  O240  1  0.25817494  0.62287094  0.48549526  1
  O  O241  1  0.24667190  0.63678893  0.99653267  1
  O  O242  1  0.74685691  0.12060027  0.48842867  1
  O  O243  1  0.75505565  0.13347845  0.98976727  1
  O  O244  1  0.75533812  0.63858923  0.49466577  1
  O  O245  1  0.74021217  0.62966484  0.98450241  1
  O  O246  1  0.25405811  0.37953449  0.01724288  1
  O  O247  1  0.25423653  0.37665753  0.50228522  1
  O  O248  1  0.24814263  0.85927300  0.00495423  1
  O  O249  1  0.25452567  0.87836307  0.51379790  1
  O  O250  1  0.75158017  0.35973311  0.00266375  1
  O  O251  1  0.76039932  0.37366458  0.51060429  1
  O  O252  1  0.75114390  0.86662838  0.00345766  1
  O  O253  1  0.75853108  0.87180904  0.50978688  1
  O  O254  1  0.13459802  0.50795447  0.24921876  1
  O  O255  1  0.14304859  0.50077985  0.73529884  1
  O  O256  1  0.14139559  1.01648390  0.23713445  1
  O  O257  1  0.12082433  0.98656654  0.74467443  1
  O  O258  1  0.62225229  0.50285429  0.23191391  1
  O  O259  1  0.61389934  0.48094064  0.73656975  1
  O  O260  1  0.64006033  0.99398509  0.24943277  1
  O  O261  1  0.63187710  0.99947265  0.75105388  1
  O  O262  1  0.36555461  0.01158540  0.25313924  1
  O  O263  1  0.38176784  0.01844447  0.74437628  1
  O  O264  1  0.36767019  0.50833609  0.26517761  1
  O  O265  1  0.36882067  0.50548946  0.74267953  1
  O  O266  1  0.86774234  0.00827275  0.25298037  1
  O  O267  1  0.86607197  -0.00382737  0.76094351  1
  O  O268  1  0.87601463  0.50358828  0.26386220  1
  O  O269  1  0.86496620  0.46253167  0.78053926  1
  O  O270  1  0.10975110  0.37817684  0.38549700  1
  O  O271  1  0.13005191  0.36546849  0.88310652  1
  O  O272  1  0.11390886  0.86880141  0.38208269  1
  O  O273  1  0.11723790  0.88071985  0.86047495  1
  O  O274  1  0.61737374  0.38036547  0.37653978  1
  O  O275  1  0.62754537  0.37646898  0.86117128  1
  O  O276  1  0.62283269  0.86934272  0.37007952  1
  O  O277  1  0.61215151  0.86134043  0.87594641  1
  O  O278  1  0.39094297  0.12139954  0.13036858  1
  O  O279  1  0.36753227  0.13872357  0.63728883  1
  O  O280  1  0.38742188  0.61612640  0.14011261  1
  O  O281  1  0.38525162  0.62636141  0.62876823  1
  O  O282  1  0.87656210  0.13774681  0.13215688  1
  O  O283  1  0.88210944  0.13760440  0.61891249  1
  O  O284  1  0.82367963  0.63085632  0.12926141  1
  O  O285  1  0.87895658  0.63479256  0.62268772  1
  O  O286  1  0.24476798  0.27207435  0.13649067  1
  O  O287  1  0.25819740  0.26092838  0.62874314  1
  O  O288  1  0.24667720  0.75268799  0.11539407  1
  O  O289  1  0.25367160  0.73654710  0.62868706  1
  O  O290  1  0.75316822  0.25691746  0.11567934  1
  O  O291  1  0.76675923  0.25741802  0.63171968  1
  O  O292  1  0.73399271  0.76438776  0.10942966  1
  O  O293  1  0.75412236  0.75753111  0.62150935  1
  O  O294  1  0.26427922  0.26905792  0.37848075  1
  O  O295  1  0.24816902  0.23059735  0.87401128  1
  O  O296  1  0.24147538  0.74398581  0.36417746  1
  O  O297  1  0.25416372  0.75358483  0.88575119  1
  O  O298  1  0.75768331  0.23539383  0.37268298  1
  O  O299  1  0.76376101  0.23860747  0.88340295  1
  O  O300  1  0.74533651  0.74738302  0.38536561  1
  O  O301  1  0.74047811  0.74606885  0.87716303  1
  O  O302  1  0.01694532  0.12615716  0.00018471  1
  O  O303  1  0.00385051  0.11797589  0.50578607  1
  O  O304  1  0.00816922  0.60428054  -0.01663561  1
  O  O305  1  0.00202047  0.62907569  0.51746472  1
  O  O306  1  0.49679029  0.10888110  0.00329445  1
  O  O307  1  0.51392695  0.11865370  0.50670444  1
  O  O308  1  0.50635438  0.61200526  0.00374576  1
  O  O309  1  0.49607149  0.61480455  0.50880054  1
  O  O310  1  0.50175692  0.38531008  0.48905368  1
  O  O311  1  0.50067929  0.38276618  0.98657183  1
  O  O312  1  0.49405490  0.87875278  0.49524413  1
  O  O313  1  0.48831203  0.88614763  0.98952012  1
  O  O314  1  0.98962120  0.37650000  0.49357767  1
  O  O315  1  1.01072103  0.38846744  0.98894615  1
  O  O316  1  0.99177854  0.88125722  0.49755123  1
  O  O317  1  1.00433964  0.87022433  0.98681257  1
  O  O318  1  0.49572532  0.49378041  0.37973158  1
  O  O319  1  0.49944934  0.48753541  0.88437147  1
  O  O320  1  0.50814904  0.98743606  0.38115171  1
  O  O321  1  0.50701601  0.99300516  0.88940734  1
  O  O322  1  0.98742081  0.49213134  0.37555625  1
  O  O323  1  1.00485529  0.48213005  0.88321283  1
  O  O324  1  0.99659932  0.99307463  0.38143386  1
  O  O325  1  0.99532173  0.99165902  0.87499163  1
  O  O326  1  0.01465681  0.00505997  0.12706938  1
  O  O327  1  -0.01265942  0.01354742  0.61576929  1
  O  O328  1  0.01016538  0.49319431  0.11051235  1
  O  O329  1  0.01191520  0.50407280  0.63892035  1
  O  O330  1  0.50762727  0.00148253  0.10775822  1
  O  O331  1  0.50902707  -0.01778585  0.63766155  1
  O  O332  1  0.51154795  0.49861327  0.11272965  1
  O  O333  1  0.50380022  0.50110102  0.61669625  1
  O  O334  1  0.24788272  0.39605869  0.24988579  1
  O  O335  1  0.25658054  0.38558634  0.73869620  1
  O  O336  1  0.25392464  0.89493769  0.24883747  1
  O  O337  1  0.23512579  0.86670930  0.73718004  1
  O  O338  1  0.74738537  0.36948302  0.23716657  1
  O  O339  1  0.73566088  0.36636753  0.73954081  1
  O  O340  1  0.74814241  0.88275241  0.24503095  1
  O  O341  1  0.75066448  0.88412708  0.74049446  1
  O  O342  1  0.27030225  0.11911946  0.24353002  1
  O  O343  1  0.26019722  0.12462117  0.75765949  1
  O  O344  1  0.26297711  0.61758571  0.25775232  1
  O  O345  1  0.26669794  0.60885685  0.74258796  1
  O  O346  1  0.75978044  0.11785922  0.25701360  1
  O  O347  1  0.75015746  0.11709681  0.76387903  1
  O  O348  1  0.75771015  0.63496847  0.27287322  1
  O  O349  1  0.74560151  0.62584754  0.76022215  1
  O  O350  1  0.38761491  0.13272310  0.35960432  1
  O  O351  1  0.36514223  0.12528438  0.86298626  1
  O  O352  1  0.37380643  0.62249065  0.36674623  1
  O  O353  1  0.38354931  0.61923823  0.85654921  1
  O  O354  1  0.86823014  0.12191732  0.37075743  1
  O  O355  1  0.87249798  0.11253442  0.87969616  1
  O  O356  1  0.87280247  0.61238187  0.38421763  1
  O  O357  1  0.85982920  0.62379424  0.87226894  1
  O  O358  1  0.13967262  0.39675177  0.12662880  1
  O  O359  1  0.13134430  0.38592068  0.61509388  1
  O  O360  1  0.12453381  0.89032141  0.12665213  1
  O  O361  1  0.13310299  0.87402690  0.62985646  1
  O  O362  1  0.63109184  0.38042445  0.12098780  1
  O  O363  1  0.63219448  0.37857547  0.62580369  1
  O  O364  1  0.63818621  0.89025671  0.13767284  1
  O  O365  1  0.63312447  0.87371211  0.62489441  1
  O  O366  1  0.12282523  0.23974289  0.26333317  1
  O  O367  1  0.12031672  0.24374991  0.75089294  1
  O  O368  1  0.10981658  0.74511878  0.26602929  1
  O  O369  1  0.10456765  0.76260609  0.74300154  1
  O  O370  1  0.61989488  0.24417061  0.26132635  1
  O  O371  1  0.61283946  0.26359479  0.74283326  1
  O  O372  1  0.63565812  0.76251277  0.26109006  1
  O  O373  1  0.61045500  0.74071072  0.75744458  1
  O  O374  1  0.39058151  0.23698699  0.23611522  1
  O  O375  1  0.38156254  0.24425765  0.74272944  1
  O  O376  1  0.37572424  0.73520555  0.25300532  1
  O  O377  1  0.38321643  0.73497430  0.73956019  1
  O  O378  1  0.87512624  0.24400662  0.23830960  1
  O  O379  1  0.89170618  0.26235300  0.72940202  1
  O  O380  1  0.88997710  0.74702172  0.25582392  1
  O  O381  1  0.88494410  0.76178046  0.73805744  1
  O  O382  1  0.38409862  0.50285363  0.48600484  1
  O  O383  1  0.38933896  0.50499490  1.00721640  1
  O  O384  1  0.38185524  0.98172925  0.51454678  1
  O  O385  1  0.37895929  1.00246248  0.99783378  1
  O  O386  1  0.87500388  0.48824462  0.49531130  1
  O  O387  1  0.88769829  0.49484788  0.99936877  1
  O  O388  1  0.88204953  0.99173851  0.49504139  1
  O  O389  1  0.88300621  0.99529862  0.99293198  1
  O  O390  1  0.12720573  0.00641183  0.01320130  1
  O  O391  1  0.11193645  0.00757201  0.49884138  1
  O  O392  1  0.12981027  0.51289569  0.01084255  1
  O  O393  1  0.12916213  0.51434227  0.51973357  1
  O  O394  1  0.62789735  -0.00384965  0.00687554  1
  O  O395  1  0.62720718  0.01597835  0.50324777  1
  O  O396  1  0.61695098  0.50600388  0.00432799  1
  O  O397  1  0.61552752  0.49764535  0.51132772  1
  O  O398  1  0.35842725  0.37832343  0.14111721  1
  O  O399  1  0.36575651  0.36504308  0.62268819  1
  O  O400  1  0.37955841  0.87338190  0.14039608  1
  O  O401  1  0.35407665  0.86044766  0.62535446  1
  O  O402  1  0.86165536  0.36482020  0.13026352  1
  O  O403  1  0.87218011  0.37631875  0.61652092  1
  O  O404  1  0.85952956  0.88225757  0.12446088  1
  O  O405  1  0.86964962  0.86811381  0.61835818  1
  O  O406  1  0.12250434  0.12497949  0.39060873  1
  O  O407  1  0.13343520  0.12162409  0.88856965  1
  O  O408  1  0.13559920  0.63160349  0.38024002  1
  O  O409  1  0.12708832  0.62559548  0.84562525  1
  O  O410  1  0.64333979  0.12138052  0.37664022  1
  O  O411  1  0.64228890  0.12472086  0.87722229  1
  O  O412  1  0.63327753  0.63534233  0.37347319  1
  O  O413  1  0.62299442  0.63001634  0.87714567  1
