# generated using pymatgen
data_V79Zn79O256
_symmetry_space_group_name_H-M   'P 1'
_cell_length_a   16.91882301
_cell_length_b   16.95772058
_cell_length_c   16.93927094
_cell_angle_alpha   89.89621754
_cell_angle_beta   89.92455933
_cell_angle_gamma   89.92014567
_symmetry_Int_Tables_number   1
_chemical_formula_structural   V79Zn79O256
_chemical_formula_sum   'V79 Zn79 O256'
_cell_volume   4859.93910426
_cell_formula_units_Z   1
loop_
 _symmetry_equiv_pos_site_id
 _symmetry_equiv_pos_as_xyz
  1  'x, y, z'
loop_
 _atom_site_type_symbol
 _atom_site_label
 _atom_site_symmetry_multiplicity
 _atom_site_fract_x
 _atom_site_fract_y
 _atom_site_fract_z
 _atom_site_occupancy
  V  V0  1  0.11801342  0.12408090  -0.00274013  1
  V  V1  1  0.61938592  0.25248267  0.36081281  1
  V  V2  1  0.51385286  0.25567046  0.76702286  1
  V  V3  1  0.61963925  0.12474581  0.50085254  1
  V  V4  1  0.25030309  0.23182489  0.49278377  1
  V  V5  1  0.36938895  0.37687427  0.49911106  1
  V  V6  1  0.00339547  0.75067967  0.24187681  1
  V  V7  1  0.76755258  0.37023405  0.61038675  1
  V  V8  1  0.50248317  0.00157561  0.00917899  1
  V  V9  1  -0.00245507  0.24831869  0.73901810  1
  V  V10  1  0.15138892  0.75442545  0.88159490  1
  V  V11  1  0.49161347  0.87761283  0.37612660  1
  V  V12  1  0.62298699  0.12607944  0.00463819  1
  V  V13  1  0.85070560  0.76567222  0.12701598  1
  V  V14  1  0.75276960  0.62578385  0.37206387  1
  V  V15  1  0.26251762  0.59762823  0.86435071  1
  V  V16  1  0.74332277  0.49424895  0.25574752  1
  V  V17  1  0.24346233  0.38529102  0.62587216  1
  V  V18  1  0.50108593  0.12639643  0.62472650  1
  V  V19  1  0.63433461  0.49095032  0.62337476  1
  V  V20  1  0.49568113  0.74734076  0.23863090  1
  V  V21  1  0.87605744  0.12457058  0.25062380  1
  V  V22  1  0.73840117  0.00075280  0.74069005  1
  V  V23  1  0.50042280  0.37402057  0.36498179  1
  V  V24  1  0.49710693  0.49929414  0.49931053  1
  V  V25  1  0.62527395  0.87852176  0.23605879  1
  V  V26  1  0.12539919  0.38654591  0.74642360  1
  V  V27  1  0.37342183  0.74998556  0.63075743  1
  V  V28  1  0.88323667  0.62187894  0.23901575  1
  V  V29  1  -0.01204718  0.37312750  0.88772431  1
  V  V30  1  0.00185173  0.12184220  0.61897347  1
  V  V31  1  0.64055556  0.63363601  0.00569679  1
  V  V32  1  0.75656670  0.24838538  0.49819086  1
  V  V33  1  0.87380890  0.86963168  0.50970029  1
  V  V34  1  0.49223114  0.00126865  0.49901798  1
  V  V35  1  0.00441869  0.87373551  0.37536379  1
  V  V36  1  0.87341760  0.24976512  0.12389702  1
  V  V37  1  0.11369166  0.23338578  0.37173155  1
  V  V38  1  0.38330057  0.13457819  0.23962646  1
  V  V39  1  0.12897250  0.73670781  0.37992677  1
  V  V40  1  0.09894185  0.35981167  0.24811605  1
  V  V41  1  0.74882249  0.37535741  0.12832555  1
  V  V42  1  0.24002253  0.47680103  0.24892794  1
  V  V43  1  0.25327639  0.26662565  -0.00002256  1
  V  V44  1  0.51812869  0.76783846  0.75177523  1
  V  V45  1  -0.00144249  0.87670357  0.88451747  1
  V  V46  1  0.12020760  0.24975211  0.87136864  1
  V  V47  1  0.74324349  -0.00471944  0.23637014  1
  V  V48  1  0.87108136  0.50246247  0.88934534  1
  V  V49  1  0.49853357  0.62555048  0.63211220  1
  V  V50  1  0.12352028  0.87168436  0.74910847  1
  V  V51  1  0.25875074  0.73515295  0.49464639  1
  V  V52  1  0.87587123  0.12524933  0.74247211  1
  V  V53  1  0.25059979  0.01213013  0.24651069  1
  V  V54  1  0.36167909  0.62956224  0.25442705  1
  V  V55  1  0.74469050  0.11604279  0.37512252  1
  V  V56  1  0.61391924  0.49996942  0.13407757  1
  V  V57  1  0.25641757  0.86577116  0.11913283  1
  V  V58  1  0.73537272  0.46077109  0.78319153  1
  V  V59  1  0.38393870  0.00129819  0.87650772  1
  V  V60  1  0.88335511  0.00627190  0.88017595  1
  V  V61  1  0.74536984  0.25441621  -0.00153848  1
  V  V62  1  0.24768618  0.12667842  0.87221380  1
  V  V63  1  0.74494822  0.13298070  0.87297533  1
  V  V64  1  0.38058328  0.86369492  -0.00321737  1
  V  V65  1  0.62992017  0.62527703  0.49857879  1
  V  V66  1  0.87709155  0.74135242  0.64087845  1
  V  V67  1  0.62326808  0.75555935  0.37524873  1
  V  V68  1  0.75738644  0.64335489  0.87751411  1
  V  V69  1  0.25236336  -0.00183810  0.74962231  1
  V  V70  1  0.25435808  0.87391971  0.61268896  1
  V  V71  1  0.37531144  0.12940727  0.75226777  1
  V  V72  1  -0.00093612  0.13086950  0.12576114  1
  V  V73  1  0.50083930  0.49683295  -0.02581848  1
  V  V74  1  0.00395250  -0.00343874  0.49877779  1
  V  V75  1  0.36964962  0.00767205  0.37052240  1
  V  V76  1  0.89513545  0.47493259  0.37858885  1
  V  V77  1  0.12667281  -0.00144398  0.62090856  1
  V  V78  1  0.12299545  0.00306245  0.12069542  1
  Zn  Zn79  1  0.48856917  0.63518720  0.10848878  1
  Zn  Zn80  1  0.37198067  0.25209227  0.62783128  1
  Zn  Zn81  1  0.74670318  0.75534844  0.51026587  1
  Zn  Zn82  1  0.50406741  0.14253408  0.12547220  1
  Zn  Zn83  1  0.33417473  0.53006726  0.39560004  1
  Zn  Zn84  1  0.87146851  -0.00711018  0.37606370  1
  Zn  Zn85  1  0.87041240  0.88342931  0.01010752  1
  Zn  Zn86  1  0.92785776  0.56654139  0.72491705  1
  Zn  Zn87  1  0.14344923  0.64609447  0.01648587  1
  Zn  Zn88  1  0.13049346  0.87641647  0.24929076  1
  Zn  Zn89  1  0.03155370  0.55248718  0.08062387  1
  Zn  Zn90  1  0.69079812  0.84653491  0.66894700  1
  Zn  Zn91  1  0.04550069  0.54975080  0.56105943  1
  Zn  Zn92  1  0.37659694  0.28854084  0.13311065  1
  Zn  Zn93  1  0.00003181  0.73614443  0.75731682  1
  Zn  Zn94  1  0.19005414  0.19879729  0.18048884  1
  Zn  Zn95  1  0.18809313  0.18889681  0.68085017  1
  Zn  Zn96  1  0.17945412  0.68457198  0.18715721  1
  Zn  Zn97  1  0.13319840  0.60558825  0.72498279  1
  Zn  Zn98  1  0.68870628  0.18425913  0.18607618  1
  Zn  Zn99  1  0.68690135  0.18916023  0.68351275  1
  Zn  Zn100  1  0.68584762  0.68700267  0.18898408  1
  Zn  Zn101  1  0.69466979  0.67845083  0.68571289  1
  Zn  Zn102  1  0.31515011  0.31027019  0.31856035  1
  Zn  Zn103  1  0.31162046  0.31317552  0.81274957  1
  Zn  Zn104  1  0.31017581  0.81623975  0.30794592  1
  Zn  Zn105  1  0.32465259  0.81669993  0.80549132  1
  Zn  Zn106  1  0.80954273  0.30679999  0.31352939  1
  Zn  Zn107  1  0.81195431  0.30869033  0.80589013  1
  Zn  Zn108  1  0.81338087  0.81327123  0.31373626  1
  Zn  Zn109  1  0.80844915  0.82160242  0.82019854  1
  Zn  Zn110  1  0.16873244  0.42600013  0.42938298  1
  Zn  Zn111  1  0.20110610  0.48022403  0.97242680  1
  Zn  Zn112  1  0.18877149  0.93714919  0.43370991  1
  Zn  Zn113  1  0.19286263  0.93862134  0.93843106  1
  Zn  Zn114  1  0.68435547  0.43546082  0.43720976  1
  Zn  Zn115  1  0.68480452  0.44310876  0.95238003  1
  Zn  Zn116  1  0.66925071  0.92279958  0.47648201  1
  Zn  Zn117  1  0.69127730  0.95109405  0.92600132  1
  Zn  Zn118  1  0.30900430  0.06924022  0.05879754  1
  Zn  Zn119  1  0.31744878  0.05940116  0.56626057  1
  Zn  Zn120  1  0.31879451  0.55378360  0.06952472  1
  Zn  Zn121  1  0.30773558  0.56731071  0.57701455  1
  Zn  Zn122  1  0.80974693  0.06252690  0.05919641  1
  Zn  Zn123  1  0.81381663  0.06103920  0.55899426  1
  Zn  Zn124  1  0.83061625  0.55583631  0.07414385  1
  Zn  Zn125  1  0.84869808  0.54415716  0.57327002  1
  Zn  Zn126  1  0.42120525  0.45208954  0.19466927  1
  Zn  Zn127  1  0.44576009  0.42905444  0.68234863  1
  Zn  Zn128  1  0.43726959  0.93750868  0.18483846  1
  Zn  Zn129  1  0.43851377  0.93845216  0.68463731  1
  Zn  Zn130  1  0.93031815  0.43531373  0.19104027  1
  Zn  Zn131  1  0.96857456  0.40477169  0.62962625  1
  Zn  Zn132  1  0.93944541  0.94226835  0.19248103  1
  Zn  Zn133  1  0.93681882  0.93591648  0.69167754  1
  Zn  Zn134  1  0.06412484  0.06135215  0.31092056  1
  Zn  Zn135  1  0.06346975  0.06006144  0.80765582  1
  Zn  Zn136  1  0.06669656  0.55648605  0.30709401  1
  Zn  Zn137  1  0.04360924  0.58283186  0.87976522  1
  Zn  Zn138  1  0.56082998  0.06329575  0.31030897  1
  Zn  Zn139  1  0.56184387  0.07063961  0.81584955  1
  Zn  Zn140  1  0.55790135  0.56464695  0.31551028  1
  Zn  Zn141  1  0.58072162  0.57913710  0.81345359  1
  Zn  Zn142  1  0.43219860  0.19024184  0.43217906  1
  Zn  Zn143  1  0.45658142  0.22382750  0.96934842  1
  Zn  Zn144  1  0.43920731  0.69064380  0.43869763  1
  Zn  Zn145  1  0.44709174  0.67880423  0.92573745  1
  Zn  Zn146  1  0.93506286  0.18116802  0.43553337  1
  Zn  Zn147  1  0.93395005  0.19077566  0.93788783  1
  Zn  Zn148  1  0.93461797  0.68588323  0.43479501  1
  Zn  Zn149  1  0.93828722  0.69477740  0.95323843  1
  Zn  Zn150  1  0.10000576  0.36962204  0.04508006  1
  Zn  Zn151  1  0.07590583  0.29968282  0.55667174  1
  Zn  Zn152  1  0.06566403  0.81914595  0.06049117  1
  Zn  Zn153  1  0.06747191  0.70600873  0.56849453  1
  Zn  Zn154  1  0.56196320  0.32387195  0.06363757  1
  Zn  Zn155  1  0.56312661  0.30712816  0.55977707  1
  Zn  Zn156  1  0.67809570  0.82919090  0.03718716  1
  Zn  Zn157  1  0.55292821  0.81466942  0.56103004  1
  O  O158  1  0.11838739  0.12399703  0.11711468  1
  O  O159  1  0.11669357  0.10788324  0.63133446  1
  O  O160  1  0.11284550  0.62573826  0.12404647  1
  O  O161  1  0.12228823  0.61654162  0.61554334  1
  O  O162  1  0.62335745  0.12831778  0.11070385  1
  O  O163  1  0.61423372  0.12866382  0.61106403  1
  O  O164  1  0.62866688  0.61077153  0.12306611  1
  O  O165  1  0.62483199  0.61375666  0.61416603  1
  O  O166  1  0.38648650  0.37441857  0.38891463  1
  O  O167  1  0.37820228  0.41087486  0.83673478  1
  O  O168  1  0.38535884  0.88856802  0.36269806  1
  O  O169  1  0.36757522  0.88979705  0.88797063  1
  O  O170  1  0.87527269  0.37622428  0.37399731  1
  O  O171  1  0.88352292  0.37544756  0.86975724  1
  O  O172  1  0.88922473  0.87050422  0.38132990  1
  O  O173  1  0.88735261  0.88882066  0.87510334  1
  O  O174  1  0.25945756  -0.00778768  0.36069219  1
  O  O175  1  0.25671938  0.00820869  0.86858903  1
  O  O176  1  0.23259098  0.49516864  0.36294857  1
  O  O177  1  0.24832391  0.49701866  0.86836076  1
  O  O178  1  0.74661201  0.01307652  0.37570708  1
  O  O179  1  0.76175971  0.01683898  0.86247593  1
  O  O180  1  0.73530322  0.51229326  0.36732218  1
  O  O181  1  0.75431129  0.51724903  0.88294515  1
  O  O182  1  0.24641031  0.51183889  0.15467202  1
  O  O183  1  0.24749532  0.48495634  0.62479902  1
  O  O184  1  0.24116103  1.00051006  0.12872762  1
  O  O185  1  0.24611187  0.99333565  0.62812805  1
  O  O186  1  0.74841703  0.49153935  0.13773774  1
  O  O187  1  0.74976348  0.48141684  0.61019975  1
  O  O188  1  0.74977800  1.00364901  0.13832755  1
  O  O189  1  0.75349498  1.00961765  0.64121331  1
  O  O190  1  -0.00084737  0.36616993  0.24761153  1
  O  O191  1  0.01160542  0.36061765  0.72987123  1
  O  O192  1  0.00310021  0.86991905  0.26058861  1
  O  O193  1  0.01297442  0.87720656  0.75802861  1
  O  O194  1  0.49005368  0.38700535  0.26824266  1
  O  O195  1  0.50402948  0.35258232  0.73995174  1
  O  O196  1  0.50554742  0.86884670  0.25575159  1
  O  O197  1  0.50388616  0.86777657  0.74389835  1
  O  O198  1  0.48918200  0.12429713  0.24279445  1
  O  O199  1  0.49267002  0.13108402  0.74322443  1
  O  O200  1  0.50071708  0.64149038  0.25159731  1
  O  O201  1  0.51950608  0.63575027  0.73284103  1
  O  O202  1  0.98410357  0.11477995  0.24265788  1
  O  O203  1  0.99486363  0.12853563  0.74008297  1
  O  O204  1  0.98953322  0.63692107  0.25929538  1
  O  O205  1  1.01769389  0.62071189  0.77184198  1
  O  O206  1  0.34941104  0.26795201  -0.03106605  1
  O  O207  1  0.36495484  0.25884988  0.50170671  1
  O  O208  1  0.39136470  0.76666168  -0.00995793  1
  O  O209  1  0.36603275  0.75031597  0.50567863  1
  O  O210  1  0.86033081  0.23941776  0.01439117  1
  O  O211  1  0.85572420  0.23673155  0.49517404  1
  O  O212  1  0.87746399  0.75725459  0.02645373  1
  O  O213  1  0.87551151  0.75942638  0.51208199  1
  O  O214  1  0.14160415  0.24668422  0.48463042  1
  O  O215  1  0.12908753  0.24294963  0.98264810  1
  O  O216  1  0.14116370  0.74903347  0.48718895  1
  O  O217  1  0.12889792  0.76263758  0.98395144  1
  O  O218  1  0.62761193  0.23877995  0.48795775  1
  O  O219  1  0.63807554  0.24424935  1.00208322  1
  O  O220  1  0.62213982  0.74014873  0.49084398  1
  O  O221  1  0.62687970  0.72854084  1.02828993  1
  O  O222  1  0.47764181  0.25071533  0.08480549  1
  O  O223  1  0.49504070  0.23653115  0.62594125  1
  O  O224  1  0.49944456  0.75118621  0.14041973  1
  O  O225  1  0.49194117  0.74440397  0.62546366  1
  O  O226  1  0.98548931  0.23397044  0.12693590  1
  O  O227  1  1.01190947  0.23321990  0.62682118  1
  O  O228  1  1.00741817  0.76068329  0.14120679  1
  O  O229  1  0.98340171  0.74778282  0.63700760  1
  O  O230  1  0.01406966  0.24089415  0.38452777  1
  O  O231  1  -0.00038438  0.25673380  0.86109210  1
  O  O232  1  0.01345281  0.75665839  0.37002504  1
  O  O233  1  -0.00594393  0.76986037  0.87370837  1
  O  O234  1  0.50361983  0.26512848  0.37884080  1
  O  O235  1  0.49838753  0.24813104  0.86614499  1
  O  O236  1  0.50701733  0.76064157  0.37283199  1
  O  O237  1  0.50660656  0.74299685  0.84821448  1
  O  O238  1  0.25731143  0.13352947  0.50329494  1
  O  O239  1  0.23891683  0.13791999  0.98985327  1
  O  O240  1  0.25826645  0.63530436  0.49585246  1
  O  O241  1  0.24362279  0.59267243  0.99041517  1
  O  O242  1  0.73900496  0.12698480  0.49420767  1
  O  O243  1  0.74233171  0.13097636  0.99277470  1
  O  O244  1  0.73818233  0.62947292  0.48879265  1
  O  O245  1  0.74531845  0.61825576  1.00333308  1
  O  O246  1  0.22179954  0.36343596  -0.00556692  1
  O  O247  1  0.25473089  0.37462631  0.50911053  1
  O  O248  1  0.26488332  0.88237677  0.01014129  1
  O  O249  1  0.24793905  0.87385744  0.50997902  1
  O  O250  1  0.74425499  0.36601486  0.01612951  1
  O  O251  1  0.74201280  0.36200753  0.50235238  1
  O  O252  1  0.75833127  0.90276171  0.00746802  1
  O  O253  1  0.77210890  0.87346519  0.48464835  1
  O  O254  1  0.12675832  0.47152496  0.25332213  1
  O  O255  1  0.11948641  0.48311441  0.74790492  1
  O  O256  1  0.13427085  0.99993411  0.23949860  1
  O  O257  1  0.13253414  0.99237206  0.74290021  1
  O  O258  1  0.63106981  0.50804010  0.24235294  1
  O  O259  1  0.65167386  0.50968007  0.73953701  1
  O  O260  1  0.63532432  0.99439521  0.25369125  1
  O  O261  1  0.63947166  1.01354273  0.75346390  1
  O  O262  1  0.36989288  0.01023970  0.25172803  1
  O  O263  1  0.37217175  0.00674519  0.75600910  1
  O  O264  1  0.35428166  0.51504057  0.26747620  1
  O  O265  1  0.38072794  0.46333161  0.78124154  1
  O  O266  1  0.85971913  0.00546356  0.25492139  1
  O  O267  1  0.87098341  0.01092001  0.75705306  1
  O  O268  1  0.86179201  0.50719139  0.27392422  1
  O  O269  1  0.84257427  0.49502817  0.77370163  1
  O  O270  1  0.12724635  0.34960712  0.35701580  1
  O  O271  1  0.10255987  0.36502406  0.85543287  1
  O  O272  1  0.11612401  0.86991769  0.37371168  1
  O  O273  1  0.11834666  0.87487268  0.87225643  1
  O  O274  1  0.60918616  0.36704327  0.38028674  1
  O  O275  1  0.69390603  0.39368968  0.84815779  1
  O  O276  1  0.61474510  0.86753225  0.37388192  1
  O  O277  1  0.64379067  0.85156699  0.92725233  1
  O  O278  1  0.37699702  0.12363795  0.13563834  1
  O  O279  1  0.38051550  0.12617799  0.63790636  1
  O  O280  1  0.38202136  0.61606903  0.14934928  1
  O  O281  1  0.38794143  0.63346440  0.62345763  1
  O  O282  1  0.87901172  0.12586027  0.13088762  1
  O  O283  1  0.88833126  0.11663646  0.63259526  1
  O  O284  1  0.85381890  0.65236466  0.13925209  1
  O  O285  1  0.86149229  0.63923860  0.64199065  1
  O  O286  1  0.26175436  0.24609786  0.10199994  1
  O  O287  1  0.24926270  0.25715363  0.61019509  1
  O  O288  1  0.24393197  0.76849480  0.12753111  1
  O  O289  1  0.25905824  0.75567237  0.60767219  1
  O  O290  1  0.75236514  0.25580618  0.11967663  1
  O  O291  1  0.73751591  0.26259541  0.61119869  1
  O  O292  1  0.74863984  0.76795486  0.13109472  1
  O  O293  1  0.76011850  0.75658736  0.62669022  1
  O  O294  1  0.25357960  0.24746478  0.38996998  1
  O  O295  1  0.23479003  0.24681775  0.87100447  1
  O  O296  1  0.24229063  0.76037309  0.38540209  1
  O  O297  1  0.24978290  0.76493623  0.87706140  1
  O  O298  1  0.73891130  0.23870300  0.37922462  1
  O  O299  1  0.76321383  0.24015475  0.88477496  1
  O  O300  1  0.73650736  0.74341058  0.37146135  1
  O  O301  1  0.77718916  0.74046559  0.89346028  1
  O  O302  1  0.01016151  0.13176891  0.00665342  1
  O  O303  1  -0.00849629  0.10823754  0.50849828  1
  O  O304  1  0.01990197  0.62363878  -0.01670743  1
  O  O305  1  0.00799726  0.63581484  0.49703189  1
  O  O306  1  0.50835560  0.11919606  -0.00297596  1
  O  O307  1  0.50036291  0.12354723  0.50406940  1
  O  O308  1  0.51830381  0.61792773  -0.00170666  1
  O  O309  1  0.50901075  0.61735842  0.50708413  1
  O  O310  1  0.48793325  0.38414489  0.50434520  1
  O  O311  1  0.52451780  0.39759452  0.98433721  1
  O  O312  1  0.49774494  0.88902667  0.48637952  1
  O  O313  1  0.48349169  0.89686275  1.00115566  1
  O  O314  1  1.02171815  0.39417214  0.51748651  1
  O  O315  1  0.99604137  0.35639412  0.98400410  1
  O  O316  1  0.98829868  0.88349178  0.49161954  1
  O  O317  1  0.99685523  0.87963249  0.98757467  1
  O  O318  1  0.50699896  0.48910257  0.39004237  1
  O  O319  1  0.51287774  0.51383420  0.87488383  1
  O  O320  1  0.49006271  0.99604684  0.37645843  1
  O  O321  1  0.48866688  1.00788675  0.87981493  1
  O  O322  1  0.99313806  0.49406470  0.36875365  1
  O  O323  1  0.98190699  0.48272974  0.87169312  1
  O  O324  1  1.00069321  0.99264712  0.38210958  1
  O  O325  1  0.99528002  0.99024490  0.86713061  1
  O  O326  1  0.01432512  0.00986469  0.12984220  1
  O  O327  1  0.00809992  0.00174821  0.61951790  1
  O  O328  1  -0.06452304  0.53282102  0.13861481  1
  O  O329  1  -0.04765547  0.51461385  0.62532969  1
  O  O330  1  0.49536046  0.00818279  0.11084068  1
  O  O331  1  0.48832179  0.01369968  0.61140952  1
  O  O332  1  0.51302808  0.50390492  0.13638653  1
  O  O333  1  0.50744132  0.50665824  0.61981753  1
  O  O334  1  0.25882944  0.37793435  0.24566961  1
  O  O335  1  0.23591698  0.36674324  0.73839473  1
  O  O336  1  0.25427557  0.88822059  0.23282090  1
  O  O337  1  0.24422219  0.88019547  0.74333267  1
  O  O338  1  0.75017855  0.38542874  0.24624560  1
  O  O339  1  0.75921295  0.37152249  0.72194729  1
  O  O340  1  0.74216370  0.88985368  0.25902922  1
  O  O341  1  0.74794150  0.89527765  0.75599454  1
  O  O342  1  0.25994121  0.11674712  0.23999276  1
  O  O343  1  0.25616800  0.12029657  0.75079411  1
  O  O344  1  0.26317328  0.64499599  0.25542913  1
  O  O345  1  0.23980163  0.61872758  0.76613882  1
  O  O346  1  0.75136773  0.11162845  0.25563779  1
  O  O347  1  0.75896416  0.12579554  0.75343789  1
  O  O348  1  0.75422251  0.61573552  0.25561472  1
  O  O349  1  0.74889016  0.63747604  0.77696417  1
  O  O350  1  0.38045099  0.11667926  0.35720809  1
  O  O351  1  0.36649161  0.11818580  0.86193280  1
  O  O352  1  0.38625830  0.62628100  0.36285603  1
  O  O353  1  0.35913402  0.62729684  0.87561342  1
  O  O354  1  0.86304860  0.12183585  0.36569526  1
  O  O355  1  0.87303583  0.12289203  0.86299991  1
  O  O356  1  0.85989270  0.64037498  0.35881338  1
  O  O357  1  0.87208252  0.61086449  0.88707871  1
  O  O358  1  0.12533441  0.34637808  0.15036618  1
  O  O359  1  0.13588009  0.36700387  0.63534589  1
  O  O360  1  0.13835901  0.88823098  0.12046817  1
  O  O361  1  0.13645064  0.88505331  0.63634947  1
  O  O362  1  0.63348043  0.39101092  0.12754640  1
  O  O363  1  0.62449848  0.38946304  0.61742024  1
  O  O364  1  0.62444365  0.87292268  0.13832143  1
  O  O365  1  0.63517701  0.88553852  0.58165593  1
  O  O366  1  0.12520246  0.24689237  0.26105577  1
  O  O367  1  0.11439945  0.24499641  0.75683127  1
  O  O368  1  0.12138207  0.75694291  0.26303060  1
  O  O369  1  0.12375860  0.76359704  0.77146733  1
  O  O370  1  0.62681493  0.24567727  0.26093081  1
  O  O371  1  0.61249718  0.23588703  0.75376396  1
  O  O372  1  0.61516035  0.75808964  0.25769072  1
  O  O373  1  0.62078769  0.76195793  0.72678084  1
  O  O374  1  0.36900806  0.23789474  0.24474817  1
  O  O375  1  0.38112168  0.24085108  0.75086299  1
  O  O376  1  0.38819872  0.74504085  0.25691878  1
  O  O377  1  0.39035138  0.75364591  0.73581593  1
  O  O378  1  0.85879848  0.23185549  0.23862225  1
  O  O379  1  0.88710600  0.23845538  0.74712593  1
  O  O380  1  0.88206408  0.74804164  0.24088404  1
  O  O381  1  0.87373422  0.76467584  0.74106185  1
  O  O382  1  0.37973342  0.49674948  0.50092442  1
  O  O383  1  0.40484893  0.50876592  1.00291091  1
  O  O384  1  0.38285019  1.01084018  0.48479711  1
  O  O385  1  0.38361724  1.00981937  0.99084413  1
  O  O386  1  0.86327575  0.51182276  0.46690469  1
  O  O387  1  0.86340297  0.48576833  0.98719082  1
  O  O388  1  0.88295999  0.98869207  0.49805233  1
  O  O389  1  0.87786783  1.00945516  0.98382592  1
  O  O390  1  0.13402581  0.01505993  0.00655916  1
  O  O391  1  0.11590665  -0.00891337  0.50943640  1
  O  O392  1  0.09721844  0.47935202  0.01677873  1
  O  O393  1  0.08718528  0.45237997  0.51172450  1
  O  O394  1  0.60885886  0.01129296  -0.00893806  1
  O  O395  1  0.60511664  0.01796527  0.48452649  1
  O  O396  1  0.61951231  0.51107225  0.01737218  1
  O  O397  1  0.61754628  0.50730055  0.50563566  1
  O  O398  1  0.36871354  0.39730143  0.11659086  1
  O  O399  1  0.36199611  0.37395721  0.61854224  1
  O  O400  1  0.36619050  0.87877402  0.11224376  1
  O  O401  1  0.36391106  0.86706458  0.62899205  1
  O  O402  1  0.86127838  0.35978733  0.13482944  1
  O  O403  1  0.86508137  0.36280280  0.60436750  1
  O  O404  1  0.87812071  0.86824341  0.13177306  1
  O  O405  1  0.87726937  0.87212720  0.61369634  1
  O  O406  1  0.13022704  0.13290598  0.36822739  1
  O  O407  1  0.12493852  0.13024312  0.87751817  1
  O  O408  1  0.12683453  0.63924936  0.36485365  1
  O  O409  1  0.14858832  0.64645846  0.88230097  1
  O  O410  1  0.62678891  0.13310662  0.37885974  1
  O  O411  1  0.63884902  0.12486582  0.88471518  1
  O  O412  1  0.62824757  0.63455863  0.37982243  1
  O  O413  1  0.64561977  0.63295861  0.89383397  1
