# generated using pymatgen
data_V79Zn79O256
_symmetry_space_group_name_H-M   'P 1'
_cell_length_a   16.89344949
_cell_length_b   16.91809622
_cell_length_c   16.92475327
_cell_angle_alpha   89.90965073
_cell_angle_beta   89.94623223
_cell_angle_gamma   89.95312082
_symmetry_Int_Tables_number   1
_chemical_formula_structural   V79Zn79O256
_chemical_formula_sum   'V79 Zn79 O256'
_cell_volume   4837.16941602
_cell_formula_units_Z   1
loop_
 _symmetry_equiv_pos_site_id
 _symmetry_equiv_pos_as_xyz
  1  'x, y, z'
loop_
 _atom_site_type_symbol
 _atom_site_label
 _atom_site_symmetry_multiplicity
 _atom_site_fract_x
 _atom_site_fract_y
 _atom_site_fract_z
 _atom_site_occupancy
  V  V0  1  0.63165885  0.12220368  -0.00208506  1
  V  V1  1  0.00054835  0.86933597  0.87557003  1
  V  V2  1  0.13241685  0.12281919  -0.00129277  1
  V  V3  1  0.37285501  0.25592498  0.63049132  1
  V  V4  1  0.37500118  0.37853227  0.48918345  1
  V  V5  1  0.74367179  0.47511122  0.22834363  1
  V  V6  1  0.37006692  0.12281349  0.75832418  1
  V  V7  1  0.49765960  0.49602290  0.47756084  1
  V  V8  1  0.50073842  0.74240343  0.72914678  1
  V  V9  1  0.85881756  0.00249201  0.37162805  1
  V  V10  1  0.86594289  0.36278569  0.00356730  1
  V  V11  1  0.87133798  0.75409219  0.12178455  1
  V  V12  1  0.48981582  0.12081656  0.11918514  1
  V  V13  1  0.61116093  0.49659164  0.62709188  1
  V  V14  1  0.50240213  0.25312602  0.75638513  1
  V  V15  1  0.75074850  0.61982363  0.36410270  1
  V  V16  1  0.87002760  0.88577072  0.00608022  1
  V  V17  1  0.00388353  0.49952299  -0.00104044  1
  V  V18  1  0.62641408  -0.00110972  0.12890053  1
  V  V19  1  0.00107514  0.62326387  0.62035839  1
  V  V20  1  0.23811517  0.63589108  0.87812375  1
  V  V21  1  0.87167703  0.75328542  0.61837481  1
  V  V22  1  0.13326800  0.24209410  0.36779877  1
  V  V23  1  0.62934727  0.37371648  0.75732475  1
  V  V24  1  0.25044241  0.88040958  0.12520330  1
  V  V25  1  0.24682288  0.37436305  0.63192486  1
  V  V26  1  0.13339921  0.62599357  0.49151689  1
  V  V27  1  0.13423968  0.12249053  0.50328428  1
  V  V28  1  0.37727859  0.63092027  0.74219232  1
  V  V29  1  -0.00326268  0.87793594  0.38076640  1
  V  V30  1  0.42277981  0.29587771  0.17368553  1
  V  V31  1  0.12993551  0.24738466  0.87246340  1
  V  V32  1  0.25878570  0.25097422  -0.00006598  1
  V  V33  1  0.36290512  0.62395319  0.25711139  1
  V  V34  1  0.25410473  0.50064402  0.75354307  1
  V  V35  1  0.00580287  0.00124393  0.00915556  1
  V  V36  1  0.00403040  0.37069930  0.37158214  1
  V  V37  1  0.75172323  0.75233471  0.49927912  1
  V  V38  1  -0.00767961  0.24698147  0.24539096  1
  V  V39  1  0.26213162  0.75203675  0.50052828  1
  V  V40  1  0.24384631  0.37401783  0.11629936  1
  V  V41  1  0.87362918  0.62200168  0.74669722  1
  V  V42  1  0.75108616  0.88471352  0.13430490  1
  V  V43  1  0.63368945  0.24894615  0.87698524  1
  V  V44  1  0.62319462  0.14662217  0.49621565  1
  V  V45  1  0.49880274  0.00754154  0.49223663  1
  V  V46  1  0.75570926  0.12031010  0.85959840  1
  V  V47  1  0.50328356  0.12531676  0.62503853  1
  V  V48  1  0.00339955  0.37430806  0.86442597  1
  V  V49  1  0.88058449  0.24027066  0.62865749  1
  V  V50  1  0.62207279  0.75269063  0.37201981  1
  V  V51  1  0.62138103  0.61903357  0.50040543  1
  V  V52  1  0.87084286  0.50075257  0.87415397  1
  V  V53  1  0.12748735  0.50193477  0.12347971  1
  V  V54  1  -0.00072358  0.74978316  0.25087595  1
  V  V55  1  0.12361642  0.88156637  0.24556255  1
  V  V56  1  0.50601112  0.61993780  0.11781267  1
  V  V57  1  0.12531841  -0.00466205  0.62787074  1
  V  V58  1  0.75353184  0.36931003  0.61958239  1
  V  V59  1  0.87330891  -0.00063239  0.86307788  1
  V  V60  1  0.00211794  0.23026908  0.74817832  1
  V  V61  1  0.25034954  0.00316271  0.26533416  1
  V  V62  1  0.50454027  0.85891205  0.87032261  1
  V  V63  1  0.00379436  0.62733757  0.11486072  1
  V  V64  1  0.00078980  0.74916053  0.75496467  1
  V  V65  1  0.00682515  0.12509041  0.12798620  1
  V  V66  1  0.49147003  0.74840166  0.24345648  1
  V  V67  1  0.75160116  0.50059986  0.74862133  1
  V  V68  1  0.24611040  0.49415199  0.26225378  1
  V  V69  1  0.37856676  0.11666122  0.25752038  1
  V  V70  1  0.74494171  0.15544517  0.37765714  1
  V  V71  1  0.23485588  0.74673635  0.00646629  1
  V  V72  1  0.38101477  0.86271595  0.00564980  1
  V  V73  1  0.25184371  0.00152978  0.75653534  1
  V  V74  1  0.49177778  0.88231964  0.37457660  1
  V  V75  1  0.69593357  0.66393987  -0.04576900  1
  V  V76  1  -0.00041281  0.00559500  0.50289105  1
  V  V77  1  0.12597222  0.49661945  0.62929478  1
  V  V78  1  0.87736895  0.36961099  0.49511913  1
  Zn  Zn79  1  0.37404035  -0.00359315  0.87620122  1
  Zn  Zn80  1  0.87611636  0.61832355  0.24795994  1
  Zn  Zn81  1  0.84161243  0.12551063  0.22663430  1
  Zn  Zn82  1  0.12922926  0.74722850  0.37178373  1
  Zn  Zn83  1  0.13050283  0.86646116  0.75416022  1
  Zn  Zn84  1  0.37022213  0.89300981  0.49879430  1
  Zn  Zn85  1  0.25196151  0.24418035  0.49969717  1
  Zn  Zn86  1  0.81839714  0.91881701  0.54673404  1
  Zn  Zn87  1  0.62846328  0.88210860  0.25611323  1
  Zn  Zn88  1  0.87460479  0.49304728  0.36718836  1
  Zn  Zn89  1  -0.00034716  0.49905127  0.49350153  1
  Zn  Zn90  1  0.49562328  0.47878695  0.00012967  1
  Zn  Zn91  1  0.35596585  0.49463690  0.90978830  1
  Zn  Zn92  1  0.27473549  0.86290923  0.63919586  1
  Zn  Zn93  1  0.49756925  -0.00490330  -0.00536584  1
  Zn  Zn94  1  0.18988636  0.18335209  0.18344810  1
  Zn  Zn95  1  0.18403799  0.18172598  0.68583643  1
  Zn  Zn96  1  0.18452913  0.68880482  0.18517156  1
  Zn  Zn97  1  0.18820041  0.68623830  0.68362691  1
  Zn  Zn98  1  0.67847275  0.17670017  0.19177418  1
  Zn  Zn99  1  0.69048532  0.18449607  0.68488434  1
  Zn  Zn100  1  0.68627923  0.69249678  0.18387740  1
  Zn  Zn101  1  0.68545064  0.68317168  0.68265535  1
  Zn  Zn102  1  0.30579624  0.31354521  0.30823158  1
  Zn  Zn103  1  0.31300874  0.31614629  0.81909905  1
  Zn  Zn104  1  0.30904350  0.81058350  0.31785685  1
  Zn  Zn105  1  0.31633910  0.81247391  0.81672099  1
  Zn  Zn106  1  0.81327009  0.29380302  0.16669250  1
  Zn  Zn107  1  0.81680504  0.31155328  0.81284841  1
  Zn  Zn108  1  0.81243469  0.81444309  0.31547033  1
  Zn  Zn109  1  0.66265763  0.77276362  0.83544800  1
  Zn  Zn110  1  0.18285966  0.43064543  0.44443917  1
  Zn  Zn111  1  0.18296970  0.43505357  0.93526920  1
  Zn  Zn112  1  0.18427041  0.93167961  0.43872008  1
  Zn  Zn113  1  0.18687942  0.93319051  0.93687906  1
  Zn  Zn114  1  0.70106476  0.44568146  0.44275685  1
  Zn  Zn115  1  0.68132983  0.46281190  1.02362814  1
  Zn  Zn116  1  0.65264197  0.97256451  0.59549915  1
  Zn  Zn117  1  0.68769052  0.93649065  0.93966000  1
  Zn  Zn118  1  0.31110538  0.05584496  0.05950831  1
  Zn  Zn119  1  0.31534369  0.05673912  0.57093697  1
  Zn  Zn120  1  0.31977326  0.57397963  0.07086169  1
  Zn  Zn121  1  0.31600636  0.56027634  0.56155695  1
  Zn  Zn122  1  0.80816108  0.08331863  0.06650623  1
  Zn  Zn123  1  0.80862390  0.07860997  0.55378447  1
  Zn  Zn124  1  0.82163241  0.56173418  0.06616412  1
  Zn  Zn125  1  0.81146859  0.55837961  0.55783954  1
  Zn  Zn126  1  0.42180754  0.45881394  0.16987052  1
  Zn  Zn127  1  0.45286309  0.44012626  0.79974351  1
  Zn  Zn128  1  0.43692331  0.93780473  0.18576952  1
  Zn  Zn129  1  0.47528694  0.91535157  0.66410426  1
  Zn  Zn130  1  0.93645322  0.43484872  0.18749151  1
  Zn  Zn131  1  0.93924855  0.43376861  0.68298330  1
  Zn  Zn132  1  0.93604333  0.94766068  0.19414859  1
  Zn  Zn133  1  0.94072186  0.93535213  0.68662250  1
  Zn  Zn134  1  0.06423139  0.06287418  0.31662148  1
  Zn  Zn135  1  0.06529496  0.05806317  0.81789761  1
  Zn  Zn136  1  0.06237779  0.55946190  0.30787621  1
  Zn  Zn137  1  0.06188184  0.56408302  0.81286786  1
  Zn  Zn138  1  0.56792548  0.06928927  0.31305247  1
  Zn  Zn139  1  0.55415092  0.06132179  0.81816556  1
  Zn  Zn140  1  0.57025479  0.55946795  0.29824674  1
  Zn  Zn141  1  0.58272489  0.56656911  0.86658858  1
  Zn  Zn142  1  0.43062960  0.18993596  0.43998134  1
  Zn  Zn143  1  0.44239135  0.18952460  0.93754919  1
  Zn  Zn144  1  0.43771006  0.68211903  0.43282517  1
  Zn  Zn145  1  0.42750720  0.67991912  0.93323355  1
  Zn  Zn146  1  0.93759925  0.18571724  0.43607974  1
  Zn  Zn147  1  0.94060821  0.18366241  0.93612549  1
  Zn  Zn148  1  0.93701215  0.68492304  0.43427704  1
  Zn  Zn149  1  0.86597682  0.71385166  0.91557208  1
  Zn  Zn150  1  0.06333556  0.31419630  0.05886068  1
  Zn  Zn151  1  0.06172912  0.30815112  0.56022500  1
  Zn  Zn152  1  0.05984489  0.81553574  0.06280534  1
  Zn  Zn153  1  0.06520011  0.81165867  0.56413581  1
  Zn  Zn154  1  0.57383416  0.30929891  0.06227808  1
  Zn  Zn155  1  0.55555747  0.32067351  0.57033833  1
  Zn  Zn156  1  0.57305662  0.80334238  0.05957889  1
  Zn  Zn157  1  0.56544903  0.81056388  0.55532905  1
  O  O158  1  0.11850995  0.12587335  0.11186111  1
  O  O159  1  0.12467099  0.10932037  0.61650509  1
  O  O160  1  0.11522340  0.61654705  0.12475722  1
  O  O161  1  0.11781025  0.61681666  0.61528492  1
  O  O162  1  0.61201411  0.11805889  0.11643491  1
  O  O163  1  0.61618388  0.13311132  0.61370458  1
  O  O164  1  0.60570092  0.63321299  0.13429741  1
  O  O165  1  0.63245410  0.61026784  0.60739268  1
  O  O166  1  0.36849247  0.36734046  0.39108010  1
  O  O167  1  0.37890191  0.38815796  0.86947607  1
  O  O168  1  0.38849359  0.87213278  0.37811974  1
  O  O169  1  0.38613871  0.87210242  0.88861342  1
  O  O170  1  0.88977749  0.36753665  0.38721118  1
  O  O171  1  0.88344955  0.38286131  0.87993465  1
  O  O172  1  0.88574548  0.88938160  0.36736924  1
  O  O173  1  0.88183043  0.89148461  0.88988245  1
  O  O174  1  0.25117207  -0.00444590  0.36417198  1
  O  O175  1  0.25027890  -0.00589632  0.86164737  1
  O  O176  1  0.23810603  0.48979572  0.36068728  1
  O  O177  1  0.24216062  0.50911470  0.86870709  1
  O  O178  1  0.76347716  -0.00940410  0.37861606  1
  O  O179  1  0.76339129  0.00612302  0.87901419  1
  O  O180  1  0.75199908  0.50319142  0.36150444  1
  O  O181  1  0.76589476  0.49396800  0.85793150  1
  O  O182  1  0.24115810  0.49522996  0.12325858  1
  O  O183  1  0.24502400  0.49438635  0.63180538  1
  O  O184  1  0.25091534  0.98430601  0.13159493  1
  O  O185  1  0.24192955  0.99400410  0.63693094  1
  O  O186  1  0.74494490  0.49956515  0.12433532  1
  O  O187  1  0.74609163  0.48766771  0.62993430  1
  O  O188  1  0.74017466  0.99841371  0.12297389  1
  O  O189  1  0.75959833  0.99412732  0.60918579  1
  O  O190  1  -0.00355542  0.35772168  0.25683058  1
  O  O191  1  -0.00065810  0.37413619  0.76143882  1
  O  O192  1  0.00685027  0.87193376  0.25460467  1
  O  O193  1  -0.00048984  0.86550871  0.75862580  1
  O  O194  1  0.47399760  0.36139666  0.22671217  1
  O  O195  1  0.51631103  0.36334669  0.74395925  1
  O  O196  1  0.49716421  0.86554039  0.25909767  1
  O  O197  1  0.49026576  0.85386164  0.76398682  1
  O  O198  1  0.48683121  0.11949868  0.23788934  1
  O  O199  1  0.49593328  0.13242293  0.74281217  1
  O  O200  1  0.49447055  0.63640689  0.24935547  1
  O  O201  1  0.48528161  0.63572285  0.75271746  1
  O  O202  1  1.01303976  0.13550937  0.24316484  1
  O  O203  1  0.99703972  0.13183897  0.75396124  1
  O  O204  1  1.00071447  0.63542932  0.24213371  1
  O  O205  1  0.99474880  0.62699725  0.73838842  1
  O  O206  1  0.35849189  0.24304823  -0.00826141  1
  O  O207  1  0.37392119  0.26106726  0.50919382  1
  O  O208  1  0.36190164  0.76100014  -0.00254263  1
  O  O209  1  0.36256030  0.73987183  0.49773296  1
  O  O210  1  0.87738094  0.26357416  -0.01283393  1
  O  O211  1  0.88965025  0.25815307  0.51719133  1
  O  O212  1  0.88875816  0.77337109  0.01594297  1
  O  O213  1  0.86575166  0.73970664  0.50649822  1
  O  O214  1  0.12604082  0.23732495  0.49573240  1
  O  O215  1  0.12936485  0.24147003  0.99136674  1
  O  O216  1  0.12598566  0.73497717  0.49836705  1
  O  O217  1  0.13535949  0.75445309  1.00056727  1
  O  O218  1  0.61202121  0.24628551  0.50270307  1
  O  O219  1  0.62138362  0.23607638  0.98509333  1
  O  O220  1  0.62820043  0.73600469  0.49275871  1
  O  O221  1  0.64386144  0.73180342  1.00916354  1
  O  O222  1  0.49100695  0.24169938  0.11276643  1
  O  O223  1  0.49208994  0.24594278  0.63675393  1
  O  O224  1  0.50150628  0.75332794  0.14209131  1
  O  O225  1  0.49339421  0.74607458  0.63082261  1
  O  O226  1  1.01223109  0.24434494  0.13933513  1
  O  O227  1  0.99524764  0.25467562  0.64040163  1
  O  O228  1  0.99636307  0.74592002  0.13200057  1
  O  O229  1  0.99315827  0.73933752  0.62733342  1
  O  O230  1  0.00846679  0.24923358  0.36371823  1
  O  O231  1  0.00360956  0.25347374  0.86199951  1
  O  O232  1  -0.00210727  0.75866224  0.36584292  1
  O  O233  1  -0.02606970  0.76062118  0.86365716  1
  O  O234  1  0.50283834  0.25506376  0.35695239  1
  O  O235  1  0.51512356  0.24381470  0.86324652  1
  O  O236  1  0.50390410  0.75690105  0.36964273  1
  O  O237  1  0.49827406  0.75586788  0.87585201  1
  O  O238  1  0.24012523  0.12291347  0.50631329  1
  O  O239  1  0.24021721  0.13232098  1.00831565  1
  O  O240  1  0.23879112  0.63046675  0.50448153  1
  O  O241  1  0.25284242  0.63848077  0.99370262  1
  O  O242  1  0.73113528  0.13672706  0.49218007  1
  O  O243  1  0.73646567  0.11944659  0.98483332  1
  O  O244  1  0.73982507  0.62220006  0.48544419  1
  O  O245  1  0.79235892  0.64023293  0.99070907  1
  O  O246  1  0.24450245  0.36666233  0.00665382  1
  O  O247  1  0.26326115  0.37852482  0.51192450  1
  O  O248  1  0.25476917  0.86559245  0.00511460  1
  O  O249  1  0.25370776  0.86291200  0.50012661  1
  O  O250  1  0.76727692  0.38227864  -0.00067553  1
  O  O251  1  0.75840033  0.37431907  0.50979868  1
  O  O252  1  0.76312101  0.88464407  0.01421045  1
  O  O253  1  0.74223485  0.85176591  0.49348654  1
  O  O254  1  0.13847718  0.50722197  0.23785699  1
  O  O255  1  0.13674722  0.50922282  0.73718310  1
  O  O256  1  0.13892752  0.99382780  0.25440482  1
  O  O257  1  0.13244644  1.00070800  0.74435506  1
  O  O258  1  0.64490752  0.48856576  0.25170429  1
  O  O259  1  0.63552696  0.49075151  0.74416727  1
  O  O260  1  0.61519644  0.99925817  0.23387022  1
  O  O261  1  0.63084805  0.99595434  0.74075722  1
  O  O262  1  0.36523077  0.00682714  0.24999718  1
  O  O263  1  0.36531786  0.01065265  0.74894598  1
  O  O264  1  0.35649249  0.51078736  0.24840477  1
  O  O265  1  0.36096286  0.51323710  0.75131777  1
  O  O266  1  0.88101210  0.01832586  0.26674688  1
  O  O267  1  0.87952358  -0.00597296  0.76468301  1
  O  O268  1  0.86026468  0.50037991  0.24570391  1
  O  O269  1  0.87189322  0.50260381  0.75125005  1
  O  O270  1  0.11305914  0.35618094  0.38698570  1
  O  O271  1  0.11324053  0.36043429  0.88072683  1
  O  O272  1  0.11482715  0.87317159  0.36254092  1
  O  O273  1  0.10534816  0.87643736  0.87511851  1
  O  O274  1  0.55320396  0.30748744  0.37142523  1
  O  O275  1  0.64036472  0.36076235  0.85943531  1
  O  O276  1  0.61218114  0.85912100  0.37337358  1
  O  O277  1  0.61142538  0.86714193  0.88483397  1
  O  O278  1  0.38447746  0.11707013  0.12883113  1
  O  O279  1  0.38031799  0.13983963  0.63315807  1
  O  O280  1  0.39015101  0.62704809  0.14660154  1
  O  O281  1  0.36514413  0.62389536  0.64306060  1
  O  O282  1  0.90339537  0.11270233  0.12429302  1
  O  O283  1  0.87590919  0.14185022  0.62104028  1
  O  O284  1  0.88581397  0.63802959  0.13017206  1
  O  O285  1  0.88554134  0.62300387  0.62568722  1
  O  O286  1  0.23905943  0.26224247  0.11447321  1
  O  O287  1  0.25407760  0.25725820  0.62702872  1
  O  O288  1  0.24644402  0.75847168  0.11373444  1
  O  O289  1  0.24084728  0.75331492  0.60806773  1
  O  O290  1  0.77637602  0.19173391  0.13775296  1
  O  O291  1  0.76784739  0.25888149  0.63704937  1
  O  O292  1  0.76487551  0.76213402  0.13243854  1
  O  O293  1  0.76024757  0.73754971  0.61263096  1
  O  O294  1  0.23666566  0.25578526  0.37972211  1
  O  O295  1  0.23739607  0.25597591  0.88208923  1
  O  O296  1  0.24398984  0.75159157  0.39157351  1
  O  O297  1  0.24823582  0.74217210  0.88522306  1
  O  O298  1  0.75063641  0.25049907  0.37371006  1
  O  O299  1  0.74539340  0.23328556  0.86527025  1
  O  O300  1  0.74304973  0.74043863  0.37750865  1
  O  O301  1  0.75660998  0.74362926  0.89072576  1
  O  O302  1  0.00971325  0.11994472  0.00617186  1
  O  O303  1  0.01132613  0.11189212  0.49266982  1
  O  O304  1  -0.00888154  0.61221870  0.01203658  1
  O  O305  1  0.00824103  0.62201612  0.50678708  1
  O  O306  1  0.50825940  0.12013785  0.00358439  1
  O  O307  1  0.50385661  0.13047823  0.50418719  1
  O  O308  1  0.49182207  0.63797261  0.01854990  1
  O  O309  1  0.50854964  0.60708102  0.49031822  1
  O  O310  1  0.48692738  0.38525057  0.50275190  1
  O  O311  1  0.58151213  0.40932139  1.01879306  1
  O  O312  1  0.50064631  0.88563135  0.48340611  1
  O  O313  1  0.49042744  0.86409411  0.99769090  1
  O  O314  1  0.99528454  0.37652261  0.49316870  1
  O  O315  1  0.99330388  0.38205798  0.98970404  1
  O  O316  1  1.00832168  0.88214173  0.48710178  1
  O  O317  1  0.99559483  0.88551139  0.99660785  1
  O  O318  1  0.50725068  0.49365947  0.37967901  1
  O  O319  1  0.49580556  0.50583082  0.88404495  1
  O  O320  1  0.50670588  0.98794611  0.37361650  1
  O  O321  1  0.49844208  0.97929167  0.87512896  1
  O  O322  1  0.99902812  0.48506315  0.36949978  1
  O  O323  1  0.99574888  0.49381270  0.87894481  1
  O  O324  1  0.99822667  0.99419664  0.38319713  1
  O  O325  1  0.98894351  0.99579130  0.88347587  1
  O  O326  1  0.00792218  0.00194892  0.11574191  1
  O  O327  1  0.00594902  -0.00739077  0.61158772  1
  O  O328  1  0.00658528  0.50568036  0.12096102  1
  O  O329  1  0.00919333  0.50674320  0.62438552  1
  O  O330  1  0.50590259  0.00425375  0.11788305  1
  O  O331  1  0.49266144  0.02302031  0.61544662  1
  O  O332  1  0.50665855  0.51612867  0.12535472  1
  O  O333  1  0.51342031  0.49506871  0.62139937  1
  O  O334  1  0.25418234  0.38913604  0.23658949  1
  O  O335  1  0.25299515  0.38503961  0.73967388  1
  O  O336  1  0.24634368  0.88260928  0.24662984  1
  O  O337  1  0.24828349  0.88036053  0.75234942  1
  O  O338  1  0.76160890  0.37672881  0.23165082  1
  O  O339  1  0.74931383  0.38089148  0.74020621  1
  O  O340  1  0.74763356  0.87534965  0.23954376  1
  O  O341  1  0.67998602  0.94589986  0.76770253  1
  O  O342  1  0.26052371  0.10977787  0.24213253  1
  O  O343  1  0.25946701  0.11726306  0.74611382  1
  O  O344  1  0.25613276  0.61954339  0.24649130  1
  O  O345  1  0.25422959  0.62520362  0.76076353  1
  O  O346  1  0.73418407  0.12265353  0.27783615  1
  O  O347  1  0.74675580  0.11609602  0.76050537  1
  O  O348  1  0.74862606  0.62534067  0.25727494  1
  O  O349  1  0.76251284  0.61074657  0.73456781  1
  O  O350  1  0.38234515  0.13142625  0.35589610  1
  O  O351  1  0.38566668  0.12156279  0.86129947  1
  O  O352  1  0.37770368  0.62195488  0.35687684  1
  O  O353  1  0.35627221  0.61795103  0.86801619  1
  O  O354  1  0.85360827  0.12005259  0.38726766  1
  O  O355  1  0.86525764  0.11333373  0.87847988  1
  O  O356  1  0.86479359  0.62024630  0.37014862  1
  O  O357  1  0.88531705  0.61212922  0.85509145  1
  O  O358  1  0.13066220  0.38893348  0.12148946  1
  O  O359  1  0.13547163  0.38511484  0.61344308  1
  O  O360  1  0.13237969  0.87085768  0.13835691  1
  O  O361  1  0.12364977  0.88676038  0.62970151  1
  O  O362  1  0.63418817  0.32450298  0.16588383  1
  O  O363  1  0.63528018  0.37783366  0.63336033  1
  O  O364  1  0.63485267  0.88221431  0.12296989  1
  O  O365  1  0.58474584  0.89141423  0.62761279  1
  O  O366  1  0.12637129  0.24359115  0.26468604  1
  O  O367  1  0.11258866  0.24180992  0.75687938  1
  O  O368  1  0.11530922  0.75798036  0.25140104  1
  O  O369  1  0.10568548  0.74606273  0.74391065  1
  O  O370  1  0.62142348  0.27492422  0.22468141  1
  O  O371  1  0.62146420  0.25309750  0.75397658  1
  O  O372  1  0.61158313  0.75130559  0.25854569  1
  O  O373  1  0.60837521  0.74834490  0.73609372  1
  O  O374  1  0.36476576  0.23609665  0.23991561  1
  O  O375  1  0.38228774  0.24568601  0.74822526  1
  O  O376  1  0.38367088  0.74285467  0.25581906  1
  O  O377  1  0.38067722  0.73862534  0.75382649  1
  O  O378  1  0.89194417  0.23668069  0.24886863  1
  O  O379  1  0.89017736  0.25364005  0.74132298  1
  O  O380  1  0.88779607  0.75554822  0.24158026  1
  O  O381  1  0.88365464  0.73295867  0.73325775  1
  O  O382  1  0.38673313  0.49172581  0.49962965  1
  O  O383  1  0.38337181  0.49659256  1.01881884  1
  O  O384  1  0.39119639  1.01374216  0.49436334  1
  O  O385  1  0.37413633  0.98219929  0.99582169  1
  O  O386  1  0.87748010  0.48553478  0.49469509  1
  O  O387  1  0.88576459  0.49036641  0.99108204  1
  O  O388  1  0.88363133  1.00149986  0.48898029  1
  O  O389  1  0.88722480  0.99821240  1.00105297  1
  O  O390  1  0.11656609  0.01007741  -0.01140518  1
  O  O391  1  0.12127946  0.00385255  0.50617233  1
  O  O392  1  0.11191688  0.49748101  0.00633885  1
  O  O393  1  0.12608879  0.51105143  0.50934230  1
  O  O394  1  0.62077642  0.00617592  0.00805622  1
  O  O395  1  0.60514670  0.02501570  0.50063506  1
  O  O396  1  0.65690644  0.56471302  -0.02604813  1
  O  O397  1  0.61404018  0.49618799  0.50216283  1
  O  O398  1  0.36243922  0.36404154  0.12180299  1
  O  O399  1  0.36537581  0.36263196  0.61940923  1
  O  O400  1  0.36828445  0.87466726  0.11304823  1
  O  O401  1  0.38123334  0.88606774  0.61161946  1
  O  O402  1  0.88406609  0.36708941  0.10921555  1
  O  O403  1  0.87056128  0.36913411  0.61653260  1
  O  O404  1  0.87067412  0.87731437  0.12528432  1
  O  O405  1  0.88113391  0.85761823  0.62318215  1
  O  O406  1  0.12546124  0.13553264  0.38511246  1
  O  O407  1  0.11877135  0.13638809  0.88569574  1
  O  O408  1  0.11865565  0.62174395  0.38931812  1
  O  O409  1  0.13816476  0.62501832  0.87242661  1
  O  O410  1  0.62723997  0.13521733  0.38665348  1
  O  O411  1  0.63493224  0.12560845  0.87682800  1
  O  O412  1  0.63024259  0.62979304  0.37941337  1
  O  O413  1  0.64664734  0.65410196  0.85662193  1
