# generated using pymatgen
data_V79Zn79O256
_symmetry_space_group_name_H-M   'P 1'
_cell_length_a   16.90378124
_cell_length_b   16.91453623
_cell_length_c   16.93260716
_cell_angle_alpha   90.18797541
_cell_angle_beta   90.21129756
_cell_angle_gamma   90.23279378
_symmetry_Int_Tables_number   1
_chemical_formula_structural   V79Zn79O256
_chemical_formula_sum   'V79 Zn79 O256'
_cell_volume   4841.26543066
_cell_formula_units_Z   1
loop_
 _symmetry_equiv_pos_site_id
 _symmetry_equiv_pos_as_xyz
  1  'x, y, z'
loop_
 _atom_site_type_symbol
 _atom_site_label
 _atom_site_symmetry_multiplicity
 _atom_site_fract_x
 _atom_site_fract_y
 _atom_site_fract_z
 _atom_site_occupancy
  V  V0  1  0.49903831  0.12533859  0.13176267  1
  V  V1  1  0.74400311  0.49560823  0.74276356  1
  V  V2  1  0.12661508  0.00060292  0.12646537  1
  V  V3  1  0.13193720  0.61406750  0.50218817  1
  V  V4  1  0.62415844  0.74997225  0.87483688  1
  V  V5  1  0.12050888  0.25455252  0.38057630  1
  V  V6  1  0.50257943  0.50069067  0.00176973  1
  V  V7  1  0.37332896  0.37257459  0.00213675  1
  V  V8  1  0.25186222  0.61459699  0.36579969  1
  V  V9  1  0.62728735  0.12865284  0.00599810  1
  V  V10  1  0.61554338  0.00050979  0.61952870  1
  V  V11  1  0.24709100  0.38720310  0.13028434  1
  V  V12  1  0.62313228  0.87592761  0.75008174  1
  V  V13  1  0.75128388  0.87775367  0.62238220  1
  V  V14  1  0.36644361  0.50119166  0.86305679  1
  V  V15  1  0.37808487  0.73125207  0.13041327  1
  V  V16  1  0.37367125  0.24456202  0.13120879  1
  V  V17  1  0.87189625  -0.00093281  0.87884869  1
  V  V18  1  0.75518882  0.00426259  0.25127859  1
  V  V19  1  0.62299255  -0.01148239  0.13287201  1
  V  V20  1  0.75194866  0.00587233  0.75109734  1
  V  V21  1  0.62873966  0.62527561  0.49354892  1
  V  V22  1  0.00209595  0.23653435  0.23984088  1
  V  V23  1  0.63462142  0.38327202  0.24905942  1
  V  V24  1  0.89483886  0.50692751  0.38764680  1
  V  V25  1  0.11120089  -0.00306881  0.59676880  1
  V  V26  1  0.86980313  0.37745148  0.00113617  1
  V  V27  1  0.14174678  0.49188032  0.63713265  1
  V  V28  1  0.12628063  0.88654259  0.74674316  1
  V  V29  1  0.84344288  0.25097319  0.64967835  1
  V  V30  1  0.13397340  0.75518284  0.38680655  1
  V  V31  1  0.13302514  0.87463070  0.24524613  1
  V  V32  1  0.75504953  0.75579310  -0.00270847  1
  V  V33  1  0.49423103  0.74652712  0.74671585  1
  V  V34  1  0.62146407  0.37203937  0.74390925  1
  V  V35  1  0.76709970  0.50912940  0.25167181  1
  V  V36  1  0.50386588  0.86232767  0.36941618  1
  V  V37  1  -0.00007564  0.61469472  0.61960464  1
  V  V38  1  0.00097506  0.75130359  0.25073726  1
  V  V39  1  0.87924003  0.74990468  0.12508170  1
  V  V40  1  0.61942734  0.24704856  0.87704815  1
  V  V41  1  0.37840267  0.87704162  0.49622998  1
  V  V42  1  0.50342971  0.61657117  0.62112057  1
  V  V43  1  0.00510754  0.35362402  0.86781106  1
  V  V44  1  0.50365793  0.40216296  0.37517869  1
  V  V45  1  0.25214410  0.00826705  0.24923673  1
  V  V46  1  0.00126203  0.14318138  0.62457583  1
  V  V47  1  0.87279704  0.23754918  0.12500474  1
  V  V48  1  0.11776117  0.12334305  0.00272572  1
  V  V49  1  0.88196494  0.00518909  0.38262287  1
  V  V50  1  0.87465129  0.61442494  0.75022693  1
  V  V51  1  0.62325864  0.62369369  0.00120794  1
  V  V52  1  0.24207928  0.24373917  0.00348190  1
  V  V53  1  0.87128974  0.36104178  0.49151304  1
  V  V54  1  0.12183280  0.38580178  0.24712739  1
  V  V55  1  0.24416110  0.11795103  0.86855998  1
  V  V56  1  0.87287081  0.75068002  0.62176341  1
  V  V57  1  0.50142511  0.25608599  0.25166227  1
  V  V58  1  0.75284760  0.87323496  0.12977812  1
  V  V59  1  0.25054494  0.88344370  0.62150644  1
  V  V60  1  0.61883504  0.12604721  0.49907567  1
  V  V61  1  -0.00467673  -0.00251961  0.00680569  1
  V  V62  1  0.00199084  0.50086077  -0.01522304  1
  V  V63  1  0.49528704  0.87496021  0.88084195  1
  V  V64  1  0.74904344  0.12787831  0.87906259  1
  V  V65  1  0.38538940  0.01228885  0.37345495  1
  V  V66  1  0.37829321  0.39512278  0.49465700  1
  V  V67  1  0.36182993  0.87535765  0.01096618  1
  V  V68  1  0.00206792  0.75007584  0.74973140  1
  V  V69  1  -0.00485743  0.87518371  0.87723382  1
  V  V70  1  0.37002352  0.00161388  0.86166231  1
  V  V71  1  0.24769958  0.13612044  0.38224813  1
  V  V72  1  0.36855719  0.74555317  0.62009719  1
  V  V73  1  0.75406642  0.13121816  0.37650926  1
  V  V74  1  0.75321036  0.61927853  0.87278351  1
  V  V75  1  0.48873513  0.13560612  0.63667314  1
  V  V76  1  0.49663045  0.36555447  0.87131303  1
  V  V77  1  0.63249110  0.25486752  0.38081957  1
  V  V78  1  0.00665471  0.61601200  0.12902876  1
  Zn  Zn79  1  0.63196950  0.50128653  0.12310648  1
  Zn  Zn80  1  0.28516067  0.25930691  0.53320288  1
  Zn  Zn81  1  0.62169961  0.48656979  0.61162318  1
  Zn  Zn82  1  0.24742207  0.62652629  0.86512725  1
  Zn  Zn83  1  0.63640829  0.75865369  0.35957149  1
  Zn  Zn84  1  0.75253718  0.37267831  0.12183428  1
  Zn  Zn85  1  0.00685872  0.88769667  0.38122014  1
  Zn  Zn86  1  0.49635872  0.00021696  0.00356161  1
  Zn  Zn87  1  0.37990472  0.61727766  0.25933980  1
  Zn  Zn88  1  0.24621110  0.74602296  0.00041632  1
  Zn  Zn89  1  0.12848084  0.62370135  -0.00450916  1
  Zn  Zn90  1  0.89089515  0.89456184  0.51291014  1
  Zn  Zn91  1  0.74905185  0.75648286  0.49381464  1
  Zn  Zn92  1  0.12978510  0.74968287  0.87579389  1
  Zn  Zn93  1  0.76615638  0.63546574  0.37163698  1
  Zn  Zn94  1  0.18469019  0.18610150  0.18988119  1
  Zn  Zn95  1  0.19703036  0.16539473  0.67115235  1
  Zn  Zn96  1  0.19238760  0.69012992  0.18042511  1
  Zn  Zn97  1  0.18983024  0.68536565  0.69036834  1
  Zn  Zn98  1  0.68980561  0.18895656  0.19218881  1
  Zn  Zn99  1  0.67230027  0.18476250  0.69358002  1
  Zn  Zn100  1  0.69321996  0.68430057  0.18420256  1
  Zn  Zn101  1  0.68518836  0.68776876  0.68623492  1
  Zn  Zn102  1  0.31682789  0.32493266  0.31626626  1
  Zn  Zn103  1  0.30711241  0.29660040  0.81954253  1
  Zn  Zn104  1  0.31663336  0.81011399  0.30682866  1
  Zn  Zn105  1  0.30853975  0.81163862  0.80772338  1
  Zn  Zn106  1  0.82210947  0.31689854  0.31194259  1
  Zn  Zn107  1  0.80645648  0.31689110  0.82513709  1
  Zn  Zn108  1  0.81789794  0.81951145  0.31198301  1
  Zn  Zn109  1  0.81337194  0.81191080  0.80801822  1
  Zn  Zn110  1  0.19035568  0.43292150  0.43917263  1
  Zn  Zn111  1  0.18223114  0.43580650  0.93861162  1
  Zn  Zn112  1  0.20039085  0.93655543  0.43338567  1
  Zn  Zn113  1  0.18247955  0.93672076  0.93453238  1
  Zn  Zn114  1  0.69915884  0.44225816  0.43730514  1
  Zn  Zn115  1  0.68817668  0.43737112  0.93083447  1
  Zn  Zn116  1  0.68802306  0.94175142  0.43729435  1
  Zn  Zn117  1  0.68199336  0.93818120  0.94439861  1
  Zn  Zn118  1  0.31130576  0.05790227  0.05975328  1
  Zn  Zn119  1  0.31098254  0.05989858  0.55676048  1
  Zn  Zn120  1  0.31060991  0.56280760  0.05191672  1
  Zn  Zn121  1  0.31442856  0.56084556  0.55771320  1
  Zn  Zn122  1  0.81178638  0.05837009  0.06164353  1
  Zn  Zn123  1  0.81180580  0.07850670  0.56188255  1
  Zn  Zn124  1  0.81803300  0.56345711  0.06391862  1
  Zn  Zn125  1  0.80896455  0.55766844  0.55979828  1
  Zn  Zn126  1  0.45866200  0.47353287  0.20682318  1
  Zn  Zn127  1  0.39947074  0.38391408  0.70206333  1
  Zn  Zn128  1  0.43468878  0.93771956  0.19299634  1
  Zn  Zn129  1  0.43661523  0.93665261  0.68773850  1
  Zn  Zn130  1  0.93922871  0.43085447  0.18887253  1
  Zn  Zn131  1  0.93810296  0.42595138  0.68174216  1
  Zn  Zn132  1  0.93756095  0.93563898  0.19263418  1
  Zn  Zn133  1  0.93962086  0.94783245  0.69305637  1
  Zn  Zn134  1  0.06721435  0.06795847  0.31484098  1
  Zn  Zn135  1  0.05639637  0.06928400  0.80822560  1
  Zn  Zn136  1  0.06676635  0.56816305  0.31120635  1
  Zn  Zn137  1  0.06630816  0.55949908  0.80921608  1
  Zn  Zn138  1  0.56703138  0.06512820  0.31041279  1
  Zn  Zn139  1  0.55928615  0.06120441  0.81068321  1
  Zn  Zn140  1  0.57457903  0.59220528  0.29790183  1
  Zn  Zn141  1  0.55624514  0.55810118  0.81199186  1
  Zn  Zn142  1  0.44298285  0.19348467  0.43750914  1
  Zn  Zn143  1  0.43436348  0.18210431  0.94202614  1
  Zn  Zn144  1  0.43565615  0.68344277  0.44231173  1
  Zn  Zn145  1  0.43407564  0.68745164  0.94039516  1
  Zn  Zn146  1  0.94411363  0.18599849  0.44073363  1
  Zn  Zn147  1  0.93281979  0.18743727  0.93998290  1
  Zn  Zn148  1  0.94557460  0.69266177  0.43899413  1
  Zn  Zn149  1  0.93738470  0.68591352  0.93756340  1
  Zn  Zn150  1  0.05899606  0.31617721  0.06239574  1
  Zn  Zn151  1  0.05592679  0.32120904  0.56078856  1
  Zn  Zn152  1  0.06679128  0.81297623  0.06166928  1
  Zn  Zn153  1  0.05991901  0.81147630  0.56237827  1
  Zn  Zn154  1  0.56396857  0.31472048  0.06325581  1
  Zn  Zn155  1  0.54669735  0.31303114  0.55830058  1
  Zn  Zn156  1  0.55493762  0.79790297  0.18982269  1
  Zn  Zn157  1  0.56021204  0.81135607  0.55584241  1
  O  O158  1  0.12434986  0.11171704  0.11632792  1
  O  O159  1  0.11669003  0.10197079  0.62321211  1
  O  O160  1  0.10884999  0.63181337  0.11730305  1
  O  O161  1  0.12160570  0.61994901  0.61583107  1
  O  O162  1  0.61999167  0.12132972  0.12149783  1
  O  O163  1  0.61469141  0.11847808  0.61800325  1
  O  O164  1  0.63528467  0.62024597  0.10424719  1
  O  O165  1  0.61463550  0.62739642  0.61703470  1
  O  O166  1  0.39803070  0.38689935  0.36972100  1
  O  O167  1  0.37762804  0.36941846  0.88657182  1
  O  O168  1  0.38323356  0.87953526  0.37788976  1
  O  O169  1  0.37625521  0.88620585  0.87732604  1
  O  O170  1  0.87347095  0.39182843  0.38358166  1
  O  O171  1  0.88530257  0.36388952  0.89562409  1
  O  O172  1  0.87441445  0.89730981  0.37796821  1
  O  O173  1  0.88326363  0.88478401  0.86860733  1
  O  O174  1  0.25563390  0.01646742  0.36936651  1
  O  O175  1  0.25922181  0.00675544  0.87857459  1
  O  O176  1  0.24044543  0.51625424  0.37705913  1
  O  O177  1  0.26490496  0.48828457  0.87987780  1
  O  O178  1  0.75498526  0.00873828  0.36829635  1
  O  O179  1  0.75234634  0.00205349  0.87189976  1
  O  O180  1  0.76054967  0.50892346  0.36211972  1
  O  O181  1  0.74667541  0.51289824  0.86274600  1
  O  O182  1  0.25237223  0.48454654  0.11644514  1
  O  O183  1  0.24133163  0.50613392  0.62492842  1
  O  O184  1  0.23987756  1.00607115  0.13627628  1
  O  O185  1  0.23555388  0.99103880  0.61451824  1
  O  O186  1  0.75631147  0.49736206  0.13828003  1
  O  O187  1  0.74039254  0.50565099  0.63928336  1
  O  O188  1  0.74468859  0.99286264  0.13079850  1
  O  O189  1  0.74620911  0.99873863  0.63382781  1
  O  O190  1  0.01819747  0.36551616  0.24217612  1
  O  O191  1  -0.01158360  0.37787651  0.77117230  1
  O  O192  1  0.01327810  0.87051472  0.25788509  1
  O  O193  1  0.00376242  0.86907468  0.75616419  1
  O  O194  1  0.51492816  0.37662057  0.25671414  1
  O  O195  1  0.50550648  0.37303245  0.76588159  1
  O  O196  1  0.49888671  0.87358955  0.26359993  1
  O  O197  1  0.50380411  0.86826718  0.75854969  1
  O  O198  1  0.50911811  0.14051480  0.23945300  1
  O  O199  1  0.50252860  0.12510661  0.73715060  1
  O  O200  1  0.48698523  0.58601355  0.23259818  1
  O  O201  1  0.50682899  0.63724986  0.73679572  1
  O  O202  1  1.00644441  0.13696371  0.24513638  1
  O  O203  1  0.99286631  0.10176597  0.72191930  1
  O  O204  1  1.00933470  0.63696596  0.23621145  1
  O  O205  1  0.99211952  0.63160953  0.74265751  1
  O  O206  1  0.36697552  0.25366380  0.00995967  1
  O  O207  1  0.38246419  0.27418462  0.48005058  1
  O  O208  1  0.37309764  0.76531781  0.00209491  1
  O  O209  1  0.38192592  0.76162032  0.51449268  1
  O  O210  1  0.88298110  0.26045861  0.01694012  1
  O  O211  1  0.86526125  0.25996125  0.47925916  1
  O  O212  1  0.86275240  0.74725778  0.00542644  1
  O  O213  1  0.87049532  0.74322697  0.51734762  1
  O  O214  1  0.12399977  0.26652126  0.47922475  1
  O  O215  1  0.13179385  0.23697410  1.01163511  1
  O  O216  1  0.12898162  0.74784949  0.48858782  1
  O  O217  1  0.12645254  0.74742350  0.99472227  1
  O  O218  1  0.62039889  0.24730228  0.48557679  1
  O  O219  1  0.62145126  0.23843094  0.99456178  1
  O  O220  1  0.62986551  0.74141656  0.49883133  1
  O  O221  1  0.64077471  0.73710912  0.98955272  1
  O  O222  1  0.49436250  0.24663959  0.13154794  1
  O  O223  1  0.49856806  0.23512944  0.62370399  1
  O  O224  1  0.47612577  0.76100293  0.11857620  1
  O  O225  1  0.49218041  0.75089534  0.63225037  1
  O  O226  1  0.99390140  0.24936429  0.13307758  1
  O  O227  1  1.02361727  0.24037869  0.63706166  1
  O  O228  1  0.99484156  0.74964055  0.13017153  1
  O  O229  1  0.99201832  0.74290964  0.63412652  1
  O  O230  1  0.01533560  0.24333921  0.36260271  1
  O  O231  1  0.00023889  0.25240596  0.87626235  1
  O  O232  1  0.01849866  0.74287254  0.36130469  1
  O  O233  1  -0.00644318  0.75908701  0.86440159  1
  O  O234  1  0.51359261  0.25425215  0.36100166  1
  O  O235  1  0.50567165  0.25333926  0.88374065  1
  O  O236  1  0.49757493  0.76132527  0.37662325  1
  O  O237  1  0.50118043  0.75529216  0.86602031  1
  O  O238  1  0.25917393  0.13798314  0.48483185  1
  O  O239  1  0.23814923  0.12615206  0.99755010  1
  O  O240  1  0.23556061  0.62808438  0.49361411  1
  O  O241  1  0.24597654  0.62395824  0.98464266  1
  O  O242  1  0.73592216  0.12654963  0.48647545  1
  O  O243  1  0.73597982  0.11448530  0.99222109  1
  O  O244  1  0.73848873  0.63218560  0.50389488  1
  O  O245  1  0.74858393  0.62832221  0.98845069  1
  O  O246  1  0.25190740  0.36256621  0.00893272  1
  O  O247  1  0.27226831  0.37446459  0.49027337  1
  O  O248  1  0.26024073  0.87811215  -0.00418233  1
  O  O249  1  0.26449679  0.87450164  0.50727843  1
  O  O250  1  0.76489615  0.38230797  -0.00189224  1
  O  O251  1  0.77076525  0.39109211  0.50755682  1
  O  O252  1  0.74135932  0.86487087  0.01319800  1
  O  O253  1  0.75374644  0.87914521  0.51554716  1
  O  O254  1  0.12195559  0.48466473  0.25329198  1
  O  O255  1  0.12521692  0.49811779  0.73663708  1
  O  O256  1  0.13001368  0.99572235  0.24553300  1
  O  O257  1  0.11758919  0.98719513  0.74211462  1
  O  O258  1  0.64045757  0.49527098  0.24781322  1
  O  O259  1  0.62707033  0.48894561  0.75008121  1
  O  O260  1  0.63746617  1.00530150  0.24097456  1
  O  O261  1  0.63203038  0.99417666  0.74237839  1
  O  O262  1  0.36326000  -0.00537555  0.26402193  1
  O  O263  1  0.37212326  -0.00327868  0.76257468  1
  O  O264  1  0.35876447  0.50526774  0.24073584  1
  O  O265  1  0.37844991  0.47970017  0.76594578  1
  O  O266  1  0.86321488  -0.00062157  0.25862121  1
  O  O267  1  0.86059398  -0.00155414  0.76182836  1
  O  O268  1  0.87043123  0.49303995  0.25954138  1
  O  O269  1  0.86526465  0.50999493  0.73977729  1
  O  O270  1  0.13941672  0.36213067  0.35668000  1
  O  O271  1  0.10427060  0.37340062  0.88501095  1
  O  O272  1  0.12785169  0.86493929  0.36962910  1
  O  O273  1  0.11337962  0.87587393  0.86297547  1
  O  O274  1  0.62405437  0.37314795  0.36811722  1
  O  O275  1  0.61518271  0.36457223  0.87462482  1
  O  O276  1  0.60852482  0.87552046  0.38364300  1
  O  O277  1  0.61524570  0.87160687  0.87197691  1
  O  O278  1  0.38528461  0.13392970  0.11912842  1
  O  O279  1  0.39162277  0.11199043  0.61623800  1
  O  O280  1  0.38038558  0.63087136  0.11312389  1
  O  O281  1  0.38691563  0.63980573  0.61298250  1
  O  O282  1  0.87234899  0.13754397  0.11884789  1
  O  O283  1  0.88203457  0.15374097  0.61752723  1
  O  O284  1  0.88789989  0.64109950  0.12186664  1
  O  O285  1  0.88031551  0.63016078  0.63177608  1
  O  O286  1  0.25794982  0.24617368  0.11930935  1
  O  O287  1  0.24561874  0.25538504  0.63435432  1
  O  O288  1  0.26773889  0.74777367  0.11712875  1
  O  O289  1  0.26514771  0.75777101  0.62529844  1
  O  O290  1  0.76815774  0.25405235  0.13826874  1
  O  O291  1  0.74520302  0.24409566  0.62945143  1
  O  O292  1  0.75854822  0.75488118  0.11885468  1
  O  O293  1  0.75737419  0.76321801  0.63256954  1
  O  O294  1  0.24582633  0.24022173  0.36142658  1
  O  O295  1  0.25477821  0.23010513  0.89330784  1
  O  O296  1  0.23487617  0.74605037  0.36809451  1
  O  O297  1  0.24845247  0.74941512  0.87730852  1
  O  O298  1  0.74081096  0.24419598  0.36094561  1
  O  O299  1  0.73643255  0.23619549  0.87833128  1
  O  O300  1  0.75331793  0.75182271  0.37565217  1
  O  O301  1  0.74658534  0.74558532  0.87832412  1
  O  O302  1  0.00850074  0.11065578  -0.00874949  1
  O  O303  1  -0.00149551  0.12835746  0.52157775  1
  O  O304  1  -0.00650089  0.61231429  0.00775761  1
  O  O305  1  0.01764560  0.63613312  0.51177666  1
  O  O306  1  0.50803923  0.12306194  0.01440108  1
  O  O307  1  0.51417615  0.12741922  0.50236627  1
  O  O308  1  0.51271552  0.61392247  -0.01327319  1
  O  O309  1  0.51323269  0.63248504  0.51128350  1
  O  O310  1  0.50548861  0.38309560  0.47814691  1
  O  O311  1  0.49167438  0.37571145  0.99199892  1
  O  O312  1  0.48828081  0.87724381  0.48772564  1
  O  O313  1  0.48624717  0.87634592  0.98345158  1
  O  O314  1  0.97345482  0.37689834  0.50901340  1
  O  O315  1  0.99331132  0.38522972  0.99504245  1
  O  O316  1  0.98971469  0.85107818  0.48594821  1
  O  O317  1  1.00661088  0.88488081  0.98627676  1
  O  O318  1  0.51689342  0.49850896  0.36958429  1
  O  O319  1  0.49109238  0.48567655  0.88303338  1
  O  O320  1  0.48772667  0.99888382  0.36542502  1
  O  O321  1  0.48712477  0.99440710  0.87495023  1
  O  O322  1  0.99355224  0.50463565  0.37183514  1
  O  O323  1  0.99356935  0.50101088  0.88457333  1
  O  O324  1  0.98565275  1.00855449  0.36943546  1
  O  O325  1  0.98979371  0.99476343  0.87960040  1
  O  O326  1  0.00533692  -0.00814058  0.11453446  1
  O  O327  1  0.01022799  -0.01685331  0.61073293  1
  O  O328  1  -0.00495990  0.51492564  0.12741529  1
  O  O329  1  0.00346152  0.51274055  0.63063665  1
  O  O330  1  0.50680747  0.00916384  0.13300762  1
  O  O331  1  0.51246616  0.00227518  0.62947710  1
  O  O332  1  0.50864614  0.48543060  0.10300170  1
  O  O333  1  0.50136073  0.51882020  0.62813145  1
  O  O334  1  0.24453356  0.37071346  0.23537954  1
  O  O335  1  0.18419937  0.33449349  0.76381595  1
  O  O336  1  0.23939660  0.88885770  0.26045557  1
  O  O337  1  0.23836232  0.87050207  0.73325282  1
  O  O338  1  0.74607661  0.38634896  0.25241257  1
  O  O339  1  0.73522091  0.38595014  0.76349001  1
  O  O340  1  0.75056111  0.88357725  0.23777425  1
  O  O341  1  0.74348470  0.88429435  0.74280591  1
  O  O342  1  0.24691023  0.11575479  0.26014088  1
  O  O343  1  0.24012483  0.12761168  0.77053118  1
  O  O344  1  0.23876958  0.62578828  0.26455790  1
  O  O345  1  0.25925821  0.63039249  0.75416843  1
  O  O346  1  0.74557097  0.11646132  0.26325736  1
  O  O347  1  0.73513816  0.11276144  0.76548564  1
  O  O348  1  0.75664424  0.61247261  0.24854536  1
  O  O349  1  0.75463752  0.61995250  0.75438955  1
  O  O350  1  0.37173140  0.11666290  0.37512121  1
  O  O351  1  0.36329693  0.11000325  0.88366662  1
  O  O352  1  0.35511823  0.63622524  0.37761120  1
  O  O353  1  0.37982712  0.60330625  0.87648951  1
  O  O354  1  0.86506670  0.11735290  0.37921299  1
  O  O355  1  0.85983637  0.11350758  0.88473177  1
  O  O356  1  0.88116737  0.61476144  0.38083805  1
  O  O357  1  0.86464144  0.63235737  0.86127921  1
  O  O358  1  0.13853220  0.36986141  0.13245576  1
  O  O359  1  0.12393240  0.39586213  0.61242481  1
  O  O360  1  0.12288113  0.88734584  0.13481952  1
  O  O361  1  0.13098968  0.88150061  0.62442688  1
  O  O362  1  0.63222857  0.37600789  0.13424468  1
  O  O363  1  0.61045235  0.37172922  0.64000450  1
  O  O364  1  0.62965020  0.88323217  0.13138376  1
  O  O365  1  0.63145557  0.88225827  0.62773862  1
  O  O366  1  0.11580628  0.25487593  0.25187543  1
  O  O367  1  0.13764630  0.27984833  0.74840588  1
  O  O368  1  0.12065098  0.76074923  0.24893993  1
  O  O369  1  0.11085621  0.75977279  0.74324212  1
  O  O370  1  0.61999721  0.26336105  0.25445996  1
  O  O371  1  0.62523843  0.25870527  0.76764789  1
  O  O372  1  0.61338114  0.72368750  0.25165673  1
  O  O373  1  0.61713363  0.75692920  0.75512077  1
  O  O374  1  0.38880173  0.26230152  0.24004916  1
  O  O375  1  0.34427085  0.28526818  0.71884326  1
  O  O376  1  0.37045367  0.73655438  0.23730215  1
  O  O377  1  0.38533097  0.76014088  0.73360185  1
  O  O378  1  0.89353595  0.25789205  0.24088022  1
  O  O379  1  0.85585630  0.24895431  0.74861202  1
  O  O380  1  0.89173890  0.75890745  0.24228223  1
  O  O381  1  0.88176243  0.74160964  0.74059570  1
  O  O382  1  0.37511694  0.49748066  0.48632753  1
  O  O383  1  0.38255967  0.48541309  0.99307053  1
  O  O384  1  0.36951002  0.99224158  0.47890027  1
  O  O385  1  0.37744614  0.98901848  0.99352284  1
  O  O386  1  0.88089524  0.50271509  0.49052976  1
  O  O387  1  0.88735821  0.48652146  1.00840037  1
  O  O388  1  0.86881789  1.00730426  0.48786972  1
  O  O389  1  0.88245397  0.99896663  0.99146463  1
  O  O390  1  0.11776580  0.00285094  0.00865410  1
  O  O391  1  0.12186025  -0.00797313  0.49769841  1
  O  O392  1  0.10532729  0.50005341  0.00077631  1
  O  O393  1  0.12510715  0.51245771  0.50271936  1
  O  O394  1  0.61826598  0.00722398  0.01480284  1
  O  O395  1  0.63120639  0.01081175  0.51112358  1
  O  O396  1  0.62000229  0.50655871  -0.00708066  1
  O  O397  1  0.63201470  0.51788635  0.50001426  1
  O  O398  1  0.36211023  0.36288534  0.11458003  1
  O  O399  1  0.40400400  0.38693596  0.59188240  1
  O  O400  1  0.37287335  0.88241853  0.11183635  1
  O  O401  1  0.36962565  0.87386298  0.61685224  1
  O  O402  1  0.87650603  0.36685147  0.11472818  1
  O  O403  1  0.87640760  0.34789779  0.62076397  1
  O  O404  1  0.86590832  0.86460388  0.12707653  1
  O  O405  1  0.86807389  0.87000765  0.63002034  1
  O  O406  1  0.13891633  0.13805542  0.37586271  1
  O  O407  1  0.13534934  0.10955725  0.88700821  1
  O  O408  1  0.13021889  0.63451216  0.38584463  1
  O  O409  1  0.12369293  0.63040525  0.87478698  1
  O  O410  1  0.63047749  0.13411138  0.38011628  1
  O  O411  1  0.62530098  0.12727915  0.88561829  1
  O  O412  1  0.63000639  0.63259631  0.38796850  1
  O  O413  1  0.63408026  0.63026867  0.87590089  1
