# generated using pymatgen
data_V79Zn79O256
_symmetry_space_group_name_H-M   'P 1'
_cell_length_a   16.90952671
_cell_length_b   16.91141159
_cell_length_c   16.89498404
_cell_angle_alpha   90.21866494
_cell_angle_beta   90.00215690
_cell_angle_gamma   90.05400799
_symmetry_Int_Tables_number   1
_chemical_formula_structural   V79Zn79O256
_chemical_formula_sum   'V79 Zn79 O256'
_cell_volume   4831.31930895
_cell_formula_units_Z   1
loop_
 _symmetry_equiv_pos_site_id
 _symmetry_equiv_pos_as_xyz
  1  'x, y, z'
loop_
 _atom_site_type_symbol
 _atom_site_label
 _atom_site_symmetry_multiplicity
 _atom_site_fract_x
 _atom_site_fract_y
 _atom_site_fract_z
 _atom_site_occupancy
  V  V0  1  0.86803980  0.49927017  0.87355643  1
  V  V1  1  0.00937747  0.36813280  0.87290950  1
  V  V2  1  0.11875213  0.12372861  0.50357448  1
  V  V3  1  0.62759129  0.62340359  0.50334744  1
  V  V4  1  0.49809752  0.49676830  0.49467425  1
  V  V5  1  0.74261076  0.86414365  0.12014302  1
  V  V6  1  0.37423977  0.49992002  0.87185990  1
  V  V7  1  0.48680215  0.87246027  0.88263057  1
  V  V8  1  -0.02450403  0.00358028  0.50542430  1
  V  V9  1  0.00185958  0.87862948  0.87328303  1
  V  V10  1  0.75744949  -0.00793913  0.25314293  1
  V  V11  1  0.74707582  0.23447842  0.01008977  1
  V  V12  1  0.86613774  0.62372391  0.75080760  1
  V  V13  1  0.12170484  0.24595309  0.36085997  1
  V  V14  1  0.75865074  0.87761385  0.62425005  1
  V  V15  1  0.50077507  0.36890115  0.36885365  1
  V  V16  1  0.87742789  0.13636644  0.24737341  1
  V  V17  1  0.24259655  0.62517918  0.87735847  1
  V  V18  1  0.88896193  0.74261114  0.12945768  1
  V  V19  1  0.86990283  0.00979271  0.87901682  1
  V  V20  1  0.12725607  0.75629091  0.37643803  1
  V  V21  1  0.39153489  0.25151997  0.12794661  1
  V  V22  1  0.86976821  0.13015803  0.74423579  1
  V  V23  1  0.87700146  0.49801885  0.37370447  1
  V  V24  1  0.24336297  0.25558394  0.00117261  1
  V  V25  1  0.62204214  0.01000640  0.12501261  1
  V  V26  1  0.86153947  0.37124538  0.00981005  1
  V  V27  1  0.12015472  0.62476749  0.00999969  1
  V  V28  1  0.50026874  0.50237721  -0.00315164  1
  V  V29  1  0.25627166  0.75366496  0.51721654  1
  V  V30  1  0.74705439  0.47916835  0.74331748  1
  V  V31  1  0.12708037  0.62000372  0.50618372  1
  V  V32  1  0.86727373  0.36558486  0.50242909  1
  V  V33  1  0.24466156  0.24959734  0.49738725  1
  V  V34  1  0.35741821  0.00772002  0.37848427  1
  V  V35  1  0.00100524  0.14299750  0.12991716  1
  V  V36  1  0.13944472  0.48920490  0.13633548  1
  V  V37  1  0.62601728  0.75818869  0.37452704  1
  V  V38  1  0.50208468  0.62515482  0.12478285  1
  V  V39  1  0.12646402  0.12475183  -0.00058398  1
  V  V40  1  0.14129667  0.89347498  0.25007047  1
  V  V41  1  0.23169137  0.38112608  0.62852661  1
  V  V42  1  0.00533626  0.37201249  0.36093120  1
  V  V43  1  0.37409563  0.62835538  0.74497601  1
  V  V44  1  0.00440168  -0.00086349  0.01274269  1
  V  V45  1  0.37385172  0.37530530  0.50215433  1
  V  V46  1  0.31868439  0.44551304  0.31779572  1
  V  V47  1  0.37950273  0.25164124  0.64126422  1
  V  V48  1  0.25496338  0.62755651  0.37693765  1
  V  V49  1  0.62683979  0.24354877  0.86439516  1
  V  V50  1  0.63905209  0.62502304  -0.00571505  1
  V  V51  1  0.62690873  0.47670340  0.62368761  1
  V  V52  1  0.63114180  0.87041218  0.75216896  1
  V  V53  1  0.11922082  0.88418713  0.73651162  1
  V  V54  1  0.75181669  0.49759239  0.24796609  1
  V  V55  1  0.29583349  0.93705005  0.67869474  1
  V  V56  1  0.50442574  0.37137185  0.85969193  1
  V  V57  1  0.76145293  0.75173781  0.50000033  1
  V  V58  1  0.37437644  0.62347343  0.25546793  1
  V  V59  1  0.50469424  0.88792325  0.38043687  1
  V  V60  1  -0.00181775  0.49680378  0.00930529  1
  V  V61  1  0.00440852  0.61615376  0.62443859  1
  V  V62  1  0.63799849  0.24853970  0.37916653  1
  V  V63  1  0.87500483  0.86685793  0.00075119  1
  V  V64  1  0.64051968  0.74430347  0.87920371  1
  V  V65  1  0.38188993  0.11474654  0.24191838  1
  V  V66  1  0.49751336  0.63121263  0.62423615  1
  V  V67  1  0.37263079  0.37451848  0.00141272  1
  V  V68  1  0.62359891  0.36850314  0.24360029  1
  V  V69  1  0.25048828  0.11897617  0.86541972  1
  V  V70  1  0.23235087  0.49839312  0.74761092  1
  V  V71  1  0.63214912  0.49622980  0.12160323  1
  V  V72  1  0.37531915  0.87699239  0.50186282  1
  V  V73  1  -0.01476641  0.88242930  0.38052355  1
  V  V74  1  0.37068527  0.75917420  0.12526226  1
  V  V75  1  0.00892645  0.24621230  0.74809269  1
  V  V76  1  0.50598993  0.75441316  0.25403828  1
  V  V77  1  0.75293567  0.62254996  0.37113327  1
  V  V78  1  0.00262428  0.74788489  0.75093122  1
  Zn  Zn79  1  0.61330063  0.10697410  0.50379317  1
  Zn  Zn80  1  0.49547393  -0.00829621  0.00131207  1
  Zn  Zn81  1  0.37431193  0.11569002  0.74527355  1
  Zn  Zn82  1  0.61348784  0.01524729  0.63268105  1
  Zn  Zn83  1  0.87078981  0.25218119  0.62168872  1
  Zn  Zn84  1  0.87962011  0.74755976  0.61829379  1
  Zn  Zn85  1  0.74590541  0.00797130  0.75717097  1
  Zn  Zn86  1  0.00400623  0.74597803  0.24649213  1
  Zn  Zn87  1  0.13543314  0.77466300  0.89229674  1
  Zn  Zn88  1  0.49915622  0.74712326  0.75087749  1
  Zn  Zn89  1  0.59042333  0.13045220  0.00465710  1
  Zn  Zn90  1  0.00491562  0.49205792  0.50475473  1
  Zn  Zn91  1  0.76796176  0.12775039  0.38032790  1
  Zn  Zn92  1  0.11691147  0.01273621  0.62786293  1
  Zn  Zn93  1  0.26329552  0.76485425  0.00415256  1
  Zn  Zn94  1  0.19881292  0.17394902  0.17803334  1
  Zn  Zn95  1  0.18789917  0.19372607  0.68354605  1
  Zn  Zn96  1  0.18757020  0.68714205  0.19119732  1
  Zn  Zn97  1  0.18430755  0.68951007  0.69311571  1
  Zn  Zn98  1  0.69194025  0.18425686  0.18941739  1
  Zn  Zn99  1  0.69345760  0.20055467  0.68633674  1
  Zn  Zn100  1  0.69049308  0.68511404  0.18533791  1
  Zn  Zn101  1  0.68685715  0.68802002  0.68495062  1
  Zn  Zn102  1  0.28624966  0.26646926  0.28837687  1
  Zn  Zn103  1  0.29774463  0.31296162  0.81660093  1
  Zn  Zn104  1  0.31505687  0.81380801  0.31597857  1
  Zn  Zn105  1  0.30793813  0.80867233  0.81036364  1
  Zn  Zn106  1  0.81410577  0.31648906  0.30691385  1
  Zn  Zn107  1  0.81251239  0.30768005  0.82240619  1
  Zn  Zn108  1  0.80974822  0.81120576  0.30764888  1
  Zn  Zn109  1  0.81727057  0.81097686  0.81308133  1
  Zn  Zn110  1  0.18164087  0.43340633  0.43788422  1
  Zn  Zn111  1  0.18608462  0.44126671  0.94176238  1
  Zn  Zn112  1  0.18899385  0.93735386  0.44088196  1
  Zn  Zn113  1  0.20403754  0.94711789  0.96008569  1
  Zn  Zn114  1  0.68504346  0.43321888  0.43626280  1
  Zn  Zn115  1  0.68700237  0.43593094  0.93130067  1
  Zn  Zn116  1  0.69533822  0.96197851  0.45759117  1
  Zn  Zn117  1  0.68442106  0.93691773  0.94265065  1
  Zn  Zn118  1  0.35769714  0.10013137  0.02745207  1
  Zn  Zn119  1  0.31549271  0.07319384  0.55397928  1
  Zn  Zn120  1  0.31060269  0.56739875  0.06480879  1
  Zn  Zn121  1  0.31098554  0.55993703  0.56320310  1
  Zn  Zn122  1  0.81574995  0.05696537  0.06931182  1
  Zn  Zn123  1  0.77887999  0.08515258  0.57440563  1
  Zn  Zn124  1  0.81673904  0.56271238  0.06291113  1
  Zn  Zn125  1  0.81567612  0.55661011  0.56362352  1
  Zn  Zn126  1  0.44366078  0.43621597  0.18091661  1
  Zn  Zn127  1  0.43297225  0.44171749  0.68017611  1
  Zn  Zn128  1  0.44102424  0.93739449  0.19449222  1
  Zn  Zn129  1  0.45655169  0.94221273  0.69910762  1
  Zn  Zn130  1  0.93737511  0.43775872  0.18705849  1
  Zn  Zn131  1  0.93984561  0.43324096  0.68910624  1
  Zn  Zn132  1  0.93930249  0.92872080  0.19422745  1
  Zn  Zn133  1  0.93494800  0.94357290  0.68490171  1
  Zn  Zn134  1  0.05827993  0.06216093  0.31649852  1
  Zn  Zn135  1  0.06097052  0.06634584  0.81889617  1
  Zn  Zn136  1  0.05927970  0.56787937  0.30899459  1
  Zn  Zn137  1  0.05369112  0.56025310  0.81971789  1
  Zn  Zn138  1  0.56590098  0.06889728  0.30027227  1
  Zn  Zn139  1  0.56222639  0.05705172  0.81735175  1
  Zn  Zn140  1  0.56585603  0.56200497  0.31130703  1
  Zn  Zn141  1  0.56700501  0.56006040  0.80788307  1
  Zn  Zn142  1  0.44551458  0.18201812  0.43943308  1
  Zn  Zn143  1  0.43552368  0.19041318  0.92167062  1
  Zn  Zn144  1  0.43842581  0.69128787  0.44151254  1
  Zn  Zn145  1  0.44303704  0.69008604  0.93680164  1
  Zn  Zn146  1  0.94168754  0.18814892  0.43276458  1
  Zn  Zn147  1  0.93794580  0.19134519  0.94297460  1
  Zn  Zn148  1  0.95037540  0.68007048  0.41792932  1
  Zn  Zn149  1  0.94109224  0.68521885  0.93645362  1
  Zn  Zn150  1  0.06133876  0.31877596  0.06486151  1
  Zn  Zn151  1  0.04998882  0.30847777  0.55873482  1
  Zn  Zn152  1  0.08070582  0.82298700  0.06040542  1
  Zn  Zn153  1  0.05620191  0.81044067  0.55503478  1
  Zn  Zn154  1  0.56463505  0.31634437  0.05148761  1
  Zn  Zn155  1  0.55562407  0.27845621  0.55521987  1
  Zn  Zn156  1  0.56034152  0.80771582  0.05979311  1
  Zn  Zn157  1  0.56894593  0.81937897  0.55897046  1
  O  O158  1  0.11238047  0.12757870  0.11751500  1
  O  O159  1  0.12367952  0.13141485  0.60852449  1
  O  O160  1  0.12784492  0.61967719  0.11373543  1
  O  O161  1  0.11770810  0.63179002  0.61699997  1
  O  O162  1  0.62390693  0.11396177  0.12233116  1
  O  O163  1  0.66905711  0.11681258  0.61687810  1
  O  O164  1  0.62186020  0.61788322  0.11582529  1
  O  O165  1  0.61931968  0.61759040  0.61485679  1
  O  O166  1  0.37972550  0.38394449  0.37893346  1
  O  O167  1  0.38042042  0.38333680  0.87941964  1
  O  O168  1  0.38276217  0.88985669  0.38105217  1
  O  O169  1  0.38714638  0.86500666  0.86886480  1
  O  O170  1  0.88515381  0.37783245  0.37857473  1
  O  O171  1  0.87873401  0.38485724  0.88427726  1
  O  O172  1  0.88701740  0.86824840  0.37390330  1
  O  O173  1  0.88526302  0.88101107  0.88001925  1
  O  O174  1  0.25948284  0.00615768  0.37565284  1
  O  O175  1  0.24188465  0.01942287  0.88051275  1
  O  O176  1  0.25518686  0.50503211  0.37659206  1
  O  O177  1  0.25641441  0.50407699  0.86880516  1
  O  O178  1  0.74405803  -0.01959737  0.35173407  1
  O  O179  1  0.76735988  -0.00985763  0.87683451  1
  O  O180  1  0.75312129  0.50471329  0.36781711  1
  O  O181  1  0.75629854  0.49475216  0.85775122  1
  O  O182  1  0.23988066  0.50121919  0.12402238  1
  O  O183  1  0.24967393  0.48901860  0.63190205  1
  O  O184  1  0.30162758  0.94648286  0.03544852  1
  O  O185  1  0.24273024  1.00149386  0.62128991  1
  O  O186  1  0.74112161  0.50850047  0.13385533  1
  O  O187  1  0.74301434  0.49791782  0.63449534  1
  O  O188  1  0.74084473  0.98883757  0.12794453  1
  O  O189  1  0.75606674  0.98009498  0.63482933  1
  O  O190  1  -0.00480222  0.37428936  0.26144612  1
  O  O191  1  -0.00835876  0.36439169  0.76535311  1
  O  O192  1  0.00914286  0.87276835  0.27091681  1
  O  O193  1  0.00194763  0.86843010  0.75149317  1
  O  O194  1  0.51206408  0.38712545  0.25803434  1
  O  O195  1  0.49291980  0.38522403  0.76190649  1
  O  O196  1  0.49688532  0.86054693  0.26476072  1
  O  O197  1  0.51331701  0.86644698  0.75892425  1
  O  O198  1  0.48089742  0.13099527  0.25387040  1
  O  O199  1  0.49236370  0.09605593  0.73114395  1
  O  O200  1  0.49305414  0.63058391  0.24936260  1
  O  O201  1  0.49210416  0.62038447  0.74112032  1
  O  O202  1  0.99247246  0.12078593  0.23753284  1
  O  O203  1  0.98994014  0.13856498  0.76111434  1
  O  O204  1  0.98954367  0.65289300  0.30902673  1
  O  O205  1  0.99661734  0.63029297  0.74483334  1
  O  O206  1  0.36903496  0.25792796  0.00165637  1
  O  O207  1  0.36425574  0.26275262  0.50097696  1
  O  O208  1  0.37743621  0.74198192  0.01894224  1
  O  O209  1  0.36838121  0.76353084  0.49672838  1
  O  O210  1  0.85884645  0.26248766  -0.00905782  1
  O  O211  1  0.88104610  0.25989695  0.49831501  1
  O  O212  1  0.88518081  0.76067632  0.00519625  1
  O  O213  1  0.86295632  0.74027071  0.49313155  1
  O  O214  1  0.12507300  0.24197326  0.49516846  1
  O  O215  1  0.13839809  0.24606287  1.01064844  1
  O  O216  1  0.13746262  0.74420874  0.49582760  1
  O  O217  1  0.09912179  0.72352696  0.99664400  1
  O  O218  1  0.64024836  0.26730018  0.47793692  1
  O  O219  1  0.63261850  0.24380193  0.99471751  1
  O  O220  1  0.63437028  0.74032741  0.49343696  1
  O  O221  1  0.62355720  0.73973584  0.98783887  1
  O  O222  1  0.48975438  0.24853689  0.10787716  1
  O  O223  1  0.47762737  0.26835368  0.63764505  1
  O  O224  1  0.49624109  0.74406323  0.13560893  1
  O  O225  1  0.50887719  0.73388737  0.62417793  1
  O  O226  1  0.99865512  0.24163605  0.12393939  1
  O  O227  1  0.98828406  0.25811998  0.64417376  1
  O  O228  1  0.99225670  0.75720538  0.12757590  1
  O  O229  1  0.99861589  0.74116093  0.63369334  1
  O  O230  1  0.01099895  0.26051436  0.37125372  1
  O  O231  1  -0.00385295  0.26201372  0.87189379  1
  O  O232  1  0.01765207  0.77562294  0.40128717  1
  O  O233  1  0.00196801  0.76054264  0.86599113  1
  O  O234  1  0.50721781  0.26642026  0.37508120  1
  O  O235  1  0.50570903  0.26521839  0.87330312  1
  O  O236  1  0.50837735  0.75425155  0.37171098  1
  O  O237  1  0.50975841  0.75836051  0.87222081  1
  O  O238  1  0.23784439  0.14164051  0.49892165  1
  O  O239  1  0.24751030  0.13545861  0.99325956  1
  O  O240  1  0.24928592  0.63143098  0.49623423  1
  O  O241  1  0.23647384  0.62790802  0.99405090  1
  O  O242  1  0.72831668  0.08106887  0.47261303  1
  O  O243  1  0.75806816  0.13479293  1.00360573  1
  O  O244  1  0.74218685  0.62868175  0.49551079  1
  O  O245  1  0.73802903  0.61620245  0.99692569  1
  O  O246  1  0.25915174  0.36536792  -0.00889763  1
  O  O247  1  0.25406675  0.37486346  0.50956039  1
  O  O248  1  0.18324048  0.84170589  -0.00987368  1
  O  O249  1  0.26304818  0.86845027  0.49931622  1
  O  O250  1  0.75870880  0.37629851  -0.00048495  1
  O  O251  1  0.76849749  0.37728756  0.48756311  1
  O  O252  1  0.76282079  0.87865637  0.01063749  1
  O  O253  1  0.74557446  0.86628689  0.51602936  1
  O  O254  1  0.12019303  0.51228629  0.23435560  1
  O  O255  1  0.13356914  0.50520018  0.75469048  1
  O  O256  1  0.12865973  0.99358979  0.25962167  1
  O  O257  1  0.11157666  0.99002277  0.74452679  1
  O  O258  1  0.63133280  0.49501970  0.24027289  1
  O  O259  1  0.63943072  0.49864218  0.74110709  1
  O  O260  1  0.63997663  1.00652819  0.23427141  1
  O  O261  1  0.63117965  0.98493822  0.75210593  1
  O  O262  1  0.37449843  0.00851671  0.25863637  1
  O  O263  1  0.35340831  -0.00686023  0.74086438  1
  O  O264  1  0.37770256  0.50440243  0.25298095  1
  O  O265  1  0.36490812  0.50716522  0.75750681  1
  O  O266  1  0.86250052  0.00436019  0.24018798  1
  O  O267  1  0.88121776  0.01127423  0.76525781  1
  O  O268  1  0.86453712  0.49291657  0.26093609  1
  O  O269  1  0.86469065  0.50251239  0.75291772  1
  O  O270  1  0.11209617  0.36725456  0.37548929  1
  O  O271  1  0.10825953  0.37993571  0.88213878  1
  O  O272  1  0.12720725  0.87026563  0.37070302  1
  O  O273  1  0.10864993  0.88533726  0.85691749  1
  O  O274  1  0.62007623  0.36832260  0.36292470  1
  O  O275  1  0.60972264  0.36838491  0.87703155  1
  O  O276  1  0.62005212  0.86061699  0.38591090  1
  O  O277  1  0.62532146  0.86080707  0.87114931  1
  O  O278  1  0.37565890  0.13503805  0.13550443  1
  O  O279  1  0.36181807  0.14692551  0.62781107  1
  O  O280  1  0.38226846  0.62754386  0.13816019  1
  O  O281  1  0.38552322  0.61380844  0.63338155  1
  O  O282  1  0.89164656  0.12133105  0.13099904  1
  O  O283  1  0.86893804  0.12484721  0.64101054  1
  O  O284  1  0.87514251  0.64353507  0.11462927  1
  O  O285  1  0.88514232  0.62491300  0.63268129  1
  O  O286  1  0.26726233  0.24568394  0.10752534  1
  O  O287  1  0.25266680  0.26673591  0.61708260  1
  O  O288  1  0.26727710  0.74462699  0.12934352  1
  O  O289  1  0.25018374  0.74685256  0.61711986  1
  O  O290  1  0.74261105  0.25059593  0.10918178  1
  O  O291  1  0.76142538  0.26844736  0.63388849  1
  O  O292  1  0.75687275  0.76035209  0.12705801  1
  O  O293  1  0.75392420  0.75361294  0.61557112  1
  O  O294  1  0.23109314  0.26610081  0.38946361  1
  O  O295  1  0.25004682  0.24152698  0.89176549  1
  O  O296  1  0.24722424  0.74342051  0.38624477  1
  O  O297  1  0.24770709  0.73632769  0.87694175  1
  O  O298  1  0.74155783  0.24439592  0.36224674  1
  O  O299  1  0.73111256  0.25714397  0.88658800  1
  O  O300  1  0.74412066  0.74333100  0.37794739  1
  O  O301  1  0.73992825  0.75017160  0.87528081  1
  O  O302  1  0.00468322  0.12171790  0.01176594  1
  O  O303  1  0.00880538  0.11410745  0.49360865  1
  O  O304  1  0.01009922  0.60552879  -0.01272986  1
  O  O305  1  0.01031406  0.62524403  0.50766808  1
  O  O306  1  0.47353930  0.10762332  -0.00690134  1
  O  O307  1  0.52100913  0.16990609  0.51881559  1
  O  O308  1  0.50845585  0.61870633  0.00428021  1
  O  O309  1  0.50650670  0.61729673  0.50379794  1
  O  O310  1  0.48992107  0.37866074  0.49075488  1
  O  O311  1  0.48992604  0.38376418  0.98694034  1
  O  O312  1  0.48709429  0.86731487  0.49258299  1
  O  O313  1  0.49935362  0.87186509  0.98806274  1
  O  O314  1  0.99120349  0.37693284  0.48593847  1
  O  O315  1  0.98788436  0.37755997  0.99080068  1
  O  O316  1  0.99986488  0.89314930  0.49450649  1
  O  O317  1  0.99776406  0.88182392  0.99160699  1
  O  O318  1  0.51083411  0.49156974  0.38845487  1
  O  O319  1  0.49243181  0.49404042  0.87619949  1
  O  O320  1  0.50814698  0.98799462  0.36581051  1
  O  O321  1  0.50433161  0.97602410  0.87560940  1
  O  O322  1  0.99299449  0.48830125  0.37335960  1
  O  O323  1  0.98894625  0.48570725  0.88093337  1
  O  O324  1  0.99870917  0.99083288  0.38838043  1
  O  O325  1  0.99013583  0.99499952  0.88557540  1
  O  O326  1  -0.00592142  -0.00372623  0.11380351  1
  O  O327  1  -0.00057510  -0.00007340  0.60924447  1
  O  O328  1  0.00382057  0.49746772  0.11343991  1
  O  O329  1  -0.00056628  0.51221269  0.62651321  1
  O  O330  1  0.51906631  -0.01421955  0.12665281  1
  O  O331  1  0.49782216  0.04230551  0.66189079  1
  O  O332  1  0.51042721  0.50697590  0.11762757  1
  O  O333  1  0.50932743  0.50599538  0.61422576  1
  O  O334  1  0.26497924  0.38118890  0.26538521  1
  O  O335  1  0.24687627  0.38223256  0.73729016  1
  O  O336  1  0.24190780  0.87658149  0.25779182  1
  O  O337  1  0.23717182  0.87354622  0.74258716  1
  O  O338  1  0.73896830  0.38887130  0.25247855  1
  O  O339  1  0.75632115  0.38131843  0.74698404  1
  O  O340  1  0.75628924  0.88207865  0.23099399  1
  O  O341  1  0.74517088  0.86853191  0.74286432  1
  O  O342  1  0.27960448  0.15240461  0.25854889  1
  O  O343  1  0.23827504  0.12986214  0.76301540  1
  O  O344  1  0.26258600  0.63006480  0.26366828  1
  O  O345  1  0.25387953  0.61784660  0.75661527  1
  O  O346  1  0.76320234  0.11214940  0.24888032  1
  O  O347  1  0.76778343  0.12452001  0.76091160  1
  O  O348  1  0.74140088  0.61351099  0.26190283  1
  O  O349  1  0.76390604  0.62197248  0.74380045  1
  O  O350  1  0.38246912  0.11104244  0.37348361  1
  O  O351  1  0.35836016  0.12875859  0.86249078  1
  O  O352  1  0.36873473  0.62872547  0.36947126  1
  O  O353  1  0.36723354  0.61561809  0.87076951  1
  O  O354  1  0.88314308  0.12639995  0.35427428  1
  O  O355  1  0.87905163  0.11149689  0.88050011  1
  O  O356  1  0.85781082  0.61217258  0.38532198  1
  O  O357  1  0.88475346  0.60917040  0.86492999  1
  O  O358  1  0.12427284  0.38949352  0.12589918  1
  O  O359  1  0.13385981  0.37348652  0.61565468  1
  O  O360  1  0.11966285  0.87151435  0.15366678  1
  O  O361  1  0.11642690  0.87591563  0.63423152  1
  O  O362  1  0.61719092  0.38906435  0.12739138  1
  O  O363  1  0.61358871  0.37984321  0.61293602  1
  O  O364  1  0.63974843  0.87475078  0.11517977  1
  O  O365  1  0.63643453  0.86533985  0.64044121  1
  O  O366  1  0.13911718  0.24236816  0.26272914  1
  O  O367  1  0.10815468  0.24756470  0.74816255  1
  O  O368  1  0.12672916  0.75156634  0.26722496  1
  O  O369  1  0.11556150  0.76200746  0.75488654  1
  O  O370  1  0.63012296  0.26415421  0.24944656  1
  O  O371  1  0.62647450  0.24562119  0.76514264  1
  O  O372  1  0.61639839  0.73950476  0.26138253  1
  O  O373  1  0.62545115  0.75076657  0.76264735  1
  O  O374  1  0.38716489  0.26094195  0.22963616  1
  O  O375  1  0.36272096  0.25268934  0.74228412  1
  O  O376  1  0.38507827  0.74107706  0.24656631  1
  O  O377  1  0.37489366  0.73178947  0.75248255  1
  O  O378  1  0.86627970  0.23543013  0.24178363  1
  O  O379  1  0.87986520  0.23687268  0.76037354  1
  O  O380  1  0.87684687  0.75532671  0.23266075  1
  O  O381  1  0.88721510  0.73911378  0.75341231  1
  O  O382  1  0.38523724  0.48807552  0.50672014  1
  O  O383  1  0.37673697  0.49646748  0.99072548  1
  O  O384  1  0.37147016  0.99545691  0.48725724  1
  O  O385  1  0.36103204  0.98676364  1.00160781  1
  O  O386  1  0.87780336  0.49190624  0.48626011  1
  O  O387  1  0.87808707  0.49200911  0.99352011  1
  O  O388  1  0.87905249  1.01171818  0.50593338  1
  O  O389  1  0.88255563  0.99048234  0.99259595  1
  O  O390  1  0.11475709  0.01285905  0.00064512  1
  O  O391  1  0.13115238  0.01878835  0.49880003  1
  O  O392  1  0.11856124  0.50497937  0.01183865  1
  O  O393  1  0.12496388  0.51578579  0.49424521  1
  O  O394  1  0.62323579  0.00590903  0.01159432  1
  O  O395  1  0.60375661  -0.01238620  0.52122650  1
  O  O396  1  0.62134694  0.50449665  0.00288949  1
  O  O397  1  0.62102318  0.50498433  0.50594671  1
  O  O398  1  0.38290469  0.36809431  0.10988558  1
  O  O399  1  0.36325128  0.36978381  0.61756107  1
  O  O400  1  0.38245354  0.85739459  0.13587079  1
  O  O401  1  0.37255542  0.89196596  0.62126017  1
  O  O402  1  0.87681249  0.37885613  0.10841728  1
  O  O403  1  0.88228259  0.38227821  0.60409522  1
  O  O404  1  0.86997363  0.86620358  0.11587075  1
  O  O405  1  0.86281375  0.86599777  0.63482848  1
  O  O406  1  0.11668115  0.14102786  0.38391709  1
  O  O407  1  0.12898012  0.12947742  0.89141124  1
  O  O408  1  0.14038104  0.63384975  0.38588715  1
  O  O409  1  0.13512127  0.61537066  0.88493324  1
  O  O410  1  0.61696636  0.14663170  0.36898384  1
  O  O411  1  0.60788092  0.14013209  0.88185791  1
  O  O412  1  0.63191699  0.62899831  0.38639184  1
  O  O413  1  0.62012694  0.63555227  0.87913346  1
