# generated using pymatgen
data_V79Zn79O256
_symmetry_space_group_name_H-M   'P 1'
_cell_length_a   16.89198039
_cell_length_b   16.89131258
_cell_length_c   16.89924367
_cell_angle_alpha   89.98939066
_cell_angle_beta   89.96349293
_cell_angle_gamma   89.80377975
_symmetry_Int_Tables_number   1
_chemical_formula_structural   V79Zn79O256
_chemical_formula_sum   'V79 Zn79 O256'
_cell_volume   4821.79334537
_cell_formula_units_Z   1
loop_
 _symmetry_equiv_pos_site_id
 _symmetry_equiv_pos_as_xyz
  1  'x, y, z'
loop_
 _atom_site_type_symbol
 _atom_site_label
 _atom_site_symmetry_multiplicity
 _atom_site_fract_x
 _atom_site_fract_y
 _atom_site_fract_z
 _atom_site_occupancy
  V  V0  1  0.00456392  0.25690677  0.76617395  1
  V  V1  1  0.62872834  0.12487201  0.49591772  1
  V  V2  1  0.24524098  0.49592993  0.24011199  1
  V  V3  1  -0.02099403  0.89503848  0.85047897  1
  V  V4  1  0.75250004  0.49909947  0.26737336  1
  V  V5  1  0.75890840  0.73924991  0.49766266  1
  V  V6  1  0.87132171  0.87458821  -0.00118584  1
  V  V7  1  0.62817693  -0.00076351  0.62928848  1
  V  V8  1  0.63138760  0.37148543  0.74377764  1
  V  V9  1  0.49658533  0.24988673  0.75023700  1
  V  V10  1  0.49882373  0.88290815  0.88806454  1
  V  V11  1  0.25352746  0.86884533  0.12060033  1
  V  V12  1  0.49658234  0.49421735  0.50504592  1
  V  V13  1  0.63107179  0.50081900  0.62446955  1
  V  V14  1  -0.01015589  0.50720582  -0.02068956  1
  V  V15  1  0.36760948  0.49135425  0.38093497  1
  V  V16  1  0.37916475  0.24096437  0.12275225  1
  V  V17  1  0.75616866  0.49560809  0.76173602  1
  V  V18  1  0.37186846  0.27074270  0.62363690  1
  V  V19  1  0.25424889  -0.00376179  0.74659803  1
  V  V20  1  0.12472445  -0.00407743  0.12331016  1
  V  V21  1  0.37096645  0.52652341  0.87147787  1
  V  V22  1  0.49777446  -0.00383627  0.50044050  1
  V  V23  1  -0.00509133  0.13239730  0.62640970  1
  V  V24  1  0.87870756  0.25252656  0.13247294  1
  V  V25  1  0.86899278  0.62453784  0.75575749  1
  V  V26  1  0.50476664  0.73950000  0.25124238  1
  V  V27  1  0.87366431  0.88065858  0.49440454  1
  V  V28  1  0.24287262  0.73766473  0.48827263  1
  V  V29  1  0.00076907  0.62016872  0.61579938  1
  V  V30  1  0.01269077  0.27774075  0.24580044  1
  V  V31  1  0.62190025  0.37992180  0.24764639  1
  V  V32  1  0.64019620  0.62994567  0.00991436  1
  V  V33  1  0.25003022  0.00508242  0.25252604  1
  V  V34  1  0.61834526  0.11063871  0.01509432  1
  V  V35  1  0.36894974  0.00549314  0.37599604  1
  V  V36  1  0.12513058  0.12441542  -0.00638033  1
  V  V37  1  0.24692664  0.86559735  0.61853932  1
  V  V38  1  0.13336342  0.63148467  -0.00556835  1
  V  V39  1  0.37331138  0.86757413  0.50200103  1
  V  V40  1  0.61880945  0.86884132  0.75341034  1
  V  V41  1  0.25608182  0.11182144  0.87321136  1
  V  V42  1  -0.00141631  0.12649487  0.13530589  1
  V  V43  1  0.62867498  0.24560576  0.87979516  1
  V  V44  1  0.37344153  0.37258518  -0.00053310  1
  V  V45  1  -0.00288215  0.62399587  0.12263083  1
  V  V46  1  0.74767879  0.89696949  0.12803093  1
  V  V47  1  0.62984846  0.88953330  0.25119340  1
  V  V48  1  0.74931877  0.38252125  0.12569069  1
  V  V49  1  0.76070073  0.10753758  0.86825433  1
  V  V50  1  0.62627192  0.24716398  0.37789053  1
  V  V51  1  0.50287256  0.50556274  0.01409242  1
  V  V52  1  0.11851506  0.48244170  0.62465888  1
  V  V53  1  0.49705493  0.37565495  0.87291811  1
  V  V54  1  -0.00605814  -0.00038630  -0.00189644  1
  V  V55  1  0.75501081  0.87387057  0.62807379  1
  V  V56  1  -0.00545860  0.74573597  0.74089022  1
  V  V57  1  0.12194300  0.86946622  0.74448132  1
  V  V58  1  0.49899541  0.24487404  0.24676517  1
  V  V59  1  0.86644673  0.37150133  0.48971534  1
  V  V60  1  0.13099931  0.26598315  0.36795870  1
  V  V61  1  0.86184945  0.01487938  0.36215978  1
  V  V62  1  -0.00121965  0.74903343  0.25224172  1
  V  V63  1  0.86079913  0.74884810  0.12485642  1
  V  V64  1  0.87590031  0.38015688  -0.01304393  1
  V  V65  1  0.12775996  0.12107509  0.48810076  1
  V  V66  1  0.37013134  0.62740941  0.26553428  1
  V  V67  1  0.24953347  0.50401600  0.74404447  1
  V  V68  1  0.61480084  0.62450646  0.50212704  1
  V  V69  1  0.38769584  0.89813952  0.00794927  1
  V  V70  1  0.86978219  0.62049150  0.26287288  1
  V  V71  1  0.49313564  0.12072705  0.62508291  1
  V  V72  1  0.38118955  0.73980611  0.11401604  1
  V  V73  1  -0.00330891  0.48765613  0.47753146  1
  V  V74  1  0.25312465  0.26224574  0.50317566  1
  V  V75  1  0.00211971  0.88099718  0.37657257  1
  V  V76  1  0.11881609  0.00267111  0.61865988  1
  V  V77  1  0.63035424  0.73926382  0.37122917  1
  V  V78  1  0.25075289  0.24669230  -0.01130522  1
  Zn  Zn79  1  0.13118193  0.72381172  0.37028139  1
  Zn  Zn80  1  0.75388311  0.24808961  -0.00129535  1
  Zn  Zn81  1  0.49002608  0.72731909  0.73971525  1
  Zn  Zn82  1  0.74856639  0.25351279  0.51316411  1
  Zn  Zn83  1  0.86690235  0.26073609  0.63290532  1
  Zn  Zn84  1  0.12903593  0.86773072  0.24993409  1
  Zn  Zn85  1  0.37591760  0.12279768  0.24933809  1
  Zn  Zn86  1  0.11945781  0.74757952  0.87411673  1
  Zn  Zn87  1  0.63523344  0.74369031  0.88341900  1
  Zn  Zn88  1  0.37790735  0.11439146  0.75344396  1
  Zn  Zn89  1  0.49567202  0.37313886  0.37843670  1
  Zn  Zn90  1  0.10952425  0.48283433  0.12433317  1
  Zn  Zn91  1  0.23685992  0.36532008  0.12773833  1
  Zn  Zn92  1  0.50141197  0.87277865  0.37414138  1
  Zn  Zn93  1  0.12669762  0.36708763  0.78368918  1
  Zn  Zn94  1  0.18781882  0.18800794  0.18032854  1
  Zn  Zn95  1  0.18524420  0.18962051  0.68648792  1
  Zn  Zn96  1  0.18843016  0.68370237  0.18275155  1
  Zn  Zn97  1  0.18472921  0.67947471  0.67990541  1
  Zn  Zn98  1  0.69531065  0.18976205  0.19037394  1
  Zn  Zn99  1  0.69098694  0.18075386  0.68904274  1
  Zn  Zn100  1  0.68327407  0.67436209  0.18287229  1
  Zn  Zn101  1  0.68914732  0.68712266  0.68326677  1
  Zn  Zn102  1  0.30865961  0.31041823  0.31178805  1
  Zn  Zn103  1  0.31045767  0.31504781  0.80858693  1
  Zn  Zn104  1  0.31528984  0.81635757  0.31329356  1
  Zn  Zn105  1  0.31036195  0.74827936  0.82595171  1
  Zn  Zn106  1  0.80908825  0.28843382  0.31320665  1
  Zn  Zn107  1  0.81567305  0.30147979  0.80667350  1
  Zn  Zn108  1  0.81212116  0.81360432  0.31214886  1
  Zn  Zn109  1  0.80829944  0.80606193  0.81065533  1
  Zn  Zn110  1  0.18423955  0.44874879  0.43616403  1
  Zn  Zn111  1  0.19016635  0.45266752  0.93892075  1
  Zn  Zn112  1  0.18580597  0.93403126  0.43520135  1
  Zn  Zn113  1  0.22192293  0.89535812  0.90626882  1
  Zn  Zn114  1  0.68518917  0.43147146  0.43755715  1
  Zn  Zn115  1  0.68573723  0.43927650  0.93931514  1
  Zn  Zn116  1  0.69100318  0.93664233  0.43523376  1
  Zn  Zn117  1  0.68970008  0.93852726  0.94060429  1
  Zn  Zn118  1  0.31008627  0.06245525  0.06657064  1
  Zn  Zn119  1  0.30596894  0.06382494  0.56001049  1
  Zn  Zn120  1  0.31835627  0.56389802  0.06116391  1
  Zn  Zn121  1  0.30155721  0.55410059  0.55983749  1
  Zn  Zn122  1  0.81009578  0.07113548  0.05701439  1
  Zn  Zn123  1  0.81409467  0.06021862  0.55619143  1
  Zn  Zn124  1  0.81311055  0.56122624  0.06677570  1
  Zn  Zn125  1  0.81987118  0.55125139  0.56675139  1
  Zn  Zn126  1  0.42938443  0.43157849  0.19035085  1
  Zn  Zn127  1  0.44265489  0.55643212  0.68840553  1
  Zn  Zn128  1  0.44402558  0.93647241  0.18940365  1
  Zn  Zn129  1  0.40447319  0.87958713  0.71770084  1
  Zn  Zn130  1  0.93227471  0.43887691  0.18775322  1
  Zn  Zn131  1  0.93604216  0.42905317  0.68865179  1
  Zn  Zn132  1  0.93347985  0.93930095  0.19010823  1
  Zn  Zn133  1  0.93674820  0.94228493  0.67688976  1
  Zn  Zn134  1  0.06169648  0.05845630  0.31397876  1
  Zn  Zn135  1  0.06420858  0.06552097  0.80805858  1
  Zn  Zn136  1  0.06405648  0.56239253  0.30679034  1
  Zn  Zn137  1  0.06775674  0.56425005  0.80699417  1
  Zn  Zn138  1  0.55835471  0.06411224  0.31257179  1
  Zn  Zn139  1  0.57025373  0.06150274  0.81521150  1
  Zn  Zn140  1  0.55891693  0.56013216  0.31577309  1
  Zn  Zn141  1  0.57317224  0.55930764  0.82284257  1
  Zn  Zn142  1  0.43680912  0.18939120  0.43750396  1
  Zn  Zn143  1  0.43898122  0.17819243  0.93740420  1
  Zn  Zn144  1  0.42911168  0.68920015  0.56585194  1
  Zn  Zn145  1  0.46585004  0.68953963  0.93298699  1
  Zn  Zn146  1  0.94446215  0.19455336  0.43507902  1
  Zn  Zn147  1  0.93749243  0.18829414  0.94213808  1
  Zn  Zn148  1  0.94413374  0.68609544  0.43886200  1
  Zn  Zn149  1  0.93225482  0.69853015  0.93150791  1
  Zn  Zn150  1  0.08442466  0.33587971  -0.00275664  1
  Zn  Zn151  1  0.05646420  0.30950199  0.55634234  1
  Zn  Zn152  1  0.05542019  0.81319325  0.06160422  1
  Zn  Zn153  1  0.06175340  0.80684451  0.55768487  1
  Zn  Zn154  1  0.56214119  0.31265855  0.06367077  1
  Zn  Zn155  1  0.55790206  0.31271666  0.56599789  1
  Zn  Zn156  1  0.56777529  0.81059309  0.07111266  1
  Zn  Zn157  1  0.56762159  0.81065460  0.56317008  1
  O  O158  1  0.11933912  0.11534644  0.11712741  1
  O  O159  1  0.11956868  0.11784738  0.61681097  1
  O  O160  1  0.10878536  0.62864576  0.11417521  1
  O  O161  1  0.10814344  0.60859074  0.62766576  1
  O  O162  1  0.63608635  0.13741288  0.11256839  1
  O  O163  1  0.61255841  0.11731787  0.61944644  1
  O  O164  1  0.62028002  0.61607082  0.11041437  1
  O  O165  1  0.63127567  0.61645706  0.61150174  1
  O  O166  1  0.37615867  0.38816342  0.36800284  1
  O  O167  1  0.38644459  0.36883376  0.88246613  1
  O  O168  1  0.37900764  0.88472306  0.38498711  1
  O  O169  1  0.39092267  0.87868253  0.89932274  1
  O  O170  1  0.86754916  0.36011727  0.38742043  1
  O  O171  1  0.86790593  0.37012528  0.88938093  1
  O  O172  1  0.88177988  0.88079584  0.37661505  1
  O  O173  1  0.87323961  0.86335595  0.89235785  1
  O  O174  1  0.25602429  -0.00908702  0.36386746  1
  O  O175  1  0.24331388  -0.00145394  0.86015350  1
  O  O176  1  0.26077826  0.49646906  0.36349790  1
  O  O177  1  0.26778414  0.50888722  0.87612386  1
  O  O178  1  0.76145814  0.00257510  0.37599110  1
  O  O179  1  0.75494870  0.00727961  0.87851837  1
  O  O180  1  0.74994852  0.49715563  0.36592360  1
  O  O181  1  0.74259194  0.50342665  0.85995823  1
  O  O182  1  0.25833384  0.49758333  0.13518768  1
  O  O183  1  0.23339556  0.49736982  0.63496246  1
  O  O184  1  0.24340223  0.99079654  0.13127480  1
  O  O185  1  0.23727920  0.99304471  0.62675313  1
  O  O186  1  0.75404540  0.48615866  0.13420400  1
  O  O187  1  0.73730477  0.49933163  0.63234400  1
  O  O188  1  0.75640357  0.99495569  0.13196960  1
  O  O189  1  0.73897147  0.98586755  0.61243636  1
  O  O190  1  0.01842731  0.37650127  0.23849053  1
  O  O191  1  0.00425638  0.36248282  0.75546761  1
  O  O192  1  -0.00201366  0.86493221  0.25801533  1
  O  O193  1  0.00728161  0.85815081  0.72851046  1
  O  O194  1  0.50737034  0.36849960  0.25029473  1
  O  O195  1  0.50928368  0.36127014  0.75886077  1
  O  O196  1  0.51817813  0.86405065  0.24971050  1
  O  O197  1  0.51470227  0.87769091  0.75966181  1
  O  O198  1  0.49711863  0.14059850  0.25301716  1
  O  O199  1  0.50096700  0.13238340  0.74467788  1
  O  O200  1  0.48692914  0.62989925  0.25403817  1
  O  O201  1  0.51068311  0.61821815  0.75213308  1
  O  O202  1  1.00607098  0.12194763  0.23608493  1
  O  O203  1  1.00799856  0.13328697  0.73427255  1
  O  O204  1  0.99031112  0.62987269  0.24141357  1
  O  O205  1  0.99274799  0.62974211  0.74264747  1
  O  O206  1  0.37206562  0.25246131  0.00340911  1
  O  O207  1  0.36111126  0.24604033  0.50551305  1
  O  O208  1  0.38885013  0.74951634  0.01446095  1
  O  O209  1  0.36132507  0.76152055  0.49742162  1
  O  O210  1  0.88270815  0.26848462  0.01121548  1
  O  O211  1  0.87563594  0.25900479  0.50311144  1
  O  O212  1  0.88339351  0.76269444  0.01533459  1
  O  O213  1  0.86311963  0.75678828  0.49206136  1
  O  O214  1  0.13257900  0.24589045  0.48658135  1
  O  O215  1  0.13833266  0.23213981  1.00347513  1
  O  O216  1  0.13849686  0.75453596  0.49178368  1
  O  O217  1  0.10802531  0.73503813  0.99793550  1
  O  O218  1  0.61166402  0.23913859  0.49494764  1
  O  O219  1  0.62640217  0.25444000  0.98707069  1
  O  O220  1  0.63343055  0.74192337  0.49147249  1
  O  O221  1  0.62582138  0.73642555  1.00884156  1
  O  O222  1  0.48960533  0.25820741  0.13417587  1
  O  O223  1  0.49112603  0.24110383  0.63125178  1
  O  O224  1  0.48813684  0.75589510  0.13977234  1
  O  O225  1  0.49652984  0.75525965  0.62599106  1
  O  O226  1  1.00162892  0.24382059  0.13833442  1
  O  O227  1  0.99923272  0.23911661  0.62822538  1
  O  O228  1  0.98874146  0.74550093  0.13602330  1
  O  O229  1  1.00470669  0.73010979  0.62496598  1
  O  O230  1  0.01690727  0.24986344  0.35513396  1
  O  O231  1  0.00441802  0.24057062  0.86607720  1
  O  O232  1  -0.00194867  0.75731758  0.36379749  1
  O  O233  1  -0.00486374  0.76757174  0.85472418  1
  O  O234  1  0.50191707  0.25422110  0.36684400  1
  O  O235  1  0.50561129  0.25273957  0.86742839  1
  O  O236  1  0.51792036  0.75452898  0.36260919  1
  O  O237  1  0.51667610  0.77154209  0.87438383  1
  O  O238  1  0.23394740  0.13708971  0.50418398  1
  O  O239  1  0.24585028  0.12459534  0.99242158  1
  O  O240  1  0.25105819  0.63929440  0.49879464  1
  O  O241  1  0.23184467  0.62220860  1.00901857  1
  O  O242  1  0.73041552  0.12311793  0.50701212  1
  O  O243  1  0.73772899  0.13018473  0.98942857  1
  O  O244  1  0.75166782  0.63718857  0.50715536  1
  O  O245  1  0.73939939  0.61429335  1.00027963  1
  O  O246  1  0.26407361  0.36428922  -0.00998296  1
  O  O247  1  0.24335476  0.36127775  0.49778783  1
  O  O248  1  0.27425072  0.88621380  0.01246276  1
  O  O249  1  0.25486483  0.87113968  0.50335973  1
  O  O250  1  0.76044312  0.37975291  0.00652090  1
  O  O251  1  0.76133033  0.37831033  0.50385160  1
  O  O252  1  0.75674126  0.88166301  0.01924853  1
  O  O253  1  0.75546136  0.86516634  0.50456757  1
  O  O254  1  0.14133230  0.50784539  0.23922057  1
  O  O255  1  0.13028038  0.49219546  0.74302250  1
  O  O256  1  0.13055310  0.99489476  0.23889545  1
  O  O257  1  0.12857503  0.99211021  0.73574710  1
  O  O258  1  0.63466210  0.49007490  0.25723050  1
  O  O259  1  0.63509431  0.49150050  0.74496627  1
  O  O260  1  0.62444638  0.98789047  0.25739401  1
  O  O261  1  0.62324077  0.98945756  0.73586508  1
  O  O262  1  0.36757611  -0.00335568  0.25935740  1
  O  O263  1  0.35744981  -0.01160682  0.74119319  1
  O  O264  1  0.37069843  0.50981828  0.25724623  1
  O  O265  1  0.36329919  0.50372177  0.76425845  1
  O  O266  1  0.87496836  0.00327947  0.26176358  1
  O  O267  1  0.92352622  -0.04333236  0.78956167  1
  O  O268  1  0.86183608  0.50453335  0.25106770  1
  O  O269  1  0.86237027  0.50308114  0.74888764  1
  O  O270  1  0.12914045  0.36432012  0.37338729  1
  O  O271  1  0.12062233  0.37802560  0.89706815  1
  O  O272  1  0.10837726  0.87521161  0.37217184  1
  O  O273  1  0.10026739  0.88509683  0.84841809  1
  O  O274  1  0.61863511  0.36748017  0.36549711  1
  O  O275  1  0.61571138  0.36920677  0.86704181  1
  O  O276  1  0.63008515  0.86506143  0.36137404  1
  O  O277  1  0.62874144  0.87777380  0.86108005  1
  O  O278  1  0.37395435  0.13703551  0.12564205  1
  O  O279  1  0.38607396  0.12085535  0.62768963  1
  O  O280  1  0.37352400  0.63826026  0.13192407  1
  O  O281  1  0.37137088  0.61318027  0.62290315  1
  O  O282  1  0.88619344  0.14252158  0.11398364  1
  O  O283  1  0.89454124  0.11656685  0.61421797  1
  O  O284  1  0.87939406  0.63207500  0.13324543  1
  O  O285  1  0.89216277  0.61082451  0.63755778  1
  O  O286  1  0.25993558  0.24780295  0.11002430  1
  O  O287  1  0.25657515  0.24853214  0.61366247  1
  O  O288  1  0.26669552  0.75961789  0.13112536  1
  O  O289  1  0.23926875  0.75954155  0.61173377  1
  O  O290  1  0.76446065  0.26458530  0.11855958  1
  O  O291  1  0.75356185  0.24517551  0.62556298  1
  O  O292  1  0.75963914  0.74940251  0.13195840  1
  O  O293  1  0.74412097  0.76375721  0.60863723  1
  O  O294  1  0.24045127  0.24919699  0.38323709  1
  O  O295  1  0.25746278  0.23486323  0.88349819  1
  O  O296  1  0.24732620  0.75596278  0.38303859  1
  O  O297  1  0.22719741  0.78426653  0.88383135  1
  O  O298  1  0.72691856  0.25773365  0.39479510  1
  O  O299  1  0.73794323  0.24839703  0.87442927  1
  O  O300  1  0.74198125  0.75325360  0.38657673  1
  O  O301  1  0.74546275  0.74360182  0.87378374  1
  O  O302  1  0.00816500  0.11930700  0.00951959  1
  O  O303  1  0.02041371  0.13733993  0.51086813  1
  O  O304  1  -0.01223240  0.61826805  0.00462870  1
  O  O305  1  -0.01012173  0.60771045  0.51069875  1
  O  O306  1  0.51915418  0.13010632  -0.00185263  1
  O  O307  1  0.50263161  0.11536544  0.50776892  1
  O  O308  1  0.48845715  0.60615417  0.00802196  1
  O  O309  1  0.50985687  0.61477570  0.50040091  1
  O  O310  1  0.50438317  0.38926201  0.49833830  1
  O  O311  1  0.49314002  0.38005570  0.99086451  1
  O  O312  1  0.49284990  0.88254140  0.50051571  1
  O  O313  1  0.49948558  0.87611769  0.99940822  1
  O  O314  1  0.99434117  0.38279692  0.49077293  1
  O  O315  1  0.98471131  0.39637690  1.00103812  1
  O  O316  1  0.98863411  0.86254181  0.48465719  1
  O  O317  1  0.99005313  0.88386205  0.99358348  1
  O  O318  1  0.48600627  0.49916786  0.38341795  1
  O  O319  1  0.48502341  0.49062525  0.87888061  1
  O  O320  1  0.49233980  0.99689283  0.38611439  1
  O  O321  1  0.51082782  0.98232938  0.87371937  1
  O  O322  1  1.00220304  0.49411817  0.37927440  1
  O  O323  1  0.99408992  0.50868793  0.88139227  1
  O  O324  1  0.99154661  0.98410001  0.37063893  1
  O  O325  1  1.01082012  1.00302591  0.89444529  1
  O  O326  1  0.00572295  0.00339186  0.12014169  1
  O  O327  1  0.01137081  0.01070151  0.62405247  1
  O  O328  1  -0.00616943  0.51472720  0.12260077  1
  O  O329  1  0.00922121  0.50312817  0.62963654  1
  O  O330  1  0.50442693  0.01802024  0.14593479  1
  O  O331  1  0.50899984  0.00560396  0.61374134  1
  O  O332  1  0.49133126  0.48694062  0.11150006  1
  O  O333  1  0.51640630  0.49902318  0.61540855  1
  O  O334  1  0.25621629  0.39050317  0.24425608  1
  O  O335  1  0.24333153  0.39509597  0.76550108  1
  O  O336  1  0.25059665  0.88213191  0.23767434  1
  O  O337  1  0.23525578  0.87918940  0.73403968  1
  O  O338  1  0.74384616  0.38311405  0.24709806  1
  O  O339  1  0.74308778  0.38413818  0.75634955  1
  O  O340  1  0.74033522  0.87200324  0.24030780  1
  O  O341  1  0.74598920  0.87084242  0.73214255  1
  O  O342  1  0.25185419  0.10893456  0.24131249  1
  O  O343  1  0.24925559  0.11350623  0.75570480  1
  O  O344  1  0.26335873  0.61599837  0.24416997  1
  O  O345  1  0.23841963  0.60705257  0.75299801  1
  O  O346  1  0.77725882  0.18895026  0.26250874  1
  O  O347  1  0.74426925  0.12089437  0.76799745  1
  O  O348  1  0.75435641  0.60696656  0.24630797  1
  O  O349  1  0.76171457  0.61420957  0.74088852  1
  O  O350  1  0.37747636  0.10941949  0.37530031  1
  O  O351  1  0.36287053  0.11781236  0.87323609  1
  O  O352  1  0.37038042  0.61412711  0.36419649  1
  O  O353  1  0.37761768  0.62668341  0.87797822  1
  O  O354  1  0.88531266  0.11073828  0.38485281  1
  O  O355  1  0.85833525  0.13080635  0.88601700  1
  O  O356  1  0.87818684  0.63001114  0.36134121  1
  O  O357  1  0.88029561  0.62725691  0.85516848  1
  O  O358  1  0.12964668  0.37641767  0.09573036  1
  O  O359  1  0.11638351  0.38231682  0.62645431  1
  O  O360  1  0.13413717  0.87886323  0.12144154  1
  O  O361  1  0.12661337  0.88201096  0.62288201  1
  O  O362  1  0.63628423  0.36437882  0.13770564  1
  O  O363  1  0.62050817  0.37975836  0.63833955  1
  O  O364  1  0.63882879  0.87512809  0.13730791  1
  O  O365  1  0.63340921  0.88113778  0.63149304  1
  O  O366  1  0.12578051  0.24968999  0.25676193  1
  O  O367  1  0.11339979  0.25343703  0.74658780  1
  O  O368  1  0.11404881  0.74768428  0.24978925  1
  O  O369  1  0.11546018  0.75392167  0.74477153  1
  O  O370  1  0.61554368  0.25713942  0.25928219  1
  O  O371  1  0.61683926  0.25315970  0.75689348  1
  O  O372  1  0.62154497  0.74171255  0.25464028  1
  O  O373  1  0.62600600  0.76477961  0.74403084  1
  O  O374  1  0.37952562  0.25016138  0.24105693  1
  O  O375  1  0.38248770  0.24725080  0.74232250  1
  O  O376  1  0.38236185  0.73982243  0.25166455  1
  O  O377  1  0.38578319  0.77350866  0.75477001  1
  O  O378  1  0.90351888  0.27097117  0.24082731  1
  O  O379  1  0.89558096  0.25114423  0.74602288  1
  O  O380  1  0.87903989  0.74213115  0.24444596  1
  O  O381  1  0.88088857  0.73649789  0.74191115  1
  O  O382  1  0.37698039  0.50127167  0.48626725  1
  O  O383  1  0.37982389  0.49262363  0.98807286  1
  O  O384  1  0.37833633  0.99341976  0.49504356  1
  O  O385  1  0.39018299  0.99653997  1.01413516  1
  O  O386  1  0.88781210  0.48850896  0.49566290  1
  O  O387  1  0.88021842  0.49353400  0.99908385  1
  O  O388  1  0.87237965  0.98504275  0.48735299  1
  O  O389  1  0.88463303  0.98999533  1.01138233  1
  O  O390  1  0.11768081  0.00569782  0.01466316  1
  O  O391  1  0.13102713  0.01261224  0.50310033  1
  O  O392  1  0.10478214  0.51814185  0.00199024  1
  O  O393  1  0.10910246  0.49170995  0.51258964  1
  O  O394  1  0.62755696  0.01024934  0.00633850  1
  O  O395  1  0.61557483  0.00288536  0.50297894  1
  O  O396  1  0.60742930  0.50289375  -0.00426624  1
  O  O397  1  0.61971689  0.50540956  0.50391567  1
  O  O398  1  0.36934634  0.36464967  0.11099099  1
  O  O399  1  0.37884005  0.36632837  0.62508863  1
  O  O400  1  0.37543428  0.86773567  0.11922703  1
  O  O401  1  0.35765356  0.88183685  0.61137805  1
  O  O402  1  0.86894519  0.37046903  0.11936489  1
  O  O403  1  0.88489675  0.37367066  0.60501333  1
  O  O404  1  0.86224526  0.86961336  0.12507360  1
  O  O405  1  0.86153170  0.88346426  0.61431879  1
  O  O406  1  0.12124016  0.12706491  0.38512707  1
  O  O407  1  0.13759963  0.11473538  0.88669424  1
  O  O408  1  0.11557180  0.61581181  0.38669172  1
  O  O409  1  0.11937092  0.62691063  0.88873933  1
  O  O410  1  0.61491953  0.13365676  0.38515290  1
  O  O411  1  0.63315259  0.13064522  0.88426201  1
  O  O412  1  0.62521380  0.63008528  0.38583368  1
  O  O413  1  0.60512515  0.62966091  0.90317034  1
