# generated using pymatgen
data_V79Zn79O256
_symmetry_space_group_name_H-M   'P 1'
_cell_length_a   16.95880534
_cell_length_b   16.89850098
_cell_length_c   16.90956392
_cell_angle_alpha   90.09808300
_cell_angle_beta   89.91456817
_cell_angle_gamma   89.88588901
_symmetry_Int_Tables_number   1
_chemical_formula_structural   V79Zn79O256
_chemical_formula_sum   'V79 Zn79 O256'
_cell_volume   4845.89345638
_cell_formula_units_Z   1
loop_
 _symmetry_equiv_pos_site_id
 _symmetry_equiv_pos_as_xyz
  1  'x, y, z'
loop_
 _atom_site_type_symbol
 _atom_site_label
 _atom_site_symmetry_multiplicity
 _atom_site_fract_x
 _atom_site_fract_y
 _atom_site_fract_z
 _atom_site_occupancy
  V  V0  1  -0.00489250  0.49636376  -0.01164143  1
  V  V1  1  0.37290691  0.75361195  0.63099136  1
  V  V2  1  0.87406912  0.76432081  0.11958770  1
  V  V3  1  0.11736785  0.11980033  0.49470090  1
  V  V4  1  0.87283511  0.24989198  0.62611961  1
  V  V5  1  -0.00031047  -0.00571082  -0.00020702  1
  V  V6  1  0.87821713  0.23839998  0.11808679  1
  V  V7  1  0.11254296  0.62240586  0.50136145  1
  V  V8  1  0.00466526  0.12237851  0.62838760  1
  V  V9  1  0.87094337  0.87910553  0.50849311  1
  V  V10  1  0.38269029  0.38372481  0.49414905  1
  V  V11  1  0.87719059  0.62011579  0.25042497  1
  V  V12  1  0.37323424  0.24984198  0.13027719  1
  V  V13  1  0.24840381  0.38053696  0.62372555  1
  V  V14  1  0.87027517  0.61596883  0.77409610  1
  V  V15  1  0.11785102  0.25234677  0.87101781  1
  V  V16  1  0.12194151  0.62732649  -0.01452900  1
  V  V17  1  0.37212971  0.87641132  0.00453741  1
  V  V18  1  0.61948532  0.11920872  0.00187076  1
  V  V19  1  0.00371593  0.75251249  0.25010772  1
  V  V20  1  0.74851393  0.62497368  0.37594752  1
  V  V21  1  0.37391366  0.37888922  0.00024764  1
  V  V22  1  0.62641855  0.50990266  0.13196212  1
  V  V23  1  0.12454354  -0.00426500  0.12585736  1
  V  V24  1  0.74518907  0.13522558  0.37452293  1
  V  V25  1  0.68916191  0.69258850  -0.05974126  1
  V  V26  1  0.11483238  0.51055142  0.62012380  1
  V  V27  1  0.24875691  0.25824884  0.00464685  1
  V  V28  1  0.74813559  0.50229534  0.76391510  1
  V  V29  1  0.50335553  0.51100873  0.00708981  1
  V  V30  1  0.74688166  -0.00864211  0.74368243  1
  V  V31  1  0.62508942  0.25079779  0.88458998  1
  V  V32  1  0.50285366  0.12424524  0.62648806  1
  V  V33  1  0.27521943  0.61975215  0.87568901  1
  V  V34  1  0.12066157  0.12638094  0.00570582  1
  V  V35  1  0.11800743  0.37080720  0.25855738  1
  V  V36  1  0.25401448  -0.00229425  0.24710841  1
  V  V37  1  0.62780182  0.62092563  0.50021307  1
  V  V38  1  0.87647725  0.00069944  0.37681469  1
  V  V39  1  0.74864894  0.12780075  0.87971845  1
  V  V40  1  0.00088366  0.88130075  0.38079231  1
  V  V41  1  0.12520141  0.49178043  0.12205378  1
  V  V42  1  0.88113312  0.13159954  0.75298870  1
  V  V43  1  0.25577720  0.50131536  0.24234789  1
  V  V44  1  0.49453588  0.38317311  0.87611384  1
  V  V45  1  0.88213213  0.37862970  0.50667087  1
  V  V46  1  0.37572525  0.86663897  0.49116714  1
  V  V47  1  -0.00016018  0.74923152  0.75227183  1
  V  V48  1  0.12807799  0.75023474  0.38008515  1
  V  V49  1  0.49635872  0.12876571  0.12591247  1
  V  V50  1  0.37784231  0.00100958  0.87706081  1
  V  V51  1  0.49675294  -0.00123851  0.49649073  1
  V  V52  1  0.74495781  -0.01030244  0.25004977  1
  V  V53  1  0.25661374  0.62785871  0.37818665  1
  V  V54  1  0.86453798  0.37305841  -0.00388388  1
  V  V55  1  0.50618228  0.25590425  0.26023102  1
  V  V56  1  0.62881467  0.49873516  0.62509754  1
  V  V57  1  0.24745142  0.74872035  0.00265379  1
  V  V58  1  0.11885123  0.37433711  0.75001932  1
  V  V59  1  0.87485101  -0.00953688  0.87655151  1
  V  V60  1  0.24050047  0.25170439  0.49730563  1
  V  V61  1  0.37221823  0.25001281  0.62504715  1
  V  V62  1  0.50709215  0.87561838  0.86995060  1
  V  V63  1  0.26056224  0.50705331  0.75172808  1
  V  V64  1  0.61984152  -0.00934633  0.13054056  1
  V  V65  1  0.74656655  0.75379858  0.49924963  1
  V  V66  1  0.51712532  0.74925492  0.75039185  1
  V  V67  1  0.62942956  0.37491948  0.74643207  1
  V  V68  1  0.25014535  0.12430226  0.87259328  1
  V  V69  1  0.87154511  0.72396169  0.62241409  1
  V  V70  1  0.49814846  0.25134255  0.75125524  1
  V  V71  1  0.25431105  0.13094395  0.36940496  1
  V  V72  1  0.88609467  0.12853937  0.24258833  1
  V  V73  1  0.89280110  0.49822462  0.37856144  1
  V  V74  1  0.62561352  -0.01172671  0.62764148  1
  V  V75  1  0.37007387  0.11955429  0.74917497  1
  V  V76  1  0.49933213  0.62364818  0.62386569  1
  V  V77  1  0.38296697  0.73289527  0.13390575  1
  V  V78  1  0.00087329  0.62386127  0.12185886  1
  Zn  Zn79  1  -0.00932906  0.37251251  0.86860913  1
  Zn  Zn80  1  0.74391749  0.25867112  0.50368621  1
  Zn  Zn81  1  0.00669273  0.34331938  0.37668269  1
  Zn  Zn82  1  0.74561804  0.36514862  0.12634406  1
  Zn  Zn83  1  0.63998856  0.36030788  0.25896777  1
  Zn  Zn84  1  0.37855288  0.49187800  0.36783335  1
  Zn  Zn85  1  0.11957731  -0.02150006  0.60828700  1
  Zn  Zn86  1  0.01036685  0.87157372  0.86800850  1
  Zn  Zn87  1  0.75129735  0.49429778  0.25098239  1
  Zn  Zn88  1  0.38171376  -0.00126864  0.37010531  1
  Zn  Zn89  1  0.22375182  0.92623806  0.71201980  1
  Zn  Zn90  1  0.12908234  0.87416191  0.24681814  1
  Zn  Zn91  1  0.20934991  0.80364223  0.55673359  1
  Zn  Zn92  1  0.72212717  0.83064103  0.06542714  1
  Zn  Zn93  1  0.62020102  0.13211902  0.49277482  1
  Zn  Zn94  1  0.18429818  0.18753164  0.18646037  1
  Zn  Zn95  1  0.18598124  0.18719918  0.68504757  1
  Zn  Zn96  1  0.19201379  0.68357455  0.18576015  1
  Zn  Zn97  1  0.20727346  0.72576634  0.72406455  1
  Zn  Zn98  1  0.69370225  0.18311503  0.18544513  1
  Zn  Zn99  1  0.68917493  0.18595476  0.69109769  1
  Zn  Zn100  1  0.69185918  0.68130589  0.18162842  1
  Zn  Zn101  1  0.69252027  0.68692522  0.68823363  1
  Zn  Zn102  1  0.30657509  0.31668267  0.30868268  1
  Zn  Zn103  1  0.30845686  0.31398593  0.81302640  1
  Zn  Zn104  1  0.31633405  0.81376641  0.31266991  1
  Zn  Zn105  1  0.32720901  0.80380896  0.82098751  1
  Zn  Zn106  1  0.82395831  0.31463073  0.31126739  1
  Zn  Zn107  1  0.80852241  0.31112381  0.81279525  1
  Zn  Zn108  1  0.81371176  0.81023381  0.31266420  1
  Zn  Zn109  1  0.80996709  0.80827956  0.80939767  1
  Zn  Zn110  1  0.18832113  0.44277798  0.43452038  1
  Zn  Zn111  1  0.18619838  0.44112603  0.93441587  1
  Zn  Zn112  1  0.19202367  0.94019287  0.43188674  1
  Zn  Zn113  1  0.19081987  0.93874932  0.93561429  1
  Zn  Zn114  1  0.70142294  0.43556608  0.43596320  1
  Zn  Zn115  1  0.68081141  0.43986436  0.94102848  1
  Zn  Zn116  1  0.69223009  0.95035796  0.44568386  1
  Zn  Zn117  1  0.68672990  0.93923413  0.93330456  1
  Zn  Zn118  1  0.30901728  0.06655025  0.06005514  1
  Zn  Zn119  1  0.30294955  0.05149542  0.56681587  1
  Zn  Zn120  1  0.31449508  0.56216644  0.06191950  1
  Zn  Zn121  1  0.30864599  0.57058559  0.56050852  1
  Zn  Zn122  1  0.79655796  0.01852436  0.04894156  1
  Zn  Zn123  1  0.81369757  0.06645966  0.56254297  1
  Zn  Zn124  1  0.80794311  0.55998937  0.05639920  1
  Zn  Zn125  1  0.80449375  0.54959987  0.56046821  1
  Zn  Zn126  1  0.44133942  0.43276697  0.18277283  1
  Zn  Zn127  1  0.44110053  0.43866628  0.68306120  1
  Zn  Zn128  1  0.42343907  0.95426518  0.16997831  1
  Zn  Zn129  1  0.43709857  0.93445291  0.68603706  1
  Zn  Zn130  1  0.93796728  0.43051924  0.18057035  1
  Zn  Zn131  1  0.93485020  0.44264529  0.68728696  1
  Zn  Zn132  1  0.94288342  0.94568932  0.19093354  1
  Zn  Zn133  1  0.94021100  0.94188522  0.69034795  1
  Zn  Zn134  1  0.06561938  0.07079776  0.31397748  1
  Zn  Zn135  1  0.06236004  0.06058674  0.81590969  1
  Zn  Zn136  1  0.06971493  0.56336471  0.30925200  1
  Zn  Zn137  1  0.06100208  0.56451952  0.80137208  1
  Zn  Zn138  1  0.55963209  0.07220012  0.30767195  1
  Zn  Zn139  1  0.56237386  0.06073310  0.81097605  1
  Zn  Zn140  1  0.56307042  0.48291976  0.34202573  1
  Zn  Zn141  1  0.56610231  0.56830321  0.81746263  1
  Zn  Zn142  1  0.43062040  0.18902715  0.44125984  1
  Zn  Zn143  1  0.43845771  0.19150776  0.93982368  1
  Zn  Zn144  1  0.47032209  0.64374227  0.40145399  1
  Zn  Zn145  1  0.44223421  0.69436104  0.94061812  1
  Zn  Zn146  1  0.93465944  0.18883933  0.43895093  1
  Zn  Zn147  1  0.93569474  0.18409297  0.94044610  1
  Zn  Zn148  1  0.93595011  0.69074470  0.43633954  1
  Zn  Zn149  1  0.93366105  0.69258115  0.93865517  1
  Zn  Zn150  1  0.05461707  0.31069298  0.06371903  1
  Zn  Zn151  1  0.05746533  0.30919332  0.56720261  1
  Zn  Zn152  1  0.06500764  0.81432789  0.06062888  1
  Zn  Zn153  1  0.04619720  0.80804443  0.56805837  1
  Zn  Zn154  1  0.56209303  0.31877930  0.06893923  1
  Zn  Zn155  1  0.56342827  0.31276226  0.55790909  1
  Zn  Zn156  1  0.55129876  0.80753802  0.05782612  1
  Zn  Zn157  1  0.55919671  0.80996258  0.55678483  1
  O  O158  1  0.12931964  0.11768927  0.11251764  1
  O  O159  1  0.11703486  0.13228108  0.61310652  1
  O  O160  1  0.11340976  0.61800175  0.11750494  1
  O  O161  1  0.13014423  0.61272977  0.61631569  1
  O  O162  1  0.61585202  0.12378221  0.11693006  1
  O  O163  1  0.60947982  0.11809454  0.63459019  1
  O  O164  1  0.62647309  0.61059634  0.12244425  1
  O  O165  1  0.62117587  0.61931979  0.61989010  1
  O  O166  1  0.36699933  0.37484650  0.38982531  1
  O  O167  1  0.38541204  0.36886738  0.88294262  1
  O  O168  1  0.37964624  0.87690933  0.38550591  1
  O  O169  1  0.38096203  0.88528370  0.87985303  1
  O  O170  1  0.88766734  0.38250578  0.38196656  1
  O  O171  1  0.87612886  0.36268931  0.88961809  1
  O  O172  1  0.88260260  0.88152501  0.37948578  1
  O  O173  1  0.87376624  0.88961165  0.86736954  1
  O  O174  1  0.24890863  0.01340815  0.36276824  1
  O  O175  1  0.26340807  0.01546502  0.87969247  1
  O  O176  1  0.25624786  0.51267468  0.36557149  1
  O  O177  1  0.24823981  0.51201836  0.86778027  1
  O  O178  1  0.75769416  0.00711810  0.36820241  1
  O  O179  1  0.75421607  0.00852226  0.86110436  1
  O  O180  1  0.77183679  0.51206744  0.37413202  1
  O  O181  1  0.74057441  0.49915193  0.86381850  1
  O  O182  1  0.23797995  0.51123913  0.13444176  1
  O  O183  1  0.24305784  0.49509249  0.63012146  1
  O  O184  1  0.24404538  1.01080246  0.13969179  1
  O  O185  1  0.22852028  1.01026062  0.64090182  1
  O  O186  1  0.73789974  0.49783631  0.12480726  1
  O  O187  1  0.73567393  0.50244996  0.64049253  1
  O  O188  1  0.72911531  1.00979908  0.13833045  1
  O  O189  1  0.74159208  1.01117582  0.63632053  1
  O  O190  1  0.01450197  0.38142724  0.25035571  1
  O  O191  1  0.01423849  0.38455844  0.75220656  1
  O  O192  1  0.00323466  0.86701524  0.26032696  1
  O  O193  1  -0.01166631  0.85494832  0.74703637  1
  O  O194  1  0.49806660  0.35995139  0.25175514  1
  O  O195  1  0.50522557  0.37273544  0.75803569  1
  O  O196  1  0.56806949  0.88524702  0.32528769  1
  O  O197  1  0.49660830  0.86550669  0.75951558  1
  O  O198  1  0.49776074  0.13743486  0.23450712  1
  O  O199  1  0.48885165  0.12928107  0.74603500  1
  O  O200  1  0.55396685  0.70176058  0.27272538  1
  O  O201  1  0.50839789  0.63927664  0.74089289  1
  O  O202  1  0.98425402  0.11215348  0.24625736  1
  O  O203  1  0.99040101  0.12129150  0.74712281  1
  O  O204  1  0.99755586  0.63241419  0.24170307  1
  O  O205  1  0.97630571  0.62909280  0.75444637  1
  O  O206  1  0.36626435  0.25767594  0.00356877  1
  O  O207  1  0.36164571  0.26003613  0.50635459  1
  O  O208  1  0.36858422  0.75760462  0.00803596  1
  O  O209  1  0.38730381  0.76659981  0.50842086  1
  O  O210  1  0.87514315  0.25664337  0.00737317  1
  O  O211  1  0.87163085  0.25642480  0.50932027  1
  O  O212  1  0.88142242  0.75104531  0.02042914  1
  O  O213  1  0.86952359  0.75487936  0.51103878  1
  O  O214  1  0.13531356  0.24410980  0.50427156  1
  O  O215  1  0.13074385  0.24635610  0.99543470  1
  O  O216  1  0.12489914  0.74350165  0.49235982  1
  O  O217  1  0.13353809  0.73879189  1.00529665  1
  O  O218  1  0.63298182  0.24242824  0.51102658  1
  O  O219  1  0.62025024  0.24412385  0.98924947  1
  O  O220  1  0.63957504  0.74083570  0.50810776  1
  O  O221  1  0.64329681  0.75946250  1.01155140  1
  O  O222  1  0.49084004  0.24616387  0.13106774  1
  O  O223  1  0.49200483  0.24196978  0.63154024  1
  O  O224  1  0.48222330  0.75126156  0.12344339  1
  O  O225  1  0.49785866  0.74535138  0.63356872  1
  O  O226  1  0.98072713  0.24659082  0.12098084  1
  O  O227  1  0.98751433  0.23586495  0.62563535  1
  O  O228  1  0.99706339  0.74375755  0.13191035  1
  O  O229  1  0.97506830  0.74771230  0.63395546  1
  O  O230  1  0.00078086  0.23287155  0.36362232  1
  O  O231  1  0.01547636  0.24921378  0.88044644  1
  O  O232  1  0.00805202  0.75685950  0.36748084  1
  O  O233  1  -0.01170343  0.75363321  0.85972892  1
  O  O234  1  0.49043866  0.23664647  0.35778070  1
  O  O235  1  0.50727353  0.25785679  0.87007659  1
  O  O236  1  0.51754775  0.73172782  0.33720812  1
  O  O237  1  0.49388934  0.76029621  0.85978983  1
  O  O238  1  0.24029246  0.13268443  0.49485239  1
  O  O239  1  0.24192352  0.13481939  0.99005628  1
  O  O240  1  0.23548075  0.62043557  0.48384097  1
  O  O241  1  0.24238205  0.62288708  0.98873967  1
  O  O242  1  0.75385183  0.12451538  0.48235621  1
  O  O243  1  0.73924032  0.11305249  0.98456856  1
  O  O244  1  0.74821918  0.63218396  0.49567472  1
  O  O245  1  0.75101887  0.63224685  0.99299818  1
  O  O246  1  0.25827633  0.36774537  -0.00925834  1
  O  O247  1  0.25072463  0.37063621  0.50809690  1
  O  O248  1  0.26148284  0.86260546  -0.01322058  1
  O  O249  1  0.26786514  0.87914914  0.49460717  1
  O  O250  1  0.76261540  0.38007096  -0.00108793  1
  O  O251  1  0.77443777  0.37153162  0.49423116  1
  O  O252  1  0.76416575  0.91310593  0.00697367  1
  O  O253  1  0.75821818  0.86487322  0.48915998  1
  O  O254  1  0.13016387  0.49428396  0.23929627  1
  O  O255  1  0.13540990  0.49670507  0.73879107  1
  O  O256  1  0.13213235  1.00372189  0.24183703  1
  O  O257  1  0.13031441  0.96898685  0.78447674  1
  O  O258  1  0.62511635  0.50209858  0.23676006  1
  O  O259  1  0.62883328  0.49439981  0.74751639  1
  O  O260  1  0.62762342  1.00433797  0.23909718  1
  O  O261  1  0.63866332  1.00315348  0.74537135  1
  O  O262  1  0.36073220  0.00010034  0.25094529  1
  O  O263  1  0.37558438  0.01080926  0.75740170  1
  O  O264  1  0.35710905  0.49086605  0.23982511  1
  O  O265  1  0.35949051  0.49706347  0.74067338  1
  O  O266  1  0.86601441  0.00651360  0.25545564  1
  O  O267  1  0.86589765  0.01086323  0.75554399  1
  O  O268  1  0.88214967  0.51018676  0.25423774  1
  O  O269  1  0.86536341  0.50899340  0.75005102  1
  O  O270  1  0.12017016  0.38243469  0.36417561  1
  O  O271  1  0.12629731  0.36849416  0.86633016  1
  O  O272  1  0.11753643  0.86730555  0.37733531  1
  O  O273  1  0.12315618  0.90878246  0.84682290  1
  O  O274  1  0.62268083  0.39535320  0.36870518  1
  O  O275  1  0.61588916  0.36738978  0.86890853  1
  O  O276  1  0.61605038  0.86543827  0.37769648  1
  O  O277  1  0.60513757  0.88381845  0.88005055  1
  O  O278  1  0.38480462  0.13590650  0.11213530  1
  O  O279  1  0.37902652  0.12737593  0.63343084  1
  O  O280  1  0.37645133  0.63237427  0.12576180  1
  O  O281  1  0.39228179  0.63655224  0.60908618  1
  O  O282  1  0.86938334  0.12844670  0.13490682  1
  O  O283  1  0.88431653  0.12732031  0.63304953  1
  O  O284  1  0.88628976  0.62942791  0.13243950  1
  O  O285  1  0.87437252  0.62472747  0.61807236  1
  O  O286  1  0.25742777  0.24227822  0.11093188  1
  O  O287  1  0.25247134  0.26096600  0.61897714  1
  O  O288  1  0.25883641  0.73985923  0.10956888  1
  O  O289  1  0.27083646  0.73135151  0.62170851  1
  O  O290  1  0.76729922  0.24842318  0.12731319  1
  O  O291  1  0.76774578  0.23934862  0.62635793  1
  O  O292  1  0.76868218  0.75553877  0.13890534  1
  O  O293  1  0.76437987  0.74605757  0.61567253  1
  O  O294  1  0.25336325  0.23972571  0.38207448  1
  O  O295  1  0.24262599  0.24373407  0.88446660  1
  O  O296  1  0.23504447  0.74182815  0.36353231  1
  O  O297  1  0.26307881  0.72927779  0.88987349  1
  O  O298  1  0.75991377  0.23622164  0.37152877  1
  O  O299  1  0.73533834  0.23899708  0.86834099  1
  O  O300  1  0.76218806  0.73668700  0.38620875  1
  O  O301  1  0.74455169  0.75253182  0.87975063  1
  O  O302  1  0.01595902  0.11387405  -0.01100344  1
  O  O303  1  0.01239512  0.12662959  0.50704782  1
  O  O304  1  0.00303712  0.61964653  0.00497755  1
  O  O305  1  0.01278991  0.63115375  0.49638515  1
  O  O306  1  0.50892772  0.13113607  0.00899426  1
  O  O307  1  0.49391333  0.12025256  0.51493618  1
  O  O308  1  0.49486387  0.60927514  -0.00323954  1
  O  O309  1  0.52010147  0.63363871  0.50716034  1
  O  O310  1  0.48116652  0.37259689  0.50638495  1
  O  O311  1  0.49187448  0.37792836  0.99210285  1
  O  O312  1  0.49085273  0.88796213  0.50395107  1
  O  O313  1  0.48129114  0.86447030  0.98159666  1
  O  O314  1  0.98801897  0.36508366  0.49495446  1
  O  O315  1  0.99189938  0.38247956  0.99561240  1
  O  O316  1  0.98691846  0.86756167  0.48699394  1
  O  O317  1  1.01537328  0.88847530  0.98747220  1
  O  O318  1  0.47493536  0.54288028  0.35054289  1
  O  O319  1  0.50894935  0.48967004  0.88756296  1
  O  O320  1  0.49806164  1.01802414  0.39126082  1
  O  O321  1  0.48846948  0.98992728  0.86836118  1
  O  O322  1  0.99249755  0.50864402  0.37404637  1
  O  O323  1  1.00437682  0.49920641  0.88550748  1
  O  O324  1  0.99104197  0.99051811  0.36668536  1
  O  O325  1  0.98835597  0.99857156  0.87950892  1
  O  O326  1  0.01109599  -0.00230148  0.11313529  1
  O  O327  1  0.01043006  0.01395051  0.63344289  1
  O  O328  1  0.00548398  0.50813559  0.11471783  1
  O  O329  1  0.01656847  0.50057297  0.63033328  1
  O  O330  1  0.51084614  0.01182077  0.13268004  1
  O  O331  1  0.50528044  0.00642552  0.62180236  1
  O  O332  1  0.50955565  0.49694200  0.11556109  1
  O  O333  1  0.51310052  0.51344018  0.63297996  1
  O  O334  1  0.23590916  0.39479783  0.25694015  1
  O  O335  1  0.24248853  0.38391664  0.74231112  1
  O  O336  1  0.24494183  0.89427026  0.26026631  1
  O  O337  1  0.24135879  0.82999853  0.75706525  1
  O  O338  1  0.75629931  0.37866067  0.24711896  1
  O  O339  1  0.73554904  0.38094077  0.75489891  1
  O  O340  1  0.75197336  0.88891645  0.25722467  1
  O  O341  1  0.75846323  0.89281810  0.74704192  1
  O  O342  1  0.24257314  0.12197645  0.26397264  1
  O  O343  1  0.26026838  0.13667595  0.76117399  1
  O  O344  1  0.23992252  0.61171125  0.26306164  1
  O  O345  1  0.24925913  0.62391560  0.77008727  1
  O  O346  1  0.75843525  0.11539828  0.26080013  1
  O  O347  1  0.75884791  0.11895334  0.76023625  1
  O  O348  1  0.76388164  0.62398881  0.25773317  1
  O  O349  1  0.76156586  0.61752401  0.74967430  1
  O  O350  1  0.35600667  0.11896513  0.38448206  1
  O  O351  1  0.37144646  0.12166325  0.87045215  1
  O  O352  1  0.35407316  0.64367863  0.38353331  1
  O  O353  1  0.37331689  0.61751425  0.88047397  1
  O  O354  1  0.86892847  0.11527775  0.36508982  1
  O  O355  1  0.86695724  0.12101649  0.86988529  1
  O  O356  1  0.87428319  0.62078733  0.36772136  1
  O  O357  1  0.86935040  0.62155871  0.87239387  1
  O  O358  1  0.11902236  0.38799103  0.12685526  1
  O  O359  1  0.13232996  0.38139998  0.63013170  1
  O  O360  1  0.12721629  0.88908242  0.12622040  1
  O  O361  1  0.13095584  0.86420545  0.61547059  1
  O  O362  1  0.62902390  0.38251873  0.13286096  1
  O  O363  1  0.61312911  0.38476000  0.63821452  1
  O  O364  1  0.61675325  0.88993261  0.11827946  1
  O  O365  1  0.62067121  0.88936792  0.61872556  1
  O  O366  1  0.13564724  0.27327952  0.24070272  1
  O  O367  1  0.13351004  0.26203585  0.75867078  1
  O  O368  1  0.11625330  0.74943458  0.25441106  1
  O  O369  1  0.09546899  0.72889269  0.73929388  1
  O  O370  1  0.61016864  0.24600919  0.24593819  1
  O  O371  1  0.61809698  0.25724662  0.75629560  1
  O  O372  1  0.61761461  0.74435489  0.25204701  1
  O  O373  1  0.61600260  0.75558786  0.74211932  1
  O  O374  1  0.37579897  0.25749800  0.23546849  1
  O  O375  1  0.37820919  0.24346590  0.74595580  1
  O  O376  1  0.36540485  0.75601813  0.23126806  1
  O  O377  1  0.38923686  0.74821687  0.73383862  1
  O  O378  1  0.87686569  0.23431450  0.24134964  1
  O  O379  1  0.87163816  0.23949176  0.74599417  1
  O  O380  1  0.88828263  0.74056376  0.24666058  1
  O  O381  1  0.86910407  0.73120443  0.73854108  1
  O  O382  1  0.36714765  0.48630592  0.50110928  1
  O  O383  1  0.38775497  0.48855795  1.00913407  1
  O  O384  1  0.38194566  0.99031889  0.50484099  1
  O  O385  1  0.36828508  0.98689536  0.99343628  1
  O  O386  1  0.87779369  0.48696487  0.49669097  1
  O  O387  1  0.88341219  0.48444247  1.00704008  1
  O  O388  1  0.86696354  0.99366109  0.48573275  1
  O  O389  1  0.89189325  1.01257504  0.98944038  1
  O  O390  1  0.12483782  0.00784926  0.00619451  1
  O  O391  1  0.12927911  0.01605470  0.49618875  1
  O  O392  1  0.11730987  0.50717403  0.00467904  1
  O  O393  1  0.12733256  0.50464371  0.51217922  1
  O  O394  1  0.62294504  0.01186563  0.01376361  1
  O  O395  1  0.61648804  0.01029063  0.50998074  1
  O  O396  1  0.61031400  0.49382834  0.01163941  1
  O  O397  1  0.63958024  0.50936795  0.51346577  1
  O  O398  1  0.37908815  0.36254538  0.10991138  1
  O  O399  1  0.36458285  0.37197726  0.61820551  1
  O  O400  1  0.37608277  0.87388393  0.10747302  1
  O  O401  1  0.37552243  0.86139238  0.61980975  1
  O  O402  1  0.87347966  0.36278371  0.11260484  1
  O  O403  1  0.88394820  0.36773620  0.61560249  1
  O  O404  1  0.88676071  0.86292367  0.13286571  1
  O  O405  1  0.87776606  0.88457192  0.60914739  1
  O  O406  1  0.13430724  0.12632889  0.38825316  1
  O  O407  1  0.13423918  0.13233867  0.87856621  1
  O  O408  1  0.12866980  0.63317202  0.38125804  1
  O  O409  1  0.11994704  0.62328309  0.88494966  1
  O  O410  1  0.64185532  0.12209341  0.37227523  1
  O  O411  1  0.62614977  0.13025893  0.88077997  1
  O  O412  1  0.64380250  0.61092322  0.38793469  1
  O  O413  1  0.62213650  0.63918348  0.88582768  1
