# generated using pymatgen
data_V79Zn79O256
_symmetry_space_group_name_H-M   'P 1'
_cell_length_a   16.87686896
_cell_length_b   16.90955518
_cell_length_c   16.90904453
_cell_angle_alpha   90.10612036
_cell_angle_beta   89.92484084
_cell_angle_gamma   89.86777543
_symmetry_Int_Tables_number   1
_chemical_formula_structural   V79Zn79O256
_chemical_formula_sum   'V79 Zn79 O256'
_cell_volume   4825.48369072
_cell_formula_units_Z   1
loop_
 _symmetry_equiv_pos_site_id
 _symmetry_equiv_pos_as_xyz
  1  'x, y, z'
loop_
 _atom_site_type_symbol
 _atom_site_label
 _atom_site_symmetry_multiplicity
 _atom_site_fract_x
 _atom_site_fract_y
 _atom_site_fract_z
 _atom_site_occupancy
  V  V0  1  0.24828121  0.11783519  0.37682460  1
  V  V1  1  0.50992559  0.61972358  0.62979844  1
  V  V2  1  0.12293432  0.62566071  0.00210178  1
  V  V3  1  0.38430324  0.23117858  0.62529028  1
  V  V4  1  0.00735213  0.22786399  0.73992676  1
  V  V5  1  0.37790297  0.37289078  0.50788172  1
  V  V6  1  0.74924422  0.37365964  0.11677952  1
  V  V7  1  0.24970668  0.24582804  0.50310769  1
  V  V8  1  0.86924819  0.75037761  0.12588413  1
  V  V9  1  0.13162573  0.23830332  0.88807967  1
  V  V10  1  0.63954475  0.87472074  0.73863046  1
  V  V11  1  0.50586384  0.36942230  0.37753133  1
  V  V12  1  0.25293068  0.74994245  0.00405700  1
  V  V13  1  0.87448102  0.62767943  0.25049044  1
  V  V14  1  0.48775582  0.00187226  -0.01234886  1
  V  V15  1  -0.00436324  0.74291859  0.74977206  1
  V  V16  1  -0.00130139  0.62427927  0.62020654  1
  V  V17  1  0.87105485  0.37374623  0.50793708  1
  V  V18  1  0.37388703  0.62515692  0.74875279  1
  V  V19  1  -0.00085440  0.87372116  0.87465690  1
  V  V20  1  0.37097634  0.49868189  0.37748316  1
  V  V21  1  0.00661330  0.00351581  0.00251845  1
  V  V22  1  0.24408237  0.74987290  0.49998677  1
  V  V23  1  0.24736380  0.87029492  0.12851585  1
  V  V24  1  0.36529035  0.37019901  -0.00146927  1
  V  V25  1  0.25665689  0.37736602  0.14148293  1
  V  V26  1  0.49245831  0.24914092  0.23900383  1
  V  V27  1  0.38659562  0.87388914  0.50147104  1
  V  V28  1  0.61263873  0.87349675  0.25789383  1
  V  V29  1  0.86854151  0.01342132  0.87247993  1
  V  V30  1  0.74484387  0.49713719  0.24471406  1
  V  V31  1  0.13261611  0.50263023  0.13352894  1
  V  V32  1  0.38153645  0.12249395  0.25212383  1
  V  V33  1  0.13159366  0.87238148  0.74677437  1
  V  V34  1  0.50410261  0.75474553  0.74738535  1
  V  V35  1  0.87349607  0.76469334  0.61952408  1
  V  V36  1  0.00683442  0.49831167  0.49410651  1
  V  V37  1  0.63366155  0.39285066  0.73973058  1
  V  V38  1  0.61321073  0.01646645  0.61991571  1
  V  V39  1  0.00727109  0.11838719  0.12312853  1
  V  V40  1  0.87881982  0.48970098  0.37182281  1
  V  V41  1  0.50748302  0.49683960  0.50605178  1
  V  V42  1  0.87327734  0.24922662  0.12233215  1
  V  V43  1  0.12166092  0.25108509  0.37031535  1
  V  V44  1  0.37522494  0.12144090  0.77262684  1
  V  V45  1  0.12843215  0.49899804  0.62280195  1
  V  V46  1  0.11509491  0.87400595  0.25357763  1
  V  V47  1  0.24586906  0.49233482  0.74892111  1
  V  V48  1  -0.00467441  0.48687590  0.00369184  1
  V  V49  1  0.38480764  0.74837749  0.13226976  1
  V  V50  1  0.62456366  0.36794471  0.24982141  1
  V  V51  1  0.64140805  0.75151863  0.87892375  1
  V  V52  1  0.00567319  0.37639032  0.85321785  1
  V  V53  1  0.13231706  -0.00001715  0.62684971  1
  V  V54  1  0.86839612  0.87201780  -0.00093738  1
  V  V55  1  0.37653045  0.61652049  0.25005458  1
  V  V56  1  0.76396922  0.61676656  0.86105038  1
  V  V57  1  0.75267288  0.24694162  -0.01670308  1
  V  V58  1  0.75584150  0.01800717  0.74271295  1
  V  V59  1  0.24674271  0.62323420  0.87483986  1
  V  V60  1  0.50808293  0.36573099  0.87614415  1
  V  V61  1  0.24495792  -0.00544095  0.25102774  1
  V  V62  1  0.00361955  0.25336445  0.25014952  1
  V  V63  1  0.61538291  0.01330067  0.11759751  1
  V  V64  1  0.36895176  0.75384942  0.62572056  1
  V  V65  1  -0.00416874  -0.00970354  0.50234086  1
  V  V66  1  -0.00276582  0.63213096  0.12687863  1
  V  V67  1  0.63062339  0.62532281  0.49129671  1
  V  V68  1  0.38693203  -0.01123897  0.38043925  1
  V  V69  1  0.87572458  0.23549661  0.62720684  1
  V  V70  1  0.75238934  0.76687239  0.49493632  1
  V  V71  1  0.74121553  0.23912908  0.48977828  1
  V  V72  1  0.11831353  0.74418382  0.37425295  1
  V  V73  1  0.37689019  0.50147399  0.88142112  1
  V  V74  1  0.74612600  0.01307454  0.25272575  1
  V  V75  1  0.11778798  0.12286251  0.50776485  1
  V  V76  1  0.62887437  0.13205781  -0.02218949  1
  V  V77  1  0.25464844  0.00078614  0.76777832  1
  V  V78  1  0.74192011  0.87655460  0.12081905  1
  Zn  Zn79  1  0.24488859  0.61652750  0.37745496  1
  Zn  Zn80  1  0.87371613  0.49630204  0.87616880  1
  Zn  Zn81  1  0.24440963  0.36711252  0.63185427  1
  Zn  Zn82  1  0.51850321  0.23955242  0.75186058  1
  Zn  Zn83  1  0.55366132  0.57845197  0.03122609  1
  Zn  Zn84  1  0.74916638  0.62653798  0.37356982  1
  Zn  Zn85  1  0.51326335  0.73748947  0.28515381  1
  Zn  Zn86  1  0.86971159  0.12940193  0.25869192  1
  Zn  Zn87  1  0.12672709  0.38380922  0.25888188  1
  Zn  Zn88  1  0.35266440  0.21272956  0.09854361  1
  Zn  Zn89  1  -0.01482153  0.86743840  0.38031199  1
  Zn  Zn90  1  0.49104861  0.88003126  0.87252605  1
  Zn  Zn91  1  0.68984597  0.68518777  0.03685311  1
  Zn  Zn92  1  0.86359925  -0.00022175  0.38585264  1
  Zn  Zn93  1  0.12263730  0.74821588  0.87542160  1
  Zn  Zn94  1  0.19788505  0.17577415  0.16832847  1
  Zn  Zn95  1  0.19022559  0.18356345  0.69450527  1
  Zn  Zn96  1  0.19076061  0.68519410  0.19553585  1
  Zn  Zn97  1  0.18317062  0.68244997  0.68502647  1
  Zn  Zn98  1  0.67972888  0.19414303  0.18054313  1
  Zn  Zn99  1  0.69100343  0.19839110  0.68473511  1
  Zn  Zn100  1  0.68691510  0.69142263  0.19705563  1
  Zn  Zn101  1  0.69485059  0.68488452  0.68200734  1
  Zn  Zn102  1  0.31084758  0.31299874  0.31598613  1
  Zn  Zn103  1  0.31159419  0.30688987  0.81417949  1
  Zn  Zn104  1  0.31322475  0.80613337  0.31474915  1
  Zn  Zn105  1  0.31469713  0.81418284  0.82073838  1
  Zn  Zn106  1  0.81355880  0.30990262  0.31226687  1
  Zn  Zn107  1  0.81809964  0.31893598  0.80249285  1
  Zn  Zn108  1  0.80505916  0.82031945  0.31213856  1
  Zn  Zn109  1  0.81698159  0.81691770  0.80655145  1
  Zn  Zn110  1  0.18813548  0.43277329  0.44251252  1
  Zn  Zn111  1  0.18500291  0.43158351  0.93875425  1
  Zn  Zn112  1  0.18899624  0.92883068  0.44091559  1
  Zn  Zn113  1  0.18780213  0.93441882  0.94063455  1
  Zn  Zn114  1  0.69098892  0.43632221  0.43451738  1
  Zn  Zn115  1  0.68854875  0.44055682  0.92626805  1
  Zn  Zn116  1  0.67877735  0.94498621  0.43765782  1
  Zn  Zn117  1  0.68361293  0.93904253  0.93054370  1
  Zn  Zn118  1  0.30478763  0.05300671  0.06030119  1
  Zn  Zn119  1  0.30777766  0.05251356  0.56618660  1
  Zn  Zn120  1  0.31681893  0.56398270  0.06427491  1
  Zn  Zn121  1  0.31357277  0.56640352  0.56289629  1
  Zn  Zn122  1  0.81244492  0.06537753  0.06312504  1
  Zn  Zn123  1  0.80902515  0.06459481  0.56212433  1
  Zn  Zn124  1  0.80646516  0.55807016  0.05549447  1
  Zn  Zn125  1  0.82151323  0.56752945  0.56474703  1
  Zn  Zn126  1  0.43998178  0.43977119  0.18542561  1
  Zn  Zn127  1  0.44057471  0.43579930  0.69519276  1
  Zn  Zn128  1  0.43335992  0.93959003  0.18189263  1
  Zn  Zn129  1  0.43824091  0.93940598  0.68614658  1
  Zn  Zn130  1  0.93626265  0.43510215  0.18460232  1
  Zn  Zn131  1  0.94304270  0.43295444  0.67712410  1
  Zn  Zn132  1  0.93019216  0.93780640  0.19072831  1
  Zn  Zn133  1  0.94221430  0.94375984  0.68648293  1
  Zn  Zn134  1  0.05517146  0.06469712  0.31575439  1
  Zn  Zn135  1  0.06409982  0.05937968  0.81671657  1
  Zn  Zn136  1  0.05747380  0.56644718  0.31293294  1
  Zn  Zn137  1  0.06351198  0.56072329  0.81172917  1
  Zn  Zn138  1  0.56349314  0.05967845  0.31266610  1
  Zn  Zn139  1  0.56207406  0.06004819  0.80535712  1
  Zn  Zn140  1  0.56339420  0.56770877  0.19455651  1
  Zn  Zn141  1  0.55732462  0.57051911  0.84418380  1
  Zn  Zn142  1  0.43765886  0.18556447  0.42987920  1
  Zn  Zn143  1  0.44505371  0.18895880  0.94343236  1
  Zn  Zn144  1  0.43957632  0.68241363  0.43959092  1
  Zn  Zn145  1  0.43388378  0.70913951  0.92718397  1
  Zn  Zn146  1  0.93320836  0.18221860  0.43508551  1
  Zn  Zn147  1  0.94334463  0.19430641  0.93731522  1
  Zn  Zn148  1  0.93465470  0.68368416  0.43941471  1
  Zn  Zn149  1  0.92946236  0.68386855  0.93866448  1
  Zn  Zn150  1  0.07141171  0.30978313  0.07077241  1
  Zn  Zn151  1  0.06008430  0.31575204  0.56059849  1
  Zn  Zn152  1  0.06030936  0.81539451  0.06575482  1
  Zn  Zn153  1  0.06490112  0.81282648  0.56587187  1
  Zn  Zn154  1  0.56416023  0.41886679  0.05730111  1
  Zn  Zn155  1  0.57256562  0.31545385  0.57960521  1
  Zn  Zn156  1  0.55739322  0.82175298  0.06030801  1
  Zn  Zn157  1  0.56734520  0.81203745  0.56009438  1
  O  O158  1  0.10560293  0.11924879  0.12856305  1
  O  O159  1  0.13420309  0.11590818  0.61614351  1
  O  O160  1  0.11738461  0.62261439  0.12323247  1
  O  O161  1  0.11348642  0.61398447  0.62275327  1
  O  O162  1  0.62255204  0.11487329  0.11731112  1
  O  O163  1  0.62661165  0.11538159  0.63609931  1
  O  O164  1  0.62019962  0.63858372  0.11715593  1
  O  O165  1  0.61435978  0.62672308  0.62122495  1
  O  O166  1  0.38012714  0.37705742  0.38977456  1
  O  O167  1  0.36715343  0.38095720  0.88650687  1
  O  O168  1  0.37098252  0.88206061  0.38490001  1
  O  O169  1  0.39900100  0.81588517  0.89223541  1
  O  O170  1  0.87717000  0.38506477  0.37989502  1
  O  O171  1  0.89701821  0.38292065  0.86349101  1
  O  O172  1  0.87806413  0.89071818  0.35767897  1
  O  O173  1  0.88317865  0.87908720  0.88180830  1
  O  O174  1  0.25308354  0.00369212  0.37100645  1
  O  O175  1  0.24704056  -0.00015604  0.86793725  1
  O  O176  1  0.26532739  0.49769597  0.38734428  1
  O  O177  1  0.25146177  0.50386528  0.86809845  1
  O  O178  1  0.74065917  -0.00024996  0.35562374  1
  O  O179  1  0.76323833  -0.00216703  0.86631080  1
  O  O180  1  0.76101350  0.50142100  0.36272111  1
  O  O181  1  0.75710647  0.51138089  0.86894310  1
  O  O182  1  0.23945571  0.49804305  0.12270375  1
  O  O183  1  0.24482780  0.50233582  0.63071578  1
  O  O184  1  0.25768322  0.98217641  0.14059588  1
  O  O185  1  0.23940227  0.99558932  0.63850815  1
  O  O186  1  0.76433346  0.48623067  0.13421313  1
  O  O187  1  0.79368829  0.50602875  0.66658167  1
  O  O188  1  0.73592119  0.99546145  0.12792196  1
  O  O189  1  0.74983821  1.00373547  0.64003539  1
  O  O190  1  0.00783722  0.35826372  0.23760539  1
  O  O191  1  0.01144457  0.38304088  0.75307274  1
  O  O192  1  0.01333349  0.88248233  0.24894698  1
  O  O193  1  0.00822971  0.86928555  0.75855747  1
  O  O194  1  0.50365458  0.37028358  0.25708651  1
  O  O195  1  0.50225648  0.36749406  0.76149131  1
  O  O196  1  0.51179891  0.87966986  0.24062302  1
  O  O197  1  0.50808903  0.86818341  0.74991634  1
  O  O198  1  0.49286070  0.13722223  0.26785497  1
  O  O199  1  0.48016428  0.12654896  0.75744597  1
  O  O200  1  0.48555521  0.63015785  0.25241096  1
  O  O201  1  0.49440809  0.63164540  0.74430309  1
  O  O202  1  0.99695409  0.12985483  0.23811391  1
  O  O203  1  0.99965351  0.12942098  0.74670414  1
  O  O204  1  0.98586754  0.62148658  0.23761008  1
  O  O205  1  1.00733883  0.63643765  0.74273922  1
  O  O206  1  0.37657840  0.26599339  -0.00030814  1
  O  O207  1  0.37096875  0.24931959  0.50777479  1
  O  O208  1  0.35782472  0.73118979  0.02177222  1
  O  O209  1  0.36892727  0.75829644  0.50752655  1
  O  O210  1  0.86292568  0.24195469  0.00902439  1
  O  O211  1  0.87989480  0.26030526  0.50525792  1
  O  O212  1  0.87806905  0.76283000  0.00992110  1
  O  O213  1  0.86650883  0.74925677  0.50852503  1
  O  O214  1  0.13114607  0.24290164  0.49549625  1
  O  O215  1  0.11586352  0.24862639  0.98798558  1
  O  O216  1  0.13644474  0.75583583  0.49244843  1
  O  O217  1  0.12963962  0.73916842  1.00465163  1
  O  O218  1  0.64410490  0.26089160  0.51067381  1
  O  O219  1  0.63890788  0.23527870  0.99320362  1
  O  O220  1  0.64356013  0.73806815  0.51233429  1
  O  O221  1  0.62431038  0.76418513  0.98152568  1
  O  O222  1  0.47213515  0.25156023  0.14247986  1
  O  O223  1  0.48493168  0.24882073  0.62620629  1
  O  O224  1  0.48317368  0.75414234  0.11554821  1
  O  O225  1  0.49520440  0.74254154  0.63140337  1
  O  O226  1  0.99462017  0.23832395  0.12849802  1
  O  O227  1  0.99709510  0.25213007  0.63422403  1
  O  O228  1  0.98751605  0.74077144  0.12169397  1
  O  O229  1  0.99602772  0.74447589  0.62862190  1
  O  O230  1  0.01186814  0.23952400  0.36402112  1
  O  O231  1  0.00073573  0.26030177  0.85803099  1
  O  O232  1  0.01398709  0.75104467  0.38713464  1
  O  O233  1  -0.00296712  0.75735798  0.86890244  1
  O  O234  1  0.49500092  0.26638123  0.37213462  1
  O  O235  1  0.48767932  0.26258028  0.86794948  1
  O  O236  1  0.49240934  0.76345978  0.38925706  1
  O  O237  1  0.52936678  0.74354937  0.85047814  1
  O  O238  1  0.24402274  0.12789371  0.49407868  1
  O  O239  1  0.25695373  0.14970740  1.06893623  1
  O  O240  1  0.26063138  0.64286544  0.49461262  1
  O  O241  1  0.23867509  0.62887733  0.99841260  1
  O  O242  1  0.75199683  0.13855272  0.49824060  1
  O  O243  1  0.74136868  0.13365399  0.99995867  1
  O  O244  1  0.73887724  0.61840765  0.50320065  1
  O  O245  1  0.76614109  0.62973829  0.97897446  1
  O  O246  1  0.25964659  0.37798174  0.01077900  1
  O  O247  1  0.26039578  0.35993759  0.50220609  1
  O  O248  1  0.23902337  0.86192442  0.01380758  1
  O  O249  1  0.26139681  0.85831402  0.49931748  1
  O  O250  1  0.74226364  0.35848835  0.00699348  1
  O  O251  1  0.76719591  0.37240171  0.49655305  1
  O  O252  1  0.75809292  0.88570950  0.00796173  1
  O  O253  1  0.74461852  0.86477621  0.49516733  1
  O  O254  1  0.11537687  0.50073461  0.23879275  1
  O  O255  1  0.13639767  0.50570118  0.74003484  1
  O  O256  1  0.13483483  0.98684412  0.26084125  1
  O  O257  1  0.13479707  0.99367213  0.74876998  1
  O  O258  1  0.63926945  0.49351931  0.24714396  1
  O  O259  1  0.61187633  0.48806758  0.77521920  1
  O  O260  1  0.62633095  0.99717632  0.23536739  1
  O  O261  1  0.63834498  0.99291890  0.74609634  1
  O  O262  1  0.36753073  -0.00138204  0.26598872  1
  O  O263  1  0.36504543  0.00696939  0.75196151  1
  O  O264  1  0.38134033  0.50923273  0.26059053  1
  O  O265  1  0.36488314  0.50706126  0.75541204  1
  O  O266  1  0.84993990  0.00501532  0.23748573  1
  O  O267  1  0.86739956  -0.00460585  0.76036683  1
  O  O268  1  0.87077008  0.50521537  0.25423426  1
  O  O269  1  0.85333382  0.50128016  0.71647640  1
  O  O270  1  0.13596746  0.35662619  0.37312920  1
  O  O271  1  0.10893153  0.36558444  0.88118073  1
  O  O272  1  0.12258992  0.86455624  0.36636301  1
  O  O273  1  0.11305621  0.87270741  0.86930696  1
  O  O274  1  0.61708605  0.38278732  0.36165008  1
  O  O275  1  0.60881840  0.36792802  0.87794572  1
  O  O276  1  0.62148272  0.88859121  0.35616163  1
  O  O277  1  0.62520257  0.86746281  0.85881565  1
  O  O278  1  0.38391368  0.10794921  0.15218157  1
  O  O279  1  0.37594096  0.13030253  0.61841239  1
  O  O280  1  0.37047355  0.63212773  0.14075993  1
  O  O281  1  0.38549270  0.63546054  0.62861282  1
  O  O282  1  0.87627340  0.13657840  0.13220930  1
  O  O283  1  0.88449719  0.13717573  0.61814820  1
  O  O284  1  0.87756133  0.63145564  0.12892916  1
  O  O285  1  0.89199872  0.63898416  0.62310866  1
  O  O286  1  0.25884046  0.27594563  0.14495372  1
  O  O287  1  0.25756246  0.24597853  0.61573921  1
  O  O288  1  0.25354152  0.75359533  0.12372853  1
  O  O289  1  0.25827825  0.74257897  0.61573524  1
  O  O290  1  0.75611389  0.25632301  0.12025806  1
  O  O291  1  0.77150431  0.24740251  0.61371741  1
  O  O292  1  0.75284960  0.75966885  0.11968764  1
  O  O293  1  0.76730133  0.74914840  0.61602480  1
  O  O294  1  0.24632039  0.23687458  0.38467200  1
  O  O295  1  0.23016430  0.25344275  0.87038119  1
  O  O296  1  0.23992037  0.74905191  0.38589959  1
  O  O297  1  0.24410432  0.74191482  0.88780763  1
  O  O298  1  0.75362069  0.25408633  0.38943152  1
  O  O299  1  0.76554185  0.25351790  0.88600889  1
  O  O300  1  0.75905848  0.74543696  0.39115414  1
  O  O301  1  0.74633639  0.75228458  0.87020450  1
  O  O302  1  -0.00977585  0.11809759  0.01374444  1
  O  O303  1  0.01460358  0.11615801  0.49772002  1
  O  O304  1  0.00610553  0.61999106  0.00862523  1
  O  O305  1  -0.00578194  0.61006294  0.50645703  1
  O  O306  1  0.51671293  0.11504701  -0.00674912  1
  O  O307  1  0.53877958  0.12787447  0.46706261  1
  O  O308  1  0.50063564  0.61907767  -0.05601398  1
  O  O309  1  0.51145535  0.61743094  0.50898884  1
  O  O310  1  0.49676975  0.37766395  0.49973224  1
  O  O311  1  0.48317505  0.37647539  0.98493143  1
  O  O312  1  0.48625394  0.87244050  0.50417419  1
  O  O313  1  0.50756506  0.89853440  0.99402092  1
  O  O314  1  0.98919042  0.38801859  0.50101148  1
  O  O315  1  1.00437336  0.38691853  1.00856948  1
  O  O316  1  1.00657654  0.88627603  0.50059189  1
  O  O317  1  0.99053893  0.88104640  0.99545852  1
  O  O318  1  0.48648460  0.48500341  0.39247141  1
  O  O319  1  0.47925262  0.47948830  0.86444822  1
  O  O320  1  0.48511022  0.99726651  0.37527126  1
  O  O321  1  0.49937278  0.99938352  0.88201186  1
  O  O322  1  0.99100680  0.50518428  0.38191275  1
  O  O323  1  1.00700986  0.48946801  0.88661041  1
  O  O324  1  1.00959031  0.99574605  0.39554668  1
  O  O325  1  0.98905439  0.99094528  0.87917150  1
  O  O326  1  -0.01387289  0.01116663  0.11788473  1
  O  O327  1  0.01781088  -0.00331838  0.61588664  1
  O  O328  1  0.00528967  0.50827612  0.11642436  1
  O  O329  1  0.00786283  0.50639970  0.61650593  1
  O  O330  1  0.51106675  -0.00186324  0.11323547  1
  O  O331  1  0.51282903  0.00445853  0.63232037  1
  O  O332  1  0.50537108  0.50330349  0.11802365  1
  O  O333  1  0.48895340  0.50886642  0.61623838  1
  O  O334  1  0.25603965  0.38885026  0.24576169  1
  O  O335  1  0.25946267  0.38817872  0.74708801  1
  O  O336  1  0.24209856  0.87739716  0.24919318  1
  O  O337  1  0.24329465  0.88378354  0.76234363  1
  O  O338  1  0.74350803  0.37767261  0.24394943  1
  O  O339  1  0.73391574  0.38039522  0.76013897  1
  O  O340  1  0.73527172  0.88489804  0.23649532  1
  O  O341  1  0.74198023  0.88225666  0.74696950  1
  O  O342  1  0.25645035  0.11363007  0.26045965  1
  O  O343  1  0.25975165  0.10924584  0.75028932  1
  O  O344  1  0.26886783  0.63091716  0.26053182  1
  O  O345  1  0.25349651  0.61936206  0.75501494  1
  O  O346  1  0.73806823  0.11548472  0.24429544  1
  O  O347  1  0.75050969  0.11616785  0.75131691  1
  O  O348  1  0.75771594  0.61558092  0.24896569  1
  O  O349  1  0.75531725  0.63324083  0.76148399  1
  O  O350  1  0.36603018  0.10801352  0.37811767  1
  O  O351  1  0.36818489  0.13275679  0.86992397  1
  O  O352  1  0.37714287  0.61368067  0.36975735  1
  O  O353  1  0.36317622  0.61897377  0.86716905  1
  O  O354  1  0.88076375  0.11006846  0.36939125  1
  O  O355  1  0.88174170  0.11089237  0.87874790  1
  O  O356  1  0.87451992  0.61707268  0.36339272  1
  O  O357  1  0.87327858  0.61759171  0.86612408  1
  O  O358  1  0.14143891  0.38340221  0.12933948  1
  O  O359  1  0.12831688  0.39141454  0.61811093  1
  O  O360  1  0.13285977  0.86409796  0.14353132  1
  O  O361  1  0.12412069  0.88005605  0.64095071  1
  O  O362  1  0.63696341  0.37364803  0.13775482  1
  O  O363  1  0.61918169  0.40090399  0.63853472  1
  O  O364  1  0.62996396  0.88588716  0.12561279  1
  O  O365  1  0.62180527  0.88472616  0.63679942  1
  O  O366  1  0.12195225  0.24290184  0.25688593  1
  O  O367  1  0.11105946  0.24499701  0.75299614  1
  O  O368  1  0.12836432  0.76018446  0.26466610  1
  O  O369  1  0.11731167  0.75673353  0.75105318  1
  O  O370  1  0.61067060  0.26001944  0.24491682  1
  O  O371  1  0.62387948  0.27364422  0.73352793  1
  O  O372  1  0.62161834  0.76747423  0.24933258  1
  O  O373  1  0.62717502  0.76377235  0.74328695  1
  O  O374  1  0.37808864  0.23372414  0.26648731  1
  O  O375  1  0.36357977  0.23197346  0.73641576  1
  O  O376  1  0.38083222  0.74244229  0.24336289  1
  O  O377  1  0.38214117  0.74702297  0.74072536  1
  O  O378  1  0.88511400  0.24919010  0.24346627  1
  O  O379  1  0.88873546  0.25423137  0.73431484  1
  O  O380  1  0.86199334  0.74067194  0.23706304  1
  O  O381  1  0.88748026  0.75763271  0.73592899  1
  O  O382  1  0.38218324  0.49014267  0.49993571  1
  O  O383  1  0.36749256  0.49386932  0.98843418  1
  O  O384  1  0.36747192  0.98482973  0.49237510  1
  O  O385  1  0.38821714  1.00842318  1.00144643  1
  O  O386  1  0.87935103  0.49075705  0.49364505  1
  O  O387  1  0.89344639  0.50122790  0.99949989  1
  O  O388  1  0.89321635  1.00340833  0.50831043  1
  O  O389  1  0.87882413  0.99217012  0.98909584  1
  O  O390  1  0.10634504  -0.00603645  -0.00358322  1
  O  O391  1  0.12648732  0.00410334  0.50891667  1
  O  O392  1  0.11703525  0.50936913  0.01038772  1
  O  O393  1  0.11671447  0.49802305  0.50323891  1
  O  O394  1  0.62594266  0.01106783  0.00525518  1
  O  O395  1  0.63276969  -0.00059686  0.52193414  1
  O  O396  1  0.62957622  0.49580189  0.00316566  1
  O  O397  1  0.61698821  0.50917129  0.49528118  1
  O  O398  1  0.36408615  0.38972672  0.11321349  1
  O  O399  1  0.37418837  0.36353689  0.61635997  1
  O  O400  1  0.36207232  0.85798453  0.13464114  1
  O  O401  1  0.37789385  0.86530844  0.61588745  1
  O  O402  1  0.86462605  0.36088401  0.12869190  1
  O  O403  1  0.87770301  0.36707288  0.61091013  1
  O  O404  1  0.86445651  0.86924030  0.11990427  1
  O  O405  1  0.88462855  0.86367391  0.62303930  1
  O  O406  1  0.13422674  0.12931122  0.38352579  1
  O  O407  1  0.11660333  0.13794527  0.87662230  1
  O  O408  1  0.12680811  0.63959145  0.36733096  1
  O  O409  1  0.12669912  0.62462143  0.88732304  1
  O  O410  1  0.59496223  0.12113182  0.41479832  1
  O  O411  1  0.62948111  0.12141194  0.87881234  1
  O  O412  1  0.62660039  0.63129440  0.39274370  1
  O  O413  1  0.64725820  0.64405641  0.87084888  1
