# generated using pymatgen
data_V79Zn79O256
_symmetry_space_group_name_H-M   'P 1'
_cell_length_a   16.84703892
_cell_length_b   16.85329410
_cell_length_c   16.85693046
_cell_angle_alpha   90.06384709
_cell_angle_beta   89.94393636
_cell_angle_gamma   90.05444133
_symmetry_Int_Tables_number   1
_chemical_formula_structural   V79Zn79O256
_chemical_formula_sum   'V79 Zn79 O256'
_cell_volume   4786.14884446
_cell_formula_units_Z   1
loop_
 _symmetry_equiv_pos_site_id
 _symmetry_equiv_pos_as_xyz
  1  'x, y, z'
loop_
 _atom_site_type_symbol
 _atom_site_label
 _atom_site_symmetry_multiplicity
 _atom_site_fract_x
 _atom_site_fract_y
 _atom_site_fract_z
 _atom_site_occupancy
  V  V0  1  0.12519298  0.24998177  0.37135605  1
  V  V1  1  0.24885563  0.24486863  0.49519864  1
  V  V2  1  0.49835035  0.38791822  0.36599513  1
  V  V3  1  0.75494552  0.25272546  0.51007554  1
  V  V4  1  0.24900301  0.12860120  0.87369027  1
  V  V5  1  0.01359624  0.62158252  0.10866421  1
  V  V6  1  0.38391010  0.63612593  0.25589022  1
  V  V7  1  0.63155308  0.00206376  0.13189944  1
  V  V8  1  0.62305984  0.87586523  0.25285161  1
  V  V9  1  0.48413255  0.62101017  0.62379014  1
  V  V10  1  0.37499110  0.00149722  0.87338314  1
  V  V11  1  0.88647499  0.62378933  0.74253406  1
  V  V12  1  0.49706857  0.12598540  0.14127620  1
  V  V13  1  0.49554531  0.49603905  -0.00984271  1
  V  V14  1  0.62155196  0.62401441  0.50852132  1
  V  V15  1  0.86737443  0.00064150  0.86777435  1
  V  V16  1  0.36861518  0.61951282  0.77476684  1
  V  V17  1  0.38603689  0.12423018  0.74198856  1
  V  V18  1  0.61620712  0.25341845  0.36166755  1
  V  V19  1  -0.00257894  0.87923661  0.37714815  1
  V  V20  1  0.38566450  0.24083054  0.62088069  1
  V  V21  1  0.37092619  0.01068018  0.37000343  1
  V  V22  1  0.37416452  0.87219202  0.00379477  1
  V  V23  1  0.25267259  0.75735280  0.51561160  1
  V  V24  1  0.87236732  0.11729582  0.24725500  1
  V  V25  1  0.63814727  0.87396798  0.74718219  1
  V  V26  1  0.62690800  -0.00792576  0.63084159  1
  V  V27  1  0.12265679  0.37365094  0.74679244  1
  V  V28  1  0.50203267  0.00511017  0.00225424  1
  V  V29  1  0.86943110  0.38077876  0.51053968  1
  V  V30  1  0.38069021  0.24886494  0.13857484  1
  V  V31  1  0.62951914  0.62524839  -0.00150390  1
  V  V32  1  0.38049919  0.39500380  0.49995806  1
  V  V33  1  0.25297514  0.01714634  0.25068403  1
  V  V34  1  0.25235525  0.62604214  0.37950114  1
  V  V35  1  0.24773403  0.73900090  -0.00027358  1
  V  V36  1  0.62901818  0.74928494  0.87683749  1
  V  V37  1  0.87436920  0.12234969  0.73360736  1
  V  V38  1  0.49984736  0.87572351  0.87400827  1
  V  V39  1  0.12598728  0.00650359  0.11963278  1
  V  V40  1  0.74848534  0.12245500  0.36997490  1
  V  V41  1  -0.00233550  0.24524851  0.72690724  1
  V  V42  1  0.37378176  0.87523258  0.51186314  1
  V  V43  1  0.62715219  0.48740367  0.12640616  1
  V  V44  1  0.49057719  0.74887772  0.74867520  1
  V  V45  1  0.37609505  0.37846775  -0.00672609  1
  V  V46  1  0.74633120  0.48606784  0.74702913  1
  V  V47  1  0.24997054  0.49785392  0.24982626  1
  V  V48  1  0.25398177  0.87306749  0.12569429  1
  V  V49  1  0.25430450  0.24849602  -0.00382508  1
  V  V50  1  0.11625677  0.24900945  0.87895855  1
  V  V51  1  0.61648898  0.12695484  0.51056516  1
  V  V52  1  0.74448436  0.75225910  0.51362701  1
  V  V53  1  0.87042684  0.86831757  -0.00246843  1
  V  V54  1  -0.00061079  0.24892671  0.24600744  1
  V  V55  1  0.11604916  0.12689285  0.50080702  1
  V  V56  1  0.76280225  0.25494767  -0.00061842  1
  V  V57  1  -0.00624619  0.38268360  0.36863438  1
  V  V58  1  0.00383426  0.87115893  0.86891987  1
  V  V59  1  0.12854683  0.87349842  0.74534464  1
  V  V60  1  -0.00188883  0.74840596  0.24507400  1
  V  V61  1  0.49655338  0.63474447  0.13129174  1
  V  V62  1  0.75026219  0.62572613  0.87239005  1
  V  V63  1  0.24856000  0.37933711  0.62330560  1
  V  V64  1  0.61527677  0.74931891  0.37327786  1
  V  V65  1  0.25035952  -0.00336621  0.74151213  1
  V  V66  1  0.88359750  0.48969926  0.88894631  1
  V  V67  1  0.89353370  0.74757904  0.62607979  1
  V  V68  1  0.61355215  0.26691886  0.86567917  1
  V  V69  1  0.12770857  0.73767663  0.87408359  1
  V  V70  1  0.00381363  0.50375372  0.51522116  1
  V  V71  1  0.12753661  0.87699780  0.25237277  1
  V  V72  1  0.74965704  0.86929943  0.12436986  1
  V  V73  1  -0.00406497  0.12995073  0.12088584  1
  V  V74  1  0.00444222  0.00252601  -0.00327083  1
  V  V75  1  0.24945956  0.49825677  0.76860310  1
  V  V76  1  0.62356059  0.48890678  0.62818382  1
  V  V77  1  0.87021008  0.87398446  0.50171008  1
  V  V78  1  0.11818116  0.00593166  0.62396881  1
  Zn  Zn79  1  0.62936683  0.13074107  -0.00314132  1
  Zn  Zn80  1  0.75942069  0.61859852  0.37696818  1
  Zn  Zn81  1  0.12723603  0.75127138  0.37932433  1
  Zn  Zn82  1  0.75335026  0.47107027  0.26938428  1
  Zn  Zn83  1  0.74678031  0.36289437  0.12624562  1
  Zn  Zn84  1  0.86241699  -0.00871300  0.37042398  1
  Zn  Zn85  1  0.74698700  0.12839062  0.86896282  1
  Zn  Zn86  1  0.24664367  0.37139984  0.13279155  1
  Zn  Zn87  1  0.86476193  0.74248751  0.11491208  1
  Zn  Zn88  1  0.12070876  0.48468789  0.12459383  1
  Zn  Zn89  1  0.49254448  0.00457786  0.50306784  1
  Zn  Zn90  1  0.49160667  0.87406688  0.37041437  1
  Zn  Zn91  1  0.11274096  0.62943425  0.51549561  1
  Zn  Zn92  1  -0.00952858  0.00843014  0.50271050  1
  Zn  Zn93  1  0.87404754  0.61428670  0.25208518  1
  Zn  Zn94  1  0.18282575  0.19580444  0.18103259  1
  Zn  Zn95  1  0.19186309  0.18836584  0.68532750  1
  Zn  Zn96  1  0.18919248  0.68656709  0.18906702  1
  Zn  Zn97  1  0.18401285  0.68468124  0.69042066  1
  Zn  Zn98  1  0.68789412  0.18762953  0.18312283  1
  Zn  Zn99  1  0.68614655  0.19129170  0.69191852  1
  Zn  Zn100  1  0.68419226  0.68260222  0.18489959  1
  Zn  Zn101  1  0.68558031  0.68339901  0.69056554  1
  Zn  Zn102  1  0.31743964  0.31491468  0.31899034  1
  Zn  Zn103  1  0.34444613  0.32629405  0.79632246  1
  Zn  Zn104  1  0.31546818  0.81462172  0.31686379  1
  Zn  Zn105  1  0.31031177  0.81084263  0.81478451  1
  Zn  Zn106  1  0.81508654  0.30285285  0.31483610  1
  Zn  Zn107  1  0.81513173  0.30667883  0.81531436  1
  Zn  Zn108  1  0.79239155  0.77794605  0.29928205  1
  Zn  Zn109  1  0.81768028  0.80834784  0.81005917  1
  Zn  Zn110  1  0.18570375  0.43660496  0.43301048  1
  Zn  Zn111  1  0.18176762  0.43055100  0.94206205  1
  Zn  Zn112  1  0.19104682  0.94189022  0.43779459  1
  Zn  Zn113  1  0.18967412  0.93649398  0.93398937  1
  Zn  Zn114  1  0.68251916  0.43708059  0.44058076  1
  Zn  Zn115  1  0.69361276  0.43382931  0.93961298  1
  Zn  Zn116  1  0.68609420  0.93689639  0.44111700  1
  Zn  Zn117  1  0.68721479  0.93719370  0.93839287  1
  Zn  Zn118  1  0.31409589  0.06534984  0.06383925  1
  Zn  Zn119  1  0.30601487  0.06225111  0.55769076  1
  Zn  Zn120  1  0.31429845  0.56180899  0.07174955  1
  Zn  Zn121  1  0.27966852  0.57697591  0.58106700  1
  Zn  Zn122  1  0.81295036  0.06309442  0.05600682  1
  Zn  Zn123  1  0.80455829  0.06074393  0.55982238  1
  Zn  Zn124  1  0.83422044  0.54204148  0.09317735  1
  Zn  Zn125  1  0.81003933  0.56173192  0.56183904  1
  Zn  Zn126  1  0.43416721  0.44575832  0.18466449  1
  Zn  Zn127  1  0.43566616  0.43914034  0.68750547  1
  Zn  Zn128  1  0.43950207  0.93700126  0.19060132  1
  Zn  Zn129  1  0.44598000  0.94317682  0.68496469  1
  Zn  Zn130  1  0.93990141  0.44345299  0.19538298  1
  Zn  Zn131  1  0.93459646  0.43317255  0.69245990  1
  Zn  Zn132  1  0.93595414  0.93682861  0.18502110  1
  Zn  Zn133  1  0.93751203  0.93512736  0.68607402  1
  Zn  Zn134  1  0.06390864  0.06477185  0.31343006  1
  Zn  Zn135  1  0.06020228  0.06502034  0.80945007  1
  Zn  Zn136  1  0.07016682  0.56480265  0.31864323  1
  Zn  Zn137  1  0.06266725  0.55465426  0.81184713  1
  Zn  Zn138  1  0.56230062  0.06008340  0.31922806  1
  Zn  Zn139  1  0.56779550  0.06651262  0.81248158  1
  Zn  Zn140  1  0.58726439  0.55181857  0.32153007  1
  Zn  Zn141  1  0.56040634  0.55757857  0.80912147  1
  Zn  Zn142  1  0.43664727  0.19251319  0.43287827  1
  Zn  Zn143  1  0.43769160  0.18882942  0.93471566  1
  Zn  Zn144  1  0.43329933  0.68695976  0.44191518  1
  Zn  Zn145  1  0.44066586  0.68955411  0.94390027  1
  Zn  Zn146  1  0.93429234  0.19016096  0.43395817  1
  Zn  Zn147  1  0.93568042  0.18238327  0.93223010  1
  Zn  Zn148  1  0.93555585  0.68646608  0.43247490  1
  Zn  Zn149  1  0.94085639  0.68171563  0.93241061  1
  Zn  Zn150  1  0.07106870  0.33206050  0.05776673  1
  Zn  Zn151  1  0.06239090  0.31944876  0.55721837  1
  Zn  Zn152  1  0.06555191  0.81439781  0.05910289  1
  Zn  Zn153  1  0.06578305  0.81664166  0.56164481  1
  Zn  Zn154  1  0.56261284  0.30621228  0.05420590  1
  Zn  Zn155  1  0.56051090  0.31182176  0.55529856  1
  Zn  Zn156  1  0.56418011  0.81481601  0.06330687  1
  Zn  Zn157  1  0.55281321  0.81197802  0.56555028  1
  O  O158  1  0.11690789  0.11202543  0.12593729  1
  O  O159  1  0.12830404  0.11737814  0.61664442  1
  O  O160  1  0.11674574  0.62670782  0.12494741  1
  O  O161  1  0.16897287  0.61021257  0.61041602  1
  O  O162  1  0.61547934  0.11617278  0.12177522  1
  O  O163  1  0.62747791  0.12151198  0.61470435  1
  O  O164  1  0.61752647  0.61927404  0.11493912  1
  O  O165  1  0.61255626  0.61981300  0.62313695  1
  O  O166  1  0.38632032  0.37299026  0.39050005  1
  O  O167  1  0.36522131  0.37921972  0.89563700  1
  O  O168  1  0.37460647  0.88631850  0.38312588  1
  O  O169  1  0.37926651  0.88140915  0.88252221  1
  O  O170  1  0.88866797  0.36687833  0.38562353  1
  O  O171  1  0.87146254  0.39113346  0.87101411  1
  O  O172  1  0.88213303  0.87108111  0.38558027  1
  O  O173  1  0.88425192  0.87846419  0.87511948  1
  O  O174  1  0.25944797  -0.00082920  0.36406279  1
  O  O175  1  0.25433485  0.00926410  0.86793044  1
  O  O176  1  0.24888596  0.51639474  0.36987762  1
  O  O177  1  0.24542077  0.49209122  0.86821530  1
  O  O178  1  0.74430332  0.01679801  0.37979338  1
  O  O179  1  0.76422855  -0.00351303  0.87478320  1
  O  O180  1  0.70829246  0.51515931  0.36299422  1
  O  O181  1  0.75538784  0.50679280  0.86274498  1
  O  O182  1  0.24460952  0.49942028  0.13648351  1
  O  O183  1  0.26132327  0.48139616  0.64110672  1
  O  O184  1  0.24505507  0.99455385  0.12893697  1
  O  O185  1  0.23960915  1.00248447  0.63527489  1
  O  O186  1  0.72870540  0.49414891  0.10365950  1
  O  O187  1  0.73743273  0.50442003  0.63717921  1
  O  O188  1  0.73813342  0.99153443  0.11875087  1
  O  O189  1  0.72759242  1.00162783  0.62001625  1
  O  O190  1  -0.00885039  0.36536408  0.26069854  1
  O  O191  1  0.00914387  0.35950920  0.74296179  1
  O  O192  1  0.00988156  0.87210580  0.25379045  1
  O  O193  1  0.01075622  0.87748331  0.76044078  1
  O  O194  1  0.48691381  0.38147620  0.26629687  1
  O  O195  1  0.44937877  0.36054170  0.76178047  1
  O  O196  1  0.51590791  0.87458138  0.24907199  1
  O  O197  1  0.50237265  0.86526910  0.75482698  1
  O  O198  1  0.50094026  0.12045823  0.24043104  1
  O  O199  1  0.48505448  0.11751502  0.74951685  1
  O  O200  1  0.49396577  0.61928201  0.24147547  1
  O  O201  1  0.48548869  0.62794389  0.74883317  1
  O  O202  1  0.99509996  0.12771267  0.24082734  1
  O  O203  1  0.99421611  0.13717987  0.74800178  1
  O  O204  1  1.00715502  0.64473205  0.25634440  1
  O  O205  1  0.98526479  0.61763783  0.74776235  1
  O  O206  1  0.37169309  0.26087511  0.00370572  1
  O  O207  1  0.36534059  0.24741243  0.50735691  1
  O  O208  1  0.36279967  0.76312573  -0.00732779  1
  O  O209  1  0.36627809  0.76577243  0.49757500  1
  O  O210  1  0.86356605  0.24620914  -0.01023753  1
  O  O211  1  0.86132286  0.25674596  0.49690286  1
  O  O212  1  0.88341712  0.76407503  -0.00470254  1
  O  O213  1  0.86795902  0.75143240  0.51177455  1
  O  O214  1  0.12895515  0.24549559  0.49438032  1
  O  O215  1  0.13631442  0.25774325  0.98473857  1
  O  O216  1  0.14032432  0.75113176  0.50082840  1
  O  O217  1  0.13747721  0.75578809  0.98792129  1
  O  O218  1  0.63267527  0.24119671  0.49582307  1
  O  O219  1  0.63400871  0.24876462  0.98762225  1
  O  O220  1  0.62616494  0.74463723  0.50381947  1
  O  O221  1  0.61511867  0.74136459  0.98519776  1
  O  O222  1  0.48863809  0.24190730  0.12096688  1
  O  O223  1  0.48420636  0.25051131  0.61914410  1
  O  O224  1  0.50956592  0.73430398  0.12354930  1
  O  O225  1  0.50025953  0.73520355  0.63996030  1
  O  O226  1  1.01291136  0.23561181  0.12930602  1
  O  O227  1  1.00146920  0.24733511  0.62800522  1
  O  O228  1  1.00899515  0.74532283  0.13486732  1
  O  O229  1  0.99265991  0.74185384  0.61818852  1
  O  O230  1  0.00602352  0.25561458  0.36652470  1
  O  O231  1  0.01512967  0.24648030  0.87687279  1
  O  O232  1  0.00555791  0.76263155  0.36560138  1
  O  O233  1  0.01677155  0.75993446  0.88146569  1
  O  O234  1  0.51063265  0.25703746  0.37581967  1
  O  O235  1  0.51235045  0.25168089  0.88132938  1
  O  O236  1  0.51142405  0.75604129  0.38779361  1
  O  O237  1  0.50657997  0.75387504  0.86752755  1
  O  O238  1  0.23711055  0.13787454  0.50109125  1
  O  O239  1  0.25940039  0.13386981  0.98629760  1
  O  O240  1  0.27105612  0.64291135  0.48577381  1
  O  O241  1  0.25771741  0.64084853  1.00816818  1
  O  O242  1  0.74292069  0.13718282  0.49241086  1
  O  O243  1  0.75000306  0.13266048  0.99247265  1
  O  O244  1  0.73661703  0.63191207  0.50249522  1
  O  O245  1  0.73489003  0.62038980  0.98504185  1
  O  O246  1  0.26155994  0.36581590  0.00743455  1
  O  O247  1  0.25790714  0.36995288  0.50337181  1
  O  O248  1  0.25750562  0.87449984  0.00707189  1
  O  O249  1  0.25714431  0.86527496  0.49629268  1
  O  O250  1  0.75317438  0.36226556  0.00618515  1
  O  O251  1  0.75900562  0.36613795  0.49263964  1
  O  O252  1  0.76048860  0.87931883  0.00639868  1
  O  O253  1  0.76045167  0.86693678  0.49835302  1
  O  O254  1  0.14467706  0.51066586  0.25030813  1
  O  O255  1  0.13755941  0.48819137  0.75456599  1
  O  O256  1  0.13232771  0.99431502  0.24279715  1
  O  O257  1  0.13089878  0.99564566  0.74418991  1
  O  O258  1  0.63072141  0.50585041  0.22706549  1
  O  O259  1  0.63574122  0.50105428  0.74308743  1
  O  O260  1  0.62279024  0.99334949  0.24077623  1
  O  O261  1  0.61870062  0.98964642  0.73968750  1
  O  O262  1  0.36774723  -0.00313578  0.26040385  1
  O  O263  1  0.36824892  0.00353659  0.75222477  1
  O  O264  1  0.36151737  0.52031806  0.24166122  1
  O  O265  1  0.36426042  0.51076760  0.75656443  1
  O  O266  1  0.87925430  0.01072981  0.25327301  1
  O  O267  1  0.88586535  0.01112217  0.75488454  1
  O  O268  1  0.84855246  0.50711319  0.21189693  1
  O  O269  1  0.86358466  0.51028513  0.74802631  1
  O  O270  1  0.10723703  0.36180465  0.38367267  1
  O  O271  1  0.13435916  0.35577657  0.85803584  1
  O  O272  1  0.11952667  0.87866635  0.36637454  1
  O  O273  1  0.11991506  0.87234493  0.86574961  1
  O  O274  1  0.61201379  0.36164910  0.38348871  1
  O  O275  1  0.62540854  0.36876448  0.87547172  1
  O  O276  1  0.62298173  0.86727583  0.37190686  1
  O  O277  1  0.62040134  0.86856818  0.86818177  1
  O  O278  1  0.38344047  0.13736805  0.12084502  1
  O  O279  1  0.37208489  0.13194595  0.62422660  1
  O  O280  1  0.39056012  0.62789468  0.13151178  1
  O  O281  1  0.38305318  0.61720823  0.63229738  1
  O  O282  1  0.88683107  0.11559665  0.13127793  1
  O  O283  1  0.87595596  0.11558064  0.63369831  1
  O  O284  1  0.89725945  0.63437498  0.12984050  1
  O  O285  1  0.87052948  0.63360187  0.63358770  1
  O  O286  1  0.26277609  0.24298058  0.11274029  1
  O  O287  1  0.25424878  0.25918959  0.61316461  1
  O  O288  1  0.24109033  0.76361888  0.11191967  1
  O  O289  1  0.25513919  0.75177815  0.61421545  1
  O  O290  1  0.74717090  0.24444700  0.10602527  1
  O  O291  1  0.74361377  0.25052741  0.60869203  1
  O  O292  1  0.74567913  0.76390343  0.11952605  1
  O  O293  1  0.75233785  0.74625793  0.61754095  1
  O  O294  1  0.23900277  0.26091932  0.38470694  1
  O  O295  1  0.25083529  0.24231013  0.87941539  1
  O  O296  1  0.24854519  0.74025941  0.37701060  1
  O  O297  1  0.24017387  0.75272344  0.88802317  1
  O  O298  1  0.73672918  0.24242975  0.38315068  1
  O  O299  1  0.74192272  0.25132815  0.88412890  1
  O  O300  1  0.73048610  0.74852564  0.39595832  1
  O  O301  1  0.73917627  0.74076596  0.86735419  1
  O  O302  1  -0.00536789  0.11078982  0.00527071  1
  O  O303  1  0.00954642  0.12654508  0.49639523  1
  O  O304  1  0.00579661  0.62740404  0.00876821  1
  O  O305  1  -0.00192557  0.60905479  0.49519672  1
  O  O306  1  0.49653171  0.11156518  0.00577095  1
  O  O307  1  0.51454987  0.12935374  0.49658482  1
  O  O308  1  0.50393322  0.61646917  0.00932813  1
  O  O309  1  0.50115631  0.62946848  0.51848795  1
  O  O310  1  0.48539885  0.37830879  0.49774425  1
  O  O311  1  0.48878180  0.38655700  1.00384139  1
  O  O312  1  0.48388440  0.87703179  0.49886367  1
  O  O313  1  0.49231370  0.88151768  0.99725465  1
  O  O314  1  0.98774212  0.38285833  0.49322751  1
  O  O315  1  0.95090295  0.36541486  1.03644943  1
  O  O316  1  0.99162909  0.87424303  0.49226163  1
  O  O317  1  0.99489407  0.88340175  0.99137800  1
  O  O318  1  0.51235499  0.48687593  0.38004913  1
  O  O319  1  0.49809143  0.50614677  0.89094263  1
  O  O320  1  0.48581495  0.99718815  0.37969774  1
  O  O321  1  0.49596674  0.99509981  0.88305615  1
  O  O322  1  1.00167896  0.48509289  0.37186081  1
  O  O323  1  0.98331617  0.50406642  0.87329672  1
  O  O324  1  0.99829102  0.98850957  0.37692242  1
  O  O325  1  0.99745394  0.99207699  0.87973708  1
  O  O326  1  0.00777296  0.00384442  0.11647594  1
  O  O327  1  0.01344570  -0.00459994  0.62117730  1
  O  O328  1  0.00596490  0.51944475  0.13768154  1
  O  O329  1  -0.00330148  0.49614764  0.61474077  1
  O  O330  1  0.50549515  0.00567435  0.11991962  1
  O  O331  1  0.51613908  0.00265540  0.61747718  1
  O  O332  1  0.50950309  0.50977543  0.11626547  1
  O  O333  1  0.51045232  0.51293655  0.63930270  1
  O  O334  1  0.26162929  0.39523733  0.25814648  1
  O  O335  1  0.24805687  0.38096618  0.74582415  1
  O  O336  1  0.24448627  0.88054953  0.24138897  1
  O  O337  1  0.24279471  0.88748885  0.75928801  1
  O  O338  1  0.76361863  0.36395854  0.23694566  1
  O  O339  1  0.75817537  0.38812948  0.74774994  1
  O  O340  1  0.73611504  0.86721666  0.24075351  1
  O  O341  1  0.73746012  0.86716905  0.75105141  1
  O  O342  1  0.24551637  0.11561778  0.24190559  1
  O  O343  1  0.25662730  0.11485497  0.75519409  1
  O  O344  1  0.26037016  0.62555248  0.26060166  1
  O  O345  1  0.25948706  0.61250206  0.75548614  1
  O  O346  1  0.76068652  0.13381216  0.25721255  1
  O  O347  1  0.77094920  0.13441500  0.74975734  1
  O  O348  1  0.76403026  0.66418873  0.26037422  1
  O  O349  1  0.75500305  0.61785369  0.75857830  1
  O  O350  1  0.37572645  0.11042518  0.38113779  1
  O  O351  1  0.36871732  0.12130620  0.86378301  1
  O  O352  1  0.37182011  0.62694397  0.36413998  1
  O  O353  1  0.37535023  0.62280116  0.87353352  1
  O  O354  1  0.86566938  0.12212400  0.36820684  1
  O  O355  1  0.87619379  0.11206336  0.86355755  1
  O  O356  1  0.87320261  0.62197181  0.36765014  1
  O  O357  1  0.86837025  0.62364634  0.86104072  1
  O  O358  1  0.13263823  0.36442227  0.14735701  1
  O  O359  1  0.13588076  0.36697757  0.63512004  1
  O  O360  1  0.13247954  0.88629992  0.13168570  1
  O  O361  1  0.12287185  0.88221463  0.63855082  1
  O  O362  1  0.61780451  0.38491057  0.11993256  1
  O  O363  1  0.61543870  0.39023255  0.62120773  1
  O  O364  1  0.63011488  0.88166223  0.13042428  1
  O  O365  1  0.61966538  0.88227047  0.63172607  1
  O  O366  1  0.11373835  0.24203599  0.26008697  1
  O  O367  1  0.11467455  0.25097511  0.75328185  1
  O  O368  1  0.12038222  0.76477581  0.25031541  1
  O  O369  1  0.13902118  0.75940274  0.76379739  1
  O  O370  1  0.62570822  0.24683045  0.26293858  1
  O  O371  1  0.62789249  0.25041757  0.76489514  1
  O  O372  1  0.62345618  0.75295834  0.26916518  1
  O  O373  1  0.61397587  0.75374582  0.75805386  1
  O  O374  1  0.36824285  0.25103953  0.23723223  1
  O  O375  1  0.35963796  0.23460876  0.72808716  1
  O  O376  1  0.37383140  0.73683309  0.24969171  1
  O  O377  1  0.37917077  0.73533165  0.75927410  1
  O  O378  1  0.89171620  0.23364687  0.25382376  1
  O  O379  1  0.89089403  0.24075243  0.75135367  1
  O  O380  1  0.89590552  0.76436298  0.24280214  1
  O  O381  1  0.87532132  0.73886523  0.73651115  1
  O  O382  1  0.36626138  0.49122512  0.50940433  1
  O  O383  1  0.38435710  0.49006037  1.01214744  1
  O  O384  1  0.36679425  0.99149853  0.48933854  1
  O  O385  1  0.38159802  0.99208340  0.99534277  1
  O  O386  1  0.87909528  0.48817969  0.50133631  1
  O  O387  1  0.86637649  0.50836399  0.98683287  1
  O  O388  1  0.87280422  0.98757822  0.49937424  1
  O  O389  1  0.88487130  0.98943618  0.98872987  1
  O  O390  1  0.11679441  -0.00845344  0.00717819  1
  O  O391  1  0.12711814  0.00943915  0.50712342  1
  O  O392  1  0.10038580  0.44153725  0.01602235  1
  O  O393  1  0.10596686  0.49317894  0.49756190  1
  O  O394  1  0.61360182  -0.00444861  0.00974688  1
  O  O395  1  0.62308258  0.01361356  0.50499347  1
  O  O396  1  0.61112391  0.50664068  0.00169016  1
  O  O397  1  0.62956278  0.51073791  0.51907621  1
  O  O398  1  0.37282585  0.36124867  0.12073871  1
  O  O399  1  0.36913005  0.36257231  0.61175433  1
  O  O400  1  0.36619146  0.88180908  0.11673158  1
  O  O401  1  0.37354880  0.88625045  0.61167090  1
  O  O402  1  0.90646816  0.37065702  0.09874368  1
  O  O403  1  0.87545939  0.37247272  0.60994141  1
  O  O404  1  0.86715153  0.87483894  0.11530251  1
  O  O405  1  0.88309287  0.85803271  0.61826760  1
  O  O406  1  0.12130950  0.13740982  0.38454943  1
  O  O407  1  0.13651302  0.13820314  0.86542201  1
  O  O408  1  0.14094757  0.62883176  0.38813365  1
  O  O409  1  0.12070421  0.63896047  0.86777066  1
  O  O410  1  0.62813740  0.13507845  0.38272243  1
  O  O411  1  0.62960479  0.13174125  0.87719557  1
  O  O412  1  0.61189915  0.64017612  0.39323562  1
  O  O413  1  0.62830932  0.63028684  0.87654768  1
