# generated using pymatgen
data_V79Zn79O256
_symmetry_space_group_name_H-M   'P 1'
_cell_length_a   16.93486646
_cell_length_b   16.92585791
_cell_length_c   16.93949973
_cell_angle_alpha   90.01064845
_cell_angle_beta   89.80662562
_cell_angle_gamma   89.92366953
_symmetry_Int_Tables_number   1
_chemical_formula_structural   V79Zn79O256
_chemical_formula_sum   'V79 Zn79 O256'
_cell_volume   4855.45776218
_cell_formula_units_Z   1
loop_
 _symmetry_equiv_pos_site_id
 _symmetry_equiv_pos_as_xyz
  1  'x, y, z'
loop_
 _atom_site_type_symbol
 _atom_site_label
 _atom_site_symmetry_multiplicity
 _atom_site_fract_x
 _atom_site_fract_y
 _atom_site_fract_z
 _atom_site_occupancy
  V  V0  1  0.75141062  0.38023409  0.12856244  1
  V  V1  1  -0.01526422  0.84640209  0.41279727  1
  V  V2  1  -0.01253197  0.00627888  0.49624378  1
  V  V3  1  0.36233160  0.00034364  0.37771656  1
  V  V4  1  0.87879439  0.24923544  0.12702333  1
  V  V5  1  0.25749996  0.25024497  -0.00016699  1
  V  V6  1  0.61561334  0.12499789  0.50178208  1
  V  V7  1  0.49689065  0.37449872  0.87991055  1
  V  V8  1  0.49487656  0.63345637  0.13305165  1
  V  V9  1  0.62556993  0.50652429  0.12555685  1
  V  V10  1  0.25431775  0.49892294  0.75074723  1
  V  V11  1  0.76809456  0.84344788  0.61558760  1
  V  V12  1  -0.00044237  0.49478060  0.50329017  1
  V  V13  1  0.12527529  0.87490151  0.23084525  1
  V  V14  1  0.11578868  0.75535517  0.87941837  1
  V  V15  1  0.75083514  0.24474929  -0.00023025  1
  V  V16  1  0.64139653  0.88152160  0.25389467  1
  V  V17  1  0.86866759  0.36800046  0.50654095  1
  V  V18  1  0.84712867  0.24345224  0.65238197  1
  V  V19  1  0.63179232  -0.00411778  0.62796080  1
  V  V20  1  0.77853611  0.50437918  0.78905033  1
  V  V21  1  0.74734353  0.25357793  0.49084703  1
  V  V22  1  0.12840156  0.87262398  0.73991767  1
  V  V23  1  0.26290041  0.75257435  0.00650185  1
  V  V24  1  0.13130301  0.62085729  0.50010082  1
  V  V25  1  0.49394118  0.37642635  0.37498937  1
  V  V26  1  0.61760207  0.24789022  0.36813565  1
  V  V27  1  0.25032524  0.62430744  0.87428320  1
  V  V28  1  -0.01208078  0.61901968  0.63230715  1
  V  V29  1  -0.00121015  0.37351158  0.37596141  1
  V  V30  1  0.51179231  0.74270180  0.75455168  1
  V  V31  1  -0.00941879  0.74602094  0.74614024  1
  V  V32  1  0.63676219  0.74714814  0.37934601  1
  V  V33  1  -0.00061086  0.13172965  0.62611759  1
  V  V34  1  0.12970114  0.74560603  0.37725443  1
  V  V35  1  0.25406795  0.11496877  0.87335683  1
  V  V36  1  0.49304461  0.50071272  0.00300933  1
  V  V37  1  0.25672896  0.24899673  0.49764244  1
  V  V38  1  0.38345084  0.24520255  0.62163741  1
  V  V39  1  0.24714703  0.75548257  0.50816020  1
  V  V40  1  0.49061507  0.00459829  0.02170093  1
  V  V41  1  0.12930949  0.12449196  0.49519060  1
  V  V42  1  0.49574444  0.89173609  0.86397135  1
  V  V43  1  0.00381154  0.24870289  0.74909262  1
  V  V44  1  0.37615507  0.74833593  0.63325763  1
  V  V45  1  0.87372188  0.37975304  -0.00259045  1
  V  V46  1  0.12958739  0.37194857  0.75164335  1
  V  V47  1  -0.00080583  0.49892191  -0.00121235  1
  V  V48  1  0.63008121  0.49450643  0.62453120  1
  V  V49  1  0.25747479  0.37063457  0.62262934  1
  V  V50  1  0.62226159  0.37694583  0.24962884  1
  V  V51  1  0.00087089  0.24454960  0.24699191  1
  V  V52  1  0.12864874  0.50015406  0.12885159  1
  V  V53  1  0.36123858  0.62972594  0.25553570  1
  V  V54  1  0.86913392  0.62449945  0.25372257  1
  V  V55  1  -0.00791035  0.62407046  0.12614731  1
  V  V56  1  0.24324641  0.00108262  0.23989399  1
  V  V57  1  0.62752119  0.24344770  0.87428271  1
  V  V58  1  0.87371801  0.11877765  0.25128414  1
  V  V59  1  -0.00430379  0.75164466  0.24382272  1
  V  V60  1  0.12936234  0.37822913  0.24971775  1
  V  V61  1  0.74690521  0.11124231  0.36974959  1
  V  V62  1  0.62206877  0.64887691  -0.00436569  1
  V  V63  1  -0.00317208  0.37722612  0.87545565  1
  V  V64  1  0.63413238  0.62866608  0.50204182  1
  V  V65  1  0.35994293  0.50342304  0.37261363  1
  V  V66  1  0.87184546  -0.00061453  0.86190291  1
  V  V67  1  0.49885027  -0.00333925  0.49634596  1
  V  V68  1  0.25393839  0.37450921  0.12024410  1
  V  V69  1  0.37620558  0.87256491  0.49930974  1
  V  V70  1  0.49070061  0.50810738  0.50207909  1
  V  V71  1  0.65760330  -0.00034806  0.12745810  1
  V  V72  1  0.13095774  0.24548898  0.37364453  1
  V  V73  1  0.38448253  0.11940582  0.74938935  1
  V  V74  1  0.49353877  0.76083048  0.26425752  1
  V  V75  1  0.37814865  0.12868969  0.24458824  1
  V  V76  1  0.12748172  0.24344940  0.88233456  1
  V  V77  1  0.77788482  0.75289821  0.02739214  1
  V  V78  1  0.86637144  0.50024085  0.37634431  1
  Zn  Zn79  1  0.41625290  0.31483158  0.06629730  1
  Zn  Zn80  1  0.87154641  -0.01104447  0.36552908  1
  Zn  Zn81  1  0.38069371  0.61857750  0.74420352  1
  Zn  Zn82  1  0.62788235  0.38133837  0.74829243  1
  Zn  Zn83  1  0.12703395  0.49742598  0.62509155  1
  Zn  Zn84  1  0.74364262  0.50944817  0.25641743  1
  Zn  Zn85  1  0.50224418  0.25454652  0.74293039  1
  Zn  Zn86  1  0.26617267  -0.01609767  0.74084251  1
  Zn  Zn87  1  0.49725287  0.24414503  0.22862113  1
  Zn  Zn88  1  0.37194016  0.49274355  0.88201737  1
  Zn  Zn89  1  0.36853378  0.88206268  0.00430056  1
  Zn  Zn90  1  0.63448545  0.87338035  0.75166632  1
  Zn  Zn91  1  0.12245160  0.63042370  0.00325763  1
  Zn  Zn92  1  0.62702556  0.12137009  0.00883356  1
  Zn  Zn93  1  0.12807559  -0.01155852  0.61550634  1
  Zn  Zn94  1  0.19883376  0.19036957  0.19069963  1
  Zn  Zn95  1  0.20741784  0.15424377  0.66889107  1
  Zn  Zn96  1  0.18080661  0.69021391  0.18481764  1
  Zn  Zn97  1  0.18348603  0.68577242  0.68564988  1
  Zn  Zn98  1  0.69007914  0.18780307  0.18813604  1
  Zn  Zn99  1  0.67745681  0.19288287  0.68100541  1
  Zn  Zn100  1  0.68508521  0.69664693  0.18577263  1
  Zn  Zn101  1  0.69398948  0.67253480  0.68698184  1
  Zn  Zn102  1  0.31353891  0.31554894  0.31075424  1
  Zn  Zn103  1  0.31737426  0.30564596  0.81218534  1
  Zn  Zn104  1  0.30696236  0.81632440  0.31612228  1
  Zn  Zn105  1  0.31394958  0.81327955  0.82186621  1
  Zn  Zn106  1  0.80904253  0.31367917  0.31402106  1
  Zn  Zn107  1  0.80179458  0.31516916  0.80737240  1
  Zn  Zn108  1  0.81439899  0.80776590  0.31397066  1
  Zn  Zn109  1  0.80537909  0.80691502  0.80057664  1
  Zn  Zn110  1  0.18623033  0.43176403  0.43941211  1
  Zn  Zn111  1  0.18587014  0.43585172  0.94045324  1
  Zn  Zn112  1  0.18033873  0.93127540  0.43368677  1
  Zn  Zn113  1  0.19651352  0.92567036  0.92096279  1
  Zn  Zn114  1  0.68109921  0.43835140  0.43823140  1
  Zn  Zn115  1  0.68393861  0.43929163  0.93869821  1
  Zn  Zn116  1  0.68773605  0.92897957  0.44330616  1
  Zn  Zn117  1  0.64646335  0.89123116  0.96753591  1
  Zn  Zn118  1  0.30589867  0.06523760  0.06258567  1
  Zn  Zn119  1  0.31202948  0.05925456  0.56593953  1
  Zn  Zn120  1  0.31017308  0.57093556  0.06679932  1
  Zn  Zn121  1  0.31191759  0.56493686  0.56381974  1
  Zn  Zn122  1  0.83562722  0.06701133  0.05474322  1
  Zn  Zn123  1  0.80634189  0.07133425  0.56210919  1
  Zn  Zn124  1  0.80720343  0.56776325  0.05590469  1
  Zn  Zn125  1  0.80824915  0.56115377  0.56160417  1
  Zn  Zn126  1  0.43686739  0.44781188  0.19582892  1
  Zn  Zn127  1  0.44210922  0.43270698  0.68974566  1
  Zn  Zn128  1  0.42747988  0.93610605  0.18797720  1
  Zn  Zn129  1  0.44363834  0.93362501  0.67589599  1
  Zn  Zn130  1  0.93883635  0.43774780  0.19005367  1
  Zn  Zn131  1  0.93159951  0.43118474  0.68778327  1
  Zn  Zn132  1  0.93821559  0.93526482  0.17900996  1
  Zn  Zn133  1  0.94440454  0.92911057  0.67428574  1
  Zn  Zn134  1  0.06105947  0.05853503  0.31343628  1
  Zn  Zn135  1  0.06452182  0.06114740  0.81312284  1
  Zn  Zn136  1  0.05815317  0.56163628  0.31503445  1
  Zn  Zn137  1  0.06579539  0.56187644  0.81359717  1
  Zn  Zn138  1  0.55628978  0.05512622  0.31280917  1
  Zn  Zn139  1  0.56443105  0.06629293  0.81132183  1
  Zn  Zn140  1  0.55667089  0.56751554  0.31716760  1
  Zn  Zn141  1  0.56597601  0.56492014  0.81603725  1
  Zn  Zn142  1  0.43378389  0.18225711  0.42687465  1
  Zn  Zn143  1  0.44175566  0.17852899  0.93569950  1
  Zn  Zn144  1  0.43632943  0.68694995  0.43748124  1
  Zn  Zn145  1  0.44163878  0.68687783  0.93216937  1
  Zn  Zn146  1  0.93670835  0.18566933  0.43181700  1
  Zn  Zn147  1  0.94136633  0.18763111  0.94138099  1
  Zn  Zn148  1  0.94515777  0.67542301  0.43666848  1
  Zn  Zn149  1  0.93758039  0.68907449  0.93951996  1
  Zn  Zn150  1  0.06556670  0.31105299  0.06294149  1
  Zn  Zn151  1  0.06533910  0.31100918  0.56347766  1
  Zn  Zn152  1  0.03681307  0.82540407  0.06099600  1
  Zn  Zn153  1  0.05176819  0.80454826  0.56478424  1
  Zn  Zn154  1  0.57539123  0.31527151  0.06070814  1
  Zn  Zn155  1  0.56057907  0.31825841  0.55271209  1
  Zn  Zn156  1  0.52828831  0.83389991  0.08524506  1
  Zn  Zn157  1  0.56004524  0.81321472  0.56430171  1
  O  O158  1  0.12764062  0.12314689  0.10534123  1
  O  O159  1  0.11135916  0.13457482  0.60857473  1
  O  O160  1  0.11349277  0.61442047  0.12600771  1
  O  O161  1  0.11864198  0.61728531  0.61547202  1
  O  O162  1  0.63720573  0.10451482  0.13021513  1
  O  O163  1  0.62689251  0.11933092  0.60959473  1
  O  O164  1  0.61587191  0.62161167  0.12287006  1
  O  O165  1  0.62074050  0.61500800  0.60713073  1
  O  O166  1  0.38093077  0.39247357  0.36325494  1
  O  O167  1  0.39007851  0.37278401  0.87342880  1
  O  O168  1  0.36883440  0.88217894  0.38959855  1
  O  O169  1  0.39088904  0.86967408  0.88611015  1
  O  O170  1  0.88029029  0.38084502  0.38139061  1
  O  O171  1  0.88713424  0.36516216  0.88742267  1
  O  O172  1  0.89164348  0.87389218  0.36885168  1
  O  O173  1  0.87125486  0.89452289  0.85696188  1
  O  O174  1  0.25531924  -0.00858332  0.36817548  1
  O  O175  1  0.24812400  0.01238321  0.86546680  1
  O  O176  1  0.26109669  0.49505931  0.38062136  1
  O  O177  1  0.24982959  0.50443182  0.87000015  1
  O  O178  1  0.75422331  0.00711978  0.38264533  1
  O  O179  1  0.76954079  0.00713346  0.84586775  1
  O  O180  1  0.76205918  0.49566455  0.37540694  1
  O  O181  1  0.76322798  0.50542814  0.89096562  1
  O  O182  1  0.23519090  0.49402396  0.11630911  1
  O  O183  1  0.25191779  0.48920530  0.63255841  1
  O  O184  1  0.25025488  0.99484637  0.14020446  1
  O  O185  1  0.23127473  1.03124641  0.64196180  1
  O  O186  1  0.73991025  0.49911472  0.12457272  1
  O  O187  1  0.73033088  0.49758859  0.61707059  1
  O  O188  1  0.75657298  0.99837850  0.11673008  1
  O  O189  1  0.73351730  1.00483911  0.61826040  1
  O  O190  1  0.00895785  0.36469999  0.25437184  1
  O  O191  1  0.01380016  0.37365647  0.75791333  1
  O  O192  1  0.01322050  0.86610895  0.24605210  1
  O  O193  1  0.01017923  0.85256602  0.73887000  1
  O  O194  1  0.50520058  0.37775156  0.25834531  1
  O  O195  1  0.50656911  0.37241152  0.76299003  1
  O  O196  1  0.50102939  0.86199338  0.25295485  1
  O  O197  1  0.49669658  0.86614048  0.75482015  1
  O  O198  1  0.48293527  0.12258916  0.25279442  1
  O  O199  1  0.48692360  0.13433094  0.75710261  1
  O  O200  1  0.48983646  0.63377014  0.24897597  1
  O  O201  1  0.49521496  0.63874047  0.75736420  1
  O  O202  1  0.99208619  0.13836521  0.25938094  1
  O  O203  1  1.01166392  0.13715943  0.73923443  1
  O  O204  1  0.99288912  0.62921695  0.24367044  1
  O  O205  1  1.00514127  0.62450988  0.73870833  1
  O  O206  1  0.36334524  0.24487723  -0.00632314  1
  O  O207  1  0.36442335  0.23878142  0.50384188  1
  O  O208  1  0.36333954  0.74166326  -0.00041858  1
  O  O209  1  0.36816295  0.75360541  0.50626280  1
  O  O210  1  0.87144123  0.26150397  0.00813744  1
  O  O211  1  0.86383522  0.25725837  0.48778283  1
  O  O212  1  0.87920921  0.74627979  0.01825006  1
  O  O213  1  0.95524267  0.77672747  0.48703497  1
  O  O214  1  0.13054803  0.24508794  0.49037415  1
  O  O215  1  0.13231275  0.25136474  0.98915187  1
  O  O216  1  0.12934390  0.74040336  0.49783412  1
  O  O217  1  0.10655853  0.75682448  0.98615890  1
  O  O218  1  0.62628417  0.24408117  0.48830019  1
  O  O219  1  0.63483542  0.24472319  0.99340066  1
  O  O220  1  0.61464347  0.73921308  0.49063070  1
  O  O221  1  0.60451535  0.74589125  1.00796502  1
  O  O222  1  0.49790990  0.25700792  0.11703430  1
  O  O223  1  0.48741234  0.25860063  0.61904820  1
  O  O224  1  0.50974545  0.73790508  0.14927717  1
  O  O225  1  0.48489107  0.75632797  0.63832399  1
  O  O226  1  0.99136366  0.25595776  0.13406203  1
  O  O227  1  0.99985104  0.24605932  0.63379425  1
  O  O228  1  1.01080750  0.73422632  0.13563770  1
  O  O229  1  1.00516321  0.72776401  0.63676227  1
  O  O230  1  0.00978058  0.25501419  0.36734855  1
  O  O231  1  0.00792595  0.25311646  0.87256327  1
  O  O232  1  0.00944127  0.74526589  0.35591432  1
  O  O233  1  0.01024950  0.73317741  0.85971734  1
  O  O234  1  0.50089536  0.26081729  0.37173400  1
  O  O235  1  0.51425203  0.25730685  0.88506238  1
  O  O236  1  0.50853284  0.74704963  0.36693033  1
  O  O237  1  0.49558698  0.75738593  0.85796659  1
  O  O238  1  0.23873804  0.13654636  0.50497639  1
  O  O239  1  0.25467558  0.13080978  0.98205750  1
  O  O240  1  0.23778359  0.63261608  0.50347568  1
  O  O241  1  0.24283228  0.63378584  0.99221488  1
  O  O242  1  0.73855356  0.13247978  0.48535494  1
  O  O243  1  0.75564261  0.14220112  1.00434760  1
  O  O244  1  0.73347576  0.62016649  0.49601212  1
  O  O245  1  0.73364418  0.64829681  1.01423330  1
  O  O246  1  0.24810704  0.36618410  0.00850519  1
  O  O247  1  0.24327519  0.36180984  0.51225583  1
  O  O248  1  0.25290158  0.85848939  -0.00905162  1
  O  O249  1  0.25339958  0.86280363  0.49892584  1
  O  O250  1  0.75826243  0.37102725  0.00825112  1
  O  O251  1  0.75778896  0.36586230  0.48745826  1
  O  O252  1  0.74236227  0.83700291  -0.01812920  1
  O  O253  1  0.74390582  0.86891648  0.51875538  1
  O  O254  1  0.11530266  0.48883612  0.24279835  1
  O  O255  1  0.13703455  0.48744684  0.75225758  1
  O  O256  1  0.12998410  0.98585174  0.25579042  1
  O  O257  1  0.11189269  0.97575390  0.75304115  1
  O  O258  1  0.62343139  0.50053691  0.24159189  1
  O  O259  1  0.60561482  0.50506472  0.72622602  1
  O  O260  1  0.62757349  0.98884947  0.24716758  1
  O  O261  1  0.61681648  1.00672589  0.72914375  1
  O  O262  1  0.36059693  -0.00044725  0.25724441  1
  O  O263  1  0.37994333  0.01484775  0.73672032  1
  O  O264  1  0.37241330  0.51691393  0.26274191  1
  O  O265  1  0.36432581  0.49896946  0.75234954  1
  O  O266  1  0.89173334  0.01296969  0.24586428  1
  O  O267  1  0.88783009  -0.00032293  0.75782068  1
  O  O268  1  0.87507360  0.50544504  0.26020349  1
  O  O269  1  0.87695100  0.49536309  0.76326353  1
  O  O270  1  0.11979451  0.36683215  0.36739108  1
  O  O271  1  0.11749640  0.36626995  0.87106697  1
  O  O272  1  0.10066024  0.85672328  0.38844847  1
  O  O273  1  0.11827527  0.85904261  0.86519466  1
  O  O274  1  0.61567929  0.37012012  0.36830290  1
  O  O275  1  0.61294970  0.36891576  0.87991083  1
  O  O276  1  0.62675667  0.86418011  0.36539123  1
  O  O277  1  0.60518567  0.87864676  0.86212234  1
  O  O278  1  0.36384760  0.11992025  0.14540605  1
  O  O279  1  0.36982310  0.13506216  0.63734661  1
  O  O280  1  0.38298806  0.62071505  0.14345211  1
  O  O281  1  0.37252665  0.64177593  0.62544622  1
  O  O282  1  0.86503874  0.14246734  0.14079218  1
  O  O283  1  0.88186962  0.14409721  0.61977830  1
  O  O284  1  0.88718334  0.61148582  0.13520074  1
  O  O285  1  0.88908396  0.61620322  0.62026066  1
  O  O286  1  0.24373497  0.25951859  0.11224309  1
  O  O287  1  0.25850559  0.25257764  0.61699623  1
  O  O288  1  0.23851120  0.74371935  0.10315452  1
  O  O289  1  0.25805183  0.74711049  0.61697804  1
  O  O290  1  0.75752109  0.26042396  0.12006785  1
  O  O291  1  0.74539642  0.24608070  0.59501195  1
  O  O292  1  0.75666088  0.76118658  0.12581113  1
  O  O293  1  0.75610064  0.74209403  0.62116264  1
  O  O294  1  0.23930112  0.25957224  0.38310202  1
  O  O295  1  0.24391511  0.24705356  0.88251191  1
  O  O296  1  0.23525562  0.75273403  0.38549764  1
  O  O297  1  0.23574201  0.74258116  0.88518992  1
  O  O298  1  0.73858417  0.24157914  0.37612521  1
  O  O299  1  0.73496335  0.26302284  0.88712172  1
  O  O300  1  0.73634954  0.74943371  0.37585870  1
  O  O301  1  0.79103067  0.72341865  0.88255118  1
  O  O302  1  -0.05949786  0.10167794  0.01089329  1
  O  O303  1  0.00594528  0.12226649  0.50403349  1
  O  O304  1  -0.00127249  0.61418410  0.00675281  1
  O  O305  1  0.00818770  0.61384344  0.51398613  1
  O  O306  1  0.51116412  0.10272396  -0.01187619  1
  O  O307  1  0.50967051  0.11796423  0.48978737  1
  O  O308  1  0.50574448  0.62305835  0.01193022  1
  O  O309  1  0.50700781  0.61174221  0.49200999  1
  O  O310  1  0.50136678  0.39007409  0.48265842  1
  O  O311  1  0.49807929  0.38643632  0.99939705  1
  O  O312  1  0.48691928  0.88082492  0.50187910  1
  O  O313  1  0.51722808  0.90033721  0.98382654  1
  O  O314  1  0.99091923  0.37450555  0.49718266  1
  O  O315  1  0.99455524  0.37915198  0.99524491  1
  O  O316  1  1.00928558  0.90457625  0.51186272  1
  O  O317  1  1.06541004  0.97074862  1.01238649  1
  O  O318  1  0.49086346  0.49525649  0.38090497  1
  O  O319  1  0.49996565  0.49403662  0.88643871  1
  O  O320  1  0.48494498  0.99879613  0.38744247  1
  O  O321  1  0.49271171  0.99275371  0.86207830  1
  O  O322  1  0.99100727  0.49216889  0.38324966  1
  O  O323  1  1.00906152  0.48861062  0.88633430  1
  O  O324  1  0.99518423  1.00122054  0.39033583  1
  O  O325  1  0.97740646  1.00310607  0.87249784  1
  O  O326  1  0.07198777  0.07875412  0.12749807  1
  O  O327  1  0.00297371  0.01584371  0.61739480  1
  O  O328  1  0.00837169  0.50281916  0.11894598  1
  O  O329  1  0.00222516  0.50250635  0.62324985  1
  O  O330  1  0.50230546  0.00534451  0.12103070  1
  O  O331  1  0.50972936  -0.00119861  0.60559429  1
  O  O332  1  0.50630696  0.51060800  0.12300800  1
  O  O333  1  0.49478165  0.49401692  0.60454945  1
  O  O334  1  0.23507415  0.36673030  0.23977299  1
  O  O335  1  0.24605778  0.37837527  0.74659884  1
  O  O336  1  0.23260465  0.88064179  0.25496733  1
  O  O337  1  0.23510714  0.87401767  0.76035489  1
  O  O338  1  0.74168140  0.38005146  0.24505669  1
  O  O339  1  0.74156797  0.40583584  0.76427638  1
  O  O340  1  0.74061240  0.87336809  0.25301310  1
  O  O341  1  0.74428076  0.86258337  0.72617717  1
  O  O342  1  0.24809309  0.10751047  0.25249991  1
  O  O343  1  0.26488353  0.13320606  0.76418304  1
  O  O344  1  0.26258321  0.63839496  0.24695954  1
  O  O345  1  0.24632439  0.61278794  0.75574054  1
  O  O346  1  0.76009838  0.12895291  0.26109964  1
  O  O347  1  0.77866020  0.21836413  0.73010569  1
  O  O348  1  0.76522765  0.62771919  0.24263933  1
  O  O349  1  0.73950001  0.59107885  0.75167318  1
  O  O350  1  0.36962351  0.10947712  0.36390000  1
  O  O351  1  0.36566853  0.12865764  0.86171617  1
  O  O352  1  0.37334358  0.61650875  0.36658033  1
  O  O353  1  0.35906055  0.62470462  0.86993649  1
  O  O354  1  0.86532798  0.12197911  0.36624173  1
  O  O355  1  0.87392754  0.10451405  0.86669512  1
  O  O356  1  0.88188521  0.61256527  0.36793906  1
  O  O357  1  0.84217906  0.66298084  0.87346533  1
  O  O358  1  0.13036316  0.38126024  0.13134049  1
  O  O359  1  0.13645583  0.37228469  0.63612462  1
  O  O360  1  0.12521929  0.87187626  0.13321214  1
  O  O361  1  0.12527102  0.86904647  0.63482952  1
  O  O362  1  0.63135737  0.38879231  0.13012104  1
  O  O363  1  0.61761137  0.38881379  0.62207260  1
  O  O364  1  0.62282879  0.88651421  0.14302787  1
  O  O365  1  0.62626902  0.88749415  0.62532888  1
  O  O366  1  0.11994518  0.25378971  0.25439133  1
  O  O367  1  0.12043336  0.26053735  0.76119964  1
  O  O368  1  0.12259058  0.76091966  0.25698816  1
  O  O369  1  0.12236929  0.75480450  0.75879270  1
  O  O370  1  0.61966222  0.25686361  0.25187811  1
  O  O371  1  0.62199229  0.25474987  0.76337271  1
  O  O372  1  0.61811283  0.75788396  0.26277546  1
  O  O373  1  0.61244859  0.74528281  0.73929545  1
  O  O374  1  0.37107003  0.23276883  0.25701000  1
  O  O375  1  0.37947135  0.24159258  0.73897213  1
  O  O376  1  0.38433927  0.74271607  0.26530036  1
  O  O377  1  0.37088161  0.75094465  0.73925834  1
  O  O378  1  0.88280975  0.24788930  0.24639319  1
  O  O379  1  0.90187655  0.27424918  0.75131877  1
  O  O380  1  0.88727559  0.74011628  0.25468821  1
  O  O381  1  0.89288556  0.74839936  0.75178603  1
  O  O382  1  0.38208125  0.51054888  0.48622091  1
  O  O383  1  0.38865643  0.51237206  1.00219806  1
  O  O384  1  0.37603767  0.99409793  0.49751448  1
  O  O385  1  0.38718837  1.00256651  1.00718897  1
  O  O386  1  0.87760425  0.48758690  0.49658318  1
  O  O387  1  0.88620426  0.48990425  1.00950035  1
  O  O388  1  0.88636372  1.01200207  0.50160736  1
  O  O389  1  0.85756130  0.98838257  0.96387287  1
  O  O390  1  0.12082107  0.00440124  -0.02546822  1
  O  O391  1  0.12021270  0.01329467  0.49643507  1
  O  O392  1  0.11321376  0.49880024  0.01005036  1
  O  O393  1  0.11885131  0.50320650  0.50012974  1
  O  O394  1  0.62884545  -0.00389236  0.02197621  1
  O  O395  1  0.61695142  0.00625481  0.50153989  1
  O  O396  1  0.61480871  0.50827682  0.01322238  1
  O  O397  1  0.61322954  0.50855066  0.50242722  1
  O  O398  1  0.35817124  0.38649896  0.13551632  1
  O  O399  1  0.36308341  0.36375620  0.63195822  1
  O  O400  1  0.41599790  0.86307559  0.10496184  1
  O  O401  1  0.37125190  0.86299243  0.61292033  1
  O  O402  1  0.87226303  0.36861624  0.12001059  1
  O  O403  1  0.87294031  0.35598456  0.61492320  1
  O  O404  1  0.95056305  0.89360361  0.08046228  1
  O  O405  1  0.86657408  0.86813984  0.62280495  1
  O  O406  1  0.11927218  0.13656861  0.38153753  1
  O  O407  1  0.13983660  0.13380765  0.86380019  1
  O  O408  1  0.11333021  0.63330685  0.38769226  1
  O  O409  1  0.13424689  0.63270344  0.87737384  1
  O  O410  1  0.62907584  0.12668473  0.37676270  1
  O  O411  1  0.62589724  0.14054129  0.87569240  1
  O  O412  1  0.62322580  0.63733123  0.38208985  1
  O  O413  1  0.61829120  0.62757668  0.89759010  1
