# generated using pymatgen
data_V79Zn79O256
_symmetry_space_group_name_H-M   'P 1'
_cell_length_a   16.90391815
_cell_length_b   16.91359342
_cell_length_c   16.89566812
_cell_angle_alpha   90.01484549
_cell_angle_beta   89.99108615
_cell_angle_gamma   90.16933952
_symmetry_Int_Tables_number   1
_chemical_formula_structural   V79Zn79O256
_chemical_formula_sum   'V79 Zn79 O256'
_cell_volume   4830.55154975
_cell_formula_units_Z   1
loop_
 _symmetry_equiv_pos_site_id
 _symmetry_equiv_pos_as_xyz
  1  'x, y, z'
loop_
 _atom_site_type_symbol
 _atom_site_label
 _atom_site_symmetry_multiplicity
 _atom_site_fract_x
 _atom_site_fract_y
 _atom_site_fract_z
 _atom_site_occupancy
  V  V0  1  0.87513508  -0.00192975  0.87396932  1
  V  V1  1  0.62590760  0.49736091  0.62405476  1
  V  V2  1  0.76200960  0.24695697  0.51465487  1
  V  V3  1  0.38449920  0.00314550  0.87811759  1
  V  V4  1  0.00253182  0.12407102  0.12567174  1
  V  V5  1  0.49671106  0.62024004  0.12010726  1
  V  V6  1  0.25647220  0.12829082  0.86848514  1
  V  V7  1  0.36565892  0.12214451  0.25354802  1
  V  V8  1  0.38868383  0.87640468  0.50035845  1
  V  V9  1  0.00190178  0.25277124  0.74158628  1
  V  V10  1  0.86515838  0.61302462  0.25940926  1
  V  V11  1  -0.00665544  -0.00818889  0.49683682  1
  V  V12  1  0.74818557  0.14914220  0.87732607  1
  V  V13  1  0.85844058  0.52044718  0.88138162  1
  V  V14  1  0.11632875  0.76090447  0.87736079  1
  V  V15  1  0.38051546  0.62780384  0.26162457  1
  V  V16  1  0.88204501  0.74178043  0.12739663  1
  V  V17  1  0.25023744  0.75065860  0.00180568  1
  V  V18  1  0.74801963  0.51548937  0.74894258  1
  V  V19  1  0.12232837  0.37226209  0.23585256  1
  V  V20  1  0.25118988  0.87979353  0.13853185  1
  V  V21  1  0.62536742  0.61414765  -0.00765714  1
  V  V22  1  0.87779204  0.75543137  0.64491014  1
  V  V23  1  0.11403377  0.87774483  0.75535158  1
  V  V24  1  0.48257333  0.12070687  0.64242267  1
  V  V25  1  0.87347372  0.24967378  0.10805992  1
  V  V26  1  0.49276303  0.38453313  0.38694809  1
  V  V27  1  0.63492757  0.87859089  0.74441017  1
  V  V28  1  0.76103011  0.76566707  0.49996990  1
  V  V29  1  0.49904735  0.62224065  0.61600458  1
  V  V30  1  0.24907377  0.87528135  0.62411413  1
  V  V31  1  0.36650152  0.00023133  0.37137597  1
  V  V32  1  0.74041378  0.00283654  0.24744545  1
  V  V33  1  -0.00499419  0.49425045  0.47223594  1
  V  V34  1  0.63352070  0.74576217  0.87551745  1
  V  V35  1  0.38288298  0.88270822  0.00106020  1
  V  V36  1  0.24159457  0.50736712  0.74607467  1
  V  V37  1  0.23594457  0.75154592  0.49671321  1
  V  V38  1  0.11961609  0.26305933  0.37839774  1
  V  V39  1  -0.00105980  0.62367021  0.65671667  1
  V  V40  1  0.12649673  0.12559823  0.49200791  1
  V  V41  1  0.38149591  0.37998848  0.00204547  1
  V  V42  1  0.00553303  -0.00356638  -0.00506404  1
  V  V43  1  0.25105257  0.25493164  0.00308927  1
  V  V44  1  0.62598549  0.74996824  0.36220065  1
  V  V45  1  0.37169204  0.25476030  0.12768645  1
  V  V46  1  0.01423219  0.87010888  0.36600795  1
  V  V47  1  0.87697615  0.12847411  0.74712023  1
  V  V48  1  0.23198325  0.62688064  0.37485664  1
  V  V49  1  0.49913053  0.35790802  0.86414809  1
  V  V50  1  0.62629089  0.36283658  0.74663090  1
  V  V51  1  0.26049597  0.24927770  0.49889371  1
  V  V52  1  0.63129805  0.24189161  0.38310577  1
  V  V53  1  0.50625151  0.87411968  0.35065704  1
  V  V54  1  0.37432129  0.75256643  0.62493968  1
  V  V55  1  -0.02756100  0.37180008  0.87967046  1
  V  V56  1  0.51242993  0.12680353  0.12078654  1
  V  V57  1  0.12367194  0.38566683  0.75023141  1
  V  V58  1  0.12461224  0.00057237  0.62371059  1
  V  V59  1  0.12744874  0.51798389  0.11633781  1
  V  V60  1  0.87235069  -0.01003032  0.37139508  1
  V  V61  1  0.87402513  0.12107044  0.25144378  1
  V  V62  1  0.38209886  0.75143132  0.12960659  1
  V  V63  1  -0.00155559  0.12800258  0.62115183  1
  V  V64  1  0.63932087  0.62183984  0.49671407  1
  V  V65  1  0.88109672  0.87425681  -0.00289558  1
  V  V66  1  0.12663339  0.25492237  0.87378115  1
  V  V67  1  0.62550967  0.49582934  0.13297319  1
  V  V68  1  0.25639021  0.00462221  0.74952535  1
  V  V69  1  0.24790293  0.63096167  0.88071435  1
  V  V70  1  0.13133094  -0.00392286  0.13883528  1
  V  V71  1  0.37530406  0.62906322  0.75112590  1
  V  V72  1  0.49947421  0.25225869  0.25906721  1
  V  V73  1  0.38310518  0.50501580  0.87898354  1
  V  V74  1  0.74756603  0.87220167  0.12896814  1
  V  V75  1  0.25791613  0.49252374  0.25285199  1
  V  V76  1  0.01330468  0.74497006  0.25063708  1
  V  V77  1  0.50099464  0.75515968  0.75368096  1
  V  V78  1  0.25331304  0.37505244  0.62443070  1
  Zn  Zn79  1  0.75637487  0.74350910  -0.00419612  1
  Zn  Zn80  1  0.11947865  0.60735929  0.52014427  1
  Zn  Zn81  1  0.75394390  -0.00097553  0.74232258  1
  Zn  Zn82  1  -0.00728825  0.25517982  0.25342882  1
  Zn  Zn83  1  0.75862309  0.37331253  0.11846102  1
  Zn  Zn84  1  0.12919150  0.12379778  -0.00029558  1
  Zn  Zn85  1  0.61535913  -0.01504978  0.11347249  1
  Zn  Zn86  1  0.62442150  0.11342330  0.49503279  1
  Zn  Zn87  1  0.62068402  -0.00185214  0.61109555  1
  Zn  Zn88  1  0.87263853  0.38216032  0.52600988  1
  Zn  Zn89  1  0.37537529  0.40872050  0.49801602  1
  Zn  Zn90  1  0.63006713  0.38506487  0.26083943  1
  Zn  Zn91  1  0.51298879  0.89189417  0.88392495  1
  Zn  Zn92  1  -0.01417763  0.50242279  0.00907446  1
  Zn  Zn93  1  0.61747269  0.10196213  -0.02758318  1
  Zn  Zn94  1  0.18702099  0.18708544  0.18878046  1
  Zn  Zn95  1  0.31544835  0.19320441  0.68287916  1
  Zn  Zn96  1  0.19594371  0.68620253  0.18843510  1
  Zn  Zn97  1  0.18274268  0.69325934  0.69226424  1
  Zn  Zn98  1  0.69298849  0.20714252  0.19160487  1
  Zn  Zn99  1  0.68991566  0.17478142  0.67924620  1
  Zn  Zn100  1  0.69035062  0.68148252  0.18092684  1
  Zn  Zn101  1  0.69101016  0.69294212  0.68114361  1
  Zn  Zn102  1  0.31154042  0.31003785  0.31977135  1
  Zn  Zn103  1  0.31015903  0.32059993  0.81411928  1
  Zn  Zn104  1  0.31369318  0.80940510  0.31869591  1
  Zn  Zn105  1  0.31185072  0.82085592  0.81316213  1
  Zn  Zn106  1  0.80139450  0.30624510  0.29743489  1
  Zn  Zn107  1  0.80943918  0.31810592  0.69933914  1
  Zn  Zn108  1  0.81319000  0.80787079  0.31253762  1
  Zn  Zn109  1  0.81395578  0.81379780  0.81638801  1
  Zn  Zn110  1  0.18634519  0.44003287  0.43782928  1
  Zn  Zn111  1  0.19472341  0.43834282  0.93571565  1
  Zn  Zn112  1  0.18863857  0.93562189  0.43690263  1
  Zn  Zn113  1  0.19448149  0.93835818  0.94333956  1
  Zn  Zn114  1  0.68270005  0.42198242  0.44915050  1
  Zn  Zn115  1  0.68198959  0.43055073  0.93237134  1
  Zn  Zn116  1  0.68581640  0.93558304  0.43380678  1
  Zn  Zn117  1  0.69324723  0.93475392  0.93627963  1
  Zn  Zn118  1  0.31479543  0.06844904  0.06324371  1
  Zn  Zn119  1  0.31196554  0.05709308  0.55176369  1
  Zn  Zn120  1  0.30943687  0.56097029  0.06625246  1
  Zn  Zn121  1  0.30651882  0.56856901  0.56133175  1
  Zn  Zn122  1  0.80738356  0.06556186  0.05817695  1
  Zn  Zn123  1  0.80506188  0.05940269  0.55643760  1
  Zn  Zn124  1  0.80516176  0.56015553  0.06577443  1
  Zn  Zn125  1  0.82461372  0.56771088  0.56518237  1
  Zn  Zn126  1  0.44228081  0.43727113  0.19263127  1
  Zn  Zn127  1  0.43478831  0.43965348  0.68910925  1
  Zn  Zn128  1  0.43738871  0.94321071  0.18611153  1
  Zn  Zn129  1  0.44147470  0.93962927  0.68867586  1
  Zn  Zn130  1  0.94190613  0.43547953  0.18189493  1
  Zn  Zn131  1  0.93721334  0.44978178  0.69597474  1
  Zn  Zn132  1  0.93886843  0.93400679  0.18574214  1
  Zn  Zn133  1  0.93303879  0.93804157  0.68332255  1
  Zn  Zn134  1  0.06174615  0.06378601  0.31478640  1
  Zn  Zn135  1  0.06690303  0.06501400  0.81136063  1
  Zn  Zn136  1  0.05579298  0.55759274  0.30114085  1
  Zn  Zn137  1  0.04999572  0.56976366  0.84639042  1
  Zn  Zn138  1  0.55581516  0.06189828  0.30979369  1
  Zn  Zn139  1  0.57366333  0.08557302  0.78235203  1
  Zn  Zn140  1  0.56169842  0.56641229  0.31444002  1
  Zn  Zn141  1  0.56223525  0.56279952  0.80596770  1
  Zn  Zn142  1  0.44547869  0.17930901  0.44460161  1
  Zn  Zn143  1  0.43805738  0.18680931  0.93755009  1
  Zn  Zn144  1  0.44011675  0.69246357  0.43960283  1
  Zn  Zn145  1  0.43967580  0.69205382  0.94054096  1
  Zn  Zn146  1  0.93745133  0.18296812  0.43279077  1
  Zn  Zn147  1  0.94133827  0.18125165  0.93244073  1
  Zn  Zn148  1  0.93851960  0.67895849  0.43449102  1
  Zn  Zn149  1  0.94398899  0.68127372  0.94482688  1
  Zn  Zn150  1  0.05614501  0.31528802  0.05748669  1
  Zn  Zn151  1  0.06162437  0.32518216  0.56224101  1
  Zn  Zn152  1  0.06612858  0.81348642  0.06584544  1
  Zn  Zn153  1  0.05334413  0.81231297  0.56930720  1
  Zn  Zn154  1  0.55470865  0.31330033  0.05999681  1
  Zn  Zn155  1  0.55635280  0.30596480  0.56501072  1
  Zn  Zn156  1  0.56372368  0.80495760  0.06059249  1
  Zn  Zn157  1  0.56959327  0.80612914  0.56216153  1
  O  O158  1  0.12044910  0.11534041  0.12418044  1
  O  O159  1  0.11022633  0.11541851  0.61091869  1
  O  O160  1  0.12700682  0.61767577  0.12530307  1
  O  O161  1  0.10485264  0.64083081  0.62978477  1
  O  O162  1  0.61245893  0.13706796  0.13423955  1
  O  O163  1  0.60333103  0.10926816  0.66121026  1
  O  O164  1  0.61567917  0.61676512  0.11754872  1
  O  O165  1  0.62013332  0.62018553  0.61435822  1
  O  O166  1  0.38753605  0.37355435  0.37840623  1
  O  O167  1  0.38443371  0.38506166  0.87951728  1
  O  O168  1  0.38850996  0.87793707  0.37759672  1
  O  O169  1  0.37618706  0.88583529  0.88600509  1
  O  O170  1  0.82692525  0.41056802  0.35583034  1
  O  O171  1  0.87739795  0.35776152  0.88003020  1
  O  O172  1  0.88435834  0.88556518  0.36697551  1
  O  O173  1  0.87526239  0.88177231  0.88710565  1
  O  O174  1  0.26676508  -0.00950686  0.37119269  1
  O  O175  1  0.25373701  0.01064434  0.86905810  1
  O  O176  1  0.24385539  0.50970498  0.36039996  1
  O  O177  1  0.25903438  0.51357758  0.86972845  1
  O  O178  1  0.75639880  -0.01152454  0.35408475  1
  O  O179  1  0.76798603  -0.00271175  0.86715290  1
  O  O180  1  0.76584897  0.45749569  0.35876194  1
  O  O181  1  0.75203907  0.49569644  0.86745803  1
  O  O182  1  0.24142226  0.50710451  0.14395464  1
  O  O183  1  0.24473120  0.50276227  0.64112630  1
  O  O184  1  0.23890133  0.99698557  0.12094877  1
  O  O185  1  0.24428567  0.99571336  0.62986315  1
  O  O186  1  0.73035021  0.48845339  0.11625428  1
  O  O187  1  0.73960123  0.50728498  0.63693733  1
  O  O188  1  0.75242075  0.98748546  0.13107436  1
  O  O189  1  0.73700238  1.01489310  0.63238382  1
  O  O190  1  0.01861087  0.37145610  0.24495213  1
  O  O191  1  0.00557790  0.36952853  0.76308878  1
  O  O192  1  -0.00111380  0.86502422  0.25830163  1
  O  O193  1  0.01515419  0.88773389  0.75087937  1
  O  O194  1  0.50064813  0.36524501  0.26238363  1
  O  O195  1  0.50450658  0.37867907  0.75819860  1
  O  O196  1  0.49882216  0.86809355  0.25145482  1
  O  O197  1  0.50612118  0.86508203  0.75619840  1
  O  O198  1  0.48827076  0.13516790  0.24343541  1
  O  O199  1  0.47370227  0.12414913  0.74410139  1
  O  O200  1  0.48434420  0.62126764  0.24353871  1
  O  O201  1  0.49557390  0.63628367  0.74174946  1
  O  O202  1  0.99393445  0.12325464  0.23940203  1
  O  O203  1  0.99926185  0.13300384  0.74255833  1
  O  O204  1  0.98973884  0.64190070  0.25395076  1
  O  O205  1  1.00201872  0.62759011  0.75632802  1
  O  O206  1  0.37099397  0.25713888  0.00823504  1
  O  O207  1  0.35883802  0.24491600  0.48955968  1
  O  O208  1  0.36952495  0.75966478  0.01006513  1
  O  O209  1  0.36639435  0.75762994  0.50625045  1
  O  O210  1  0.88990356  0.24563897  0.00972133  1
  O  O211  1  0.86262175  0.24584655  0.49007608  1
  O  O212  1  0.88075905  0.75534093  0.00857264  1
  O  O213  1  0.86014539  0.74716251  0.48591293  1
  O  O214  1  0.12466952  0.24805511  0.49012648  1
  O  O215  1  0.13334756  0.25252499  0.99140374  1
  O  O216  1  0.13619611  0.76121032  0.50418904  1
  O  O217  1  0.13964732  0.76265071  0.99092283  1
  O  O218  1  0.63472062  0.25287442  0.49151975  1
  O  O219  1  0.65520082  0.28447670  1.00895646  1
  O  O220  1  0.64039660  0.73963162  0.49948611  1
  O  O221  1  0.62590757  0.73976005  0.98978440  1
  O  O222  1  0.49181736  0.24507729  0.13569691  1
  O  O223  1  0.49792180  0.22625002  0.61798979  1
  O  O224  1  0.48866089  0.74157714  0.12496439  1
  O  O225  1  0.49559994  0.74377624  0.63506223  1
  O  O226  1  0.99676494  0.23875881  0.12776438  1
  O  O227  1  1.01198609  0.24122368  0.63302697  1
  O  O228  1  0.99049550  0.75903664  0.13650495  1
  O  O229  1  0.98592133  0.74102684  0.62440581  1
  O  O230  1  0.01509163  0.24549891  0.37031610  1
  O  O231  1  0.00737309  0.25692165  0.86869042  1
  O  O232  1  -0.00310434  0.76232234  0.36425862  1
  O  O233  1  0.01869088  0.75444044  0.88623439  1
  O  O234  1  0.50298762  0.25592911  0.37324939  1
  O  O235  1  0.49635943  0.25924476  0.86901259  1
  O  O236  1  0.51259689  0.76174139  0.37787133  1
  O  O237  1  0.50963156  0.74773921  0.86432796  1
  O  O238  1  0.23754094  0.13932885  0.50777477  1
  O  O239  1  0.24986808  0.13871735  0.99162726  1
  O  O240  1  0.23467113  0.63322425  0.49376386  1
  O  O241  1  0.25943437  0.63929871  0.99353571  1
  O  O242  1  0.74078677  0.14188420  0.50309785  1
  O  O243  1  0.74595820  0.12138753  0.98061384  1
  O  O244  1  0.74084066  0.62830438  0.49989090  1
  O  O245  1  0.72922306  0.62889122  1.00892576  1
  O  O246  1  0.26617781  0.36178717  -0.00889216  1
  O  O247  1  0.24982703  0.36805178  0.50606355  1
  O  O248  1  0.26260251  0.86896764  0.01165293  1
  O  O249  1  0.25895880  0.86942161  0.50454222  1
  O  O250  1  0.70872312  0.34816041  0.01110786  1
  O  O251  1  0.75648200  0.35573497  0.50378431  1
  O  O252  1  0.76510775  0.87175432  0.01053856  1
  O  O253  1  0.75017963  0.86455586  0.49990603  1
  O  O254  1  0.13163743  0.48777557  0.23854554  1
  O  O255  1  0.13185425  0.49506408  0.77294057  1
  O  O256  1  0.12312715  1.00336618  0.23743845  1
  O  O257  1  0.13590309  0.99732204  0.74596150  1
  O  O258  1  0.62461209  0.50515807  0.23789240  1
  O  O259  1  0.63142930  0.49650588  0.74282600  1
  O  O260  1  0.63826095  1.00494317  0.24224407  1
  O  O261  1  0.62365845  0.97880194  0.76378036  1
  O  O262  1  0.37823643  0.00728304  0.26056526  1
  O  O263  1  0.36088765  -0.01190370  0.76158196  1
  O  O264  1  0.36401320  0.51048186  0.24476953  1
  O  O265  1  0.36325837  0.50941239  0.75918282  1
  O  O266  1  0.86987466  0.00382552  0.25104573  1
  O  O267  1  0.88233659  0.01086110  0.75755487  1
  O  O268  1  0.88504378  0.51691332  0.23224247  1
  O  O269  1  0.85248269  0.50072759  0.76169346  1
  O  O270  1  0.12557644  0.36532311  0.36607280  1
  O  O271  1  0.13043423  0.36766775  0.86843133  1
  O  O272  1  0.11344415  0.87924269  0.36970097  1
  O  O273  1  0.13430975  0.86906274  0.87098767  1
  O  O274  1  0.61302273  0.36159219  0.37634569  1
  O  O275  1  0.60686718  0.37909067  0.86061724  1
  O  O276  1  0.61461518  0.86372396  0.36991305  1
  O  O277  1  0.62482614  0.86174112  0.86850238  1
  O  O278  1  0.38461104  0.13549274  0.13104530  1
  O  O279  1  0.37539048  0.11871988  0.62026302  1
  O  O280  1  0.37926608  0.63294995  0.12947079  1
  O  O281  1  0.38059787  0.63381950  0.63194877  1
  O  O282  1  0.88735753  0.12455239  0.12913448  1
  O  O283  1  0.89100492  0.11671664  0.63228028  1
  O  O284  1  0.87489993  0.64019301  0.11808139  1
  O  O285  1  0.88880974  0.63811620  0.62895641  1
  O  O286  1  0.26157400  0.24468501  0.11666906  1
  O  O287  1  0.24940281  0.26268617  0.60993289  1
  O  O288  1  0.25925698  0.75769693  0.11945070  1
  O  O289  1  0.25485182  0.75527208  0.61876654  1
  O  O290  1  0.77478861  0.22713291  0.11287956  1
  O  O291  1  0.75755753  0.24562888  0.62051344  1
  O  O292  1  0.76318232  0.75953259  0.12420848  1
  O  O293  1  0.76685246  0.74299002  0.61079413  1
  O  O294  1  0.23607105  0.25496324  0.38965683  1
  O  O295  1  0.24492088  0.24579066  0.88099048  1
  O  O296  1  0.25448257  0.73977552  0.38605181  1
  O  O297  1  0.25451184  0.74846406  0.88597411  1
  O  O298  1  0.73372325  0.25015085  0.37528185  1
  O  O299  1  0.75768352  0.24420723  0.87412436  1
  O  O300  1  0.73418804  0.75843273  0.38324444  1
  O  O301  1  0.73834663  0.74900349  0.87625277  1
  O  O302  1  0.00435644  0.11466127  0.00972590  1
  O  O303  1  0.00495609  0.11584502  0.50278060  1
  O  O304  1  0.01589747  0.59696389  -0.04439158  1
  O  O305  1  0.00438774  0.60663630  0.49036016  1
  O  O306  1  0.51254697  0.14202631  0.01426251  1
  O  O307  1  0.51255077  0.13489310  0.52318177  1
  O  O308  1  0.50991696  0.63102007  0.01007088  1
  O  O309  1  0.51220359  0.63753025  0.51240816  1
  O  O310  1  0.49527820  0.37139210  0.49135064  1
  O  O311  1  0.48917262  0.37058769  0.98174885  1
  O  O312  1  0.48959198  0.86593570  0.50139896  1
  O  O313  1  0.48758929  0.86964239  1.00055946  1
  O  O314  1  0.99130136  0.38712494  0.50032121  1
  O  O315  1  1.00378035  0.38380302  0.98101291  1
  O  O316  1  1.00470321  0.88552099  0.48699170  1
  O  O317  1  0.99276551  0.88582788  1.00876656  1
  O  O318  1  0.50925479  0.48250741  0.37176972  1
  O  O319  1  0.48493607  0.50214687  0.86905362  1
  O  O320  1  0.49637010  0.97934283  0.36653075  1
  O  O321  1  0.48561779  1.00781478  0.86888896  1
  O  O322  1  0.99528489  0.49117455  0.37186072  1
  O  O323  1  0.96558697  0.48087929  0.86013872  1
  O  O324  1  0.99495344  0.98854818  0.37676357  1
  O  O325  1  0.99175098  1.01166976  0.88576760  1
  O  O326  1  0.01203998  0.00372404  0.11894515  1
  O  O327  1  0.00373346  0.00407490  0.61357556  1
  O  O328  1  0.02295916  0.49160598  0.11884846  1
  O  O329  1  -0.00109351  0.52290460  0.63577114  1
  O  O330  1  0.50363345  0.02105431  0.13202403  1
  O  O331  1  0.49828301  0.01220053  0.62600108  1
  O  O332  1  0.50326952  0.51411413  0.12784515  1
  O  O333  1  0.51035346  0.51448823  0.63509132  1
  O  O334  1  0.24574038  0.38780117  0.25657451  1
  O  O335  1  0.24208726  0.38901963  0.74622203  1
  O  O336  1  0.25845693  0.86953055  0.23757788  1
  O  O337  1  0.24221559  0.88482539  0.74324787  1
  O  O338  1  0.72270058  0.33197918  0.21937779  1
  O  O339  1  0.72939464  0.38619613  0.74871397  1
  O  O340  1  0.75816677  0.88352938  0.23485638  1
  O  O341  1  0.73812487  0.87342936  0.75131012  1
  O  O342  1  0.26603523  0.13147539  0.24946882  1
  O  O343  1  0.25269762  0.11625725  0.75746488  1
  O  O344  1  0.26057140  0.61899687  0.25870468  1
  O  O345  1  0.25543662  0.62524243  0.75835069  1
  O  O346  1  0.76024734  0.10961570  0.23841631  1
  O  O347  1  0.76544561  0.12783919  0.75984164  1
  O  O348  1  0.76599921  0.62278212  0.23920647  1
  O  O349  1  0.73702319  0.61452987  0.75341558  1
  O  O350  1  0.38552608  0.10672680  0.37122450  1
  O  O351  1  0.36328870  0.11836767  0.88396020  1
  O  O352  1  0.37466156  0.63135358  0.36307278  1
  O  O353  1  0.36918211  0.62429110  0.87246398  1
  O  O354  1  0.88360919  0.10871193  0.35895379  1
  O  O355  1  0.86875983  0.11891448  0.86735944  1
  O  O356  1  0.87069603  0.62200070  0.35921497  1
  O  O357  1  0.86326126  0.61886553  0.87915753  1
  O  O358  1  0.13250718  0.36521040  0.13544741  1
  O  O359  1  0.13386442  0.37520493  0.64196473  1
  O  O360  1  0.13471841  0.88857441  0.12357720  1
  O  O361  1  0.12794210  0.88173376  0.63319448  1
  O  O362  1  0.59928064  0.39721865  0.12715967  1
  O  O363  1  0.60945766  0.38719949  0.63485038  1
  O  O364  1  0.64331951  0.86650664  0.11998974  1
  O  O365  1  0.61813068  0.87502537  0.64145275  1
  O  O366  1  0.13327316  0.26012481  0.26118857  1
  O  O367  1  0.11523103  0.26405365  0.76206304  1
  O  O368  1  0.11196065  0.74573470  0.24129326  1
  O  O369  1  0.13216812  0.76494270  0.76767606  1
  O  O370  1  0.60788661  0.24359484  0.26523537  1
  O  O371  1  0.62936120  0.26533913  0.73868678  1
  O  O372  1  0.62948744  0.73622119  0.26409521  1
  O  O373  1  0.62028337  0.75572875  0.75416999  1
  O  O374  1  0.37918317  0.24608599  0.24665758  1
  O  O375  1  0.37207034  0.26007295  0.74875144  1
  O  O376  1  0.36754006  0.73586007  0.24128186  1
  O  O377  1  0.38143522  0.75020239  0.74683282  1
  O  O378  1  0.87653921  0.23557105  0.24448201  1
  O  O379  1  0.89001036  0.23803123  0.75035410  1
  O  O380  1  0.87877772  0.74247410  0.23828930  1
  O  O381  1  0.87091249  0.74929042  0.74450022  1
  O  O382  1  0.37826815  0.51940624  0.49624630  1
  O  O383  1  0.36556124  0.49057262  0.99297796  1
  O  O384  1  0.37355708  0.98793209  0.48347229  1
  O  O385  1  0.36886213  0.99327177  0.99303338  1
  O  O386  1  0.88796365  0.49859514  0.50106715  1
  O  O387  1  0.86511209  0.49986819  0.98638130  1
  O  O388  1  0.88421306  1.00841124  0.48625159  1
  O  O389  1  0.88394480  0.99393609  0.99447357  1
  O  O390  1  0.11861064  0.00142444  0.00552283  1
  O  O391  1  0.11841302  0.00615708  0.50112885  1
  O  O392  1  0.14605331  0.49676350  0.01827732  1
  O  O393  1  0.10521113  0.49391606  0.49502165  1
  O  O394  1  0.62306058  -0.00680699  0.00085871  1
  O  O395  1  0.62377985  0.00094225  0.49617796  1
  O  O396  1  0.62199507  0.51079114  0.00352128  1
  O  O397  1  0.63387219  0.51147611  0.50751060  1
  O  O398  1  0.38684982  0.36511589  0.11712099  1
  O  O399  1  0.35762398  0.38886292  0.62099777  1
  O  O400  1  0.37184755  0.87144284  0.12100836  1
  O  O401  1  0.36995387  0.87212715  0.61860754  1
  O  O402  1  0.87619439  0.35516804  0.12850535  1
  O  O403  1  0.88673898  0.36941689  0.63842866  1
  O  O404  1  0.86968900  0.86614475  0.11716770  1
  O  O405  1  0.88151397  0.85669273  0.62569354  1
  O  O406  1  0.12222581  0.13223203  0.38567392  1
  O  O407  1  0.13549866  0.13777390  0.87477371  1
  O  O408  1  0.13298853  0.62466966  0.36242978  1
  O  O409  1  0.14321996  0.64704054  0.86967995  1
  O  O410  1  0.61307408  0.13869215  0.37601399  1
  O  O411  1  0.64191610  0.12995881  0.86251016  1
  O  O412  1  0.61591258  0.63635375  0.39003442  1
  O  O413  1  0.61742740  0.62753738  0.88648348  1
