# generated using pymatgen
data_V79Zn79O256
_symmetry_space_group_name_H-M   'P 1'
_cell_length_a   16.89132489
_cell_length_b   16.88823189
_cell_length_c   16.89682282
_cell_angle_alpha   90.01169662
_cell_angle_beta   90.08580256
_cell_angle_gamma   89.97388788
_symmetry_Int_Tables_number   1
_chemical_formula_structural   V79Zn79O256
_chemical_formula_sum   'V79 Zn79 O256'
_cell_volume   4820.05959343
_cell_formula_units_Z   1
loop_
 _symmetry_equiv_pos_site_id
 _symmetry_equiv_pos_as_xyz
  1  'x, y, z'
loop_
 _atom_site_type_symbol
 _atom_site_label
 _atom_site_symmetry_multiplicity
 _atom_site_fract_x
 _atom_site_fract_y
 _atom_site_fract_z
 _atom_site_occupancy
  V  V0  1  -0.00444504  0.87408197  0.87390673  1
  V  V1  1  0.62061263  0.61978312  0.49866519  1
  V  V2  1  0.37637308  0.37678261  0.01780988  1
  V  V3  1  0.75375194  0.75507700  0.00264773  1
  V  V4  1  0.64158429  0.50054909  0.63111948  1
  V  V5  1  0.13336099  0.12144924  -0.00417600  1
  V  V6  1  0.24998080  -0.00014168  0.24849272  1
  V  V7  1  0.25164087  0.37443741  0.62474882  1
  V  V8  1  0.50253311  0.62545043  0.12471760  1
  V  V9  1  0.00462028  0.37303416  0.87588257  1
  V  V10  1  0.87272741  0.48971306  0.37008575  1
  V  V11  1  0.62367073  0.00273998  0.12333552  1
  V  V12  1  0.75001326  0.00942197  0.26409360  1
  V  V13  1  0.39013274  0.25130656  0.62925126  1
  V  V14  1  0.62947151  0.12587740  0.00124927  1
  V  V15  1  0.00262332  0.24032728  0.74672622  1
  V  V16  1  0.87681334  0.11816894  0.74847977  1
  V  V17  1  0.75158396  0.62464772  0.36963119  1
  V  V18  1  0.25267605  0.24061931  0.49645195  1
  V  V19  1  0.87815847  0.50069249  0.86523505  1
  V  V20  1  0.62548736  0.87432470  0.24979926  1
  V  V21  1  0.12902706  0.00127003  0.12648823  1
  V  V22  1  0.12362379  0.49630054  0.62281047  1
  V  V23  1  0.87837958  0.76151701  0.12847569  1
  V  V24  1  0.24818868  0.63489154  0.37466175  1
  V  V25  1  0.50445253  0.75141223  0.74949321  1
  V  V26  1  0.37054457  0.87459614  0.00155650  1
  V  V27  1  0.12814876  0.37170143  0.74894716  1
  V  V28  1  0.25917263  0.24995502  0.01471928  1
  V  V29  1  0.50022615  0.75004564  0.25267376  1
  V  V30  1  0.62281065  0.24651881  0.86887386  1
  V  V31  1  0.24715786  0.62083901  0.87448690  1
  V  V32  1  0.36511982  0.00549958  0.87482244  1
  V  V33  1  0.38151865  0.12764958  0.23376084  1
  V  V34  1  0.73386636  -0.00298193  0.75597435  1
  V  V35  1  0.50048525  0.25119249  0.23783821  1
  V  V36  1  0.76213391  0.75567007  0.50711585  1
  V  V37  1  0.12710862  0.63602035  0.49506383  1
  V  V38  1  0.39241473  0.00136069  0.37356970  1
  V  V39  1  -0.02247521  0.89672971  0.39478582  1
  V  V40  1  0.50579072  0.38242034  0.37646204  1
  V  V41  1  0.36224784  0.75331374  0.61865123  1
  V  V42  1  0.38048131  0.74951863  0.12627316  1
  V  V43  1  0.87753121  0.37316820  0.00007496  1
  V  V44  1  0.86298786  0.25570804  0.62937138  1
  V  V45  1  0.49798809  0.61899997  0.62135616  1
  V  V46  1  0.49680091  0.37033349  0.86588202  1
  V  V47  1  0.62292425  0.75597980  0.37810427  1
  V  V48  1  0.11113592  0.11759806  0.50549113  1
  V  V49  1  -0.00458922  0.63650538  0.62498627  1
  V  V50  1  0.37948783  0.87382833  0.48785761  1
  V  V51  1  0.12379338  0.87481382  0.73963400  1
  V  V52  1  0.49742137  0.00652855  0.00352327  1
  V  V53  1  0.62902886  0.61922138  -0.00132443  1
  V  V54  1  0.75101720  0.37804281  0.13062148  1
  V  V55  1  0.00014962  0.48651079  0.49539555  1
  V  V56  1  0.38738420  0.13213043  0.75130137  1
  V  V57  1  0.50307692  0.87344224  0.87207978  1
  V  V58  1  0.37231698  0.50468325  0.36857128  1
  V  V59  1  0.37657274  0.38318842  0.50093538  1
  V  V60  1  0.88187997  0.62768393  0.25061879  1
  V  V61  1  0.61963382  0.23340067  0.37809617  1
  V  V62  1  -0.00484984  -0.00429144  0.00421093  1
  V  V63  1  0.19858930  0.82021136  0.17819551  1
  V  V64  1  0.87448094  0.00639522  0.87817766  1
  V  V65  1  0.88001423  0.64105015  0.74756003  1
  V  V66  1  0.37309184  0.62181307  0.75308189  1
  V  V67  1  0.75405509  0.24669115  0.00035102  1
  V  V68  1  0.14431905  0.36676061  0.25048595  1
  V  V69  1  0.60936620  0.10978622  0.52264623  1
  V  V70  1  0.75278330  0.62311465  0.86880343  1
  V  V71  1  0.13961747  0.24470577  0.87274949  1
  V  V72  1  0.24567324  0.74849220  -0.00639315  1
  V  V73  1  0.24674895  0.00838941  0.74015572  1
  V  V74  1  0.11959595  0.74841475  0.87172302  1
  V  V75  1  0.49865014  0.50103109  -0.00804555  1
  V  V76  1  0.25203693  0.49929454  0.75118969  1
  V  V77  1  0.00424315  0.62095108  0.12076001  1
  V  V78  1  0.74455880  0.87801463  0.63075813  1
  Zn  Zn79  1  0.11992865  0.25226080  0.37207103  1
  Zn  Zn80  1  0.06908079  0.79507007  0.30916198  1
  Zn  Zn81  1  0.23992750  0.88117505  0.61070826  1
  Zn  Zn82  1  -0.00778986  0.14837292  0.14321002  1
  Zn  Zn83  1  0.85974654  0.38160064  0.51765544  1
  Zn  Zn84  1  0.64212562  0.50187424  0.14703885  1
  Zn  Zn85  1  0.13495513  0.48884530  0.12006013  1
  Zn  Zn86  1  0.74214013  0.24852216  0.49670074  1
  Zn  Zn87  1  0.25728835  0.49618779  0.24245838  1
  Zn  Zn88  1  0.01247115  0.50705635  -0.00674505  1
  Zn  Zn89  1  0.64238242  0.36935419  0.73547962  1
  Zn  Zn90  1  0.25234862  0.12106668  0.37480840  1
  Zn  Zn91  1  0.62905827  0.75263323  0.87283715  1
  Zn  Zn92  1  0.75639428  0.88083744  0.12270715  1
  Zn  Zn93  1  0.87219711  0.12785014  0.25231084  1
  Zn  Zn94  1  0.18900875  0.18320936  0.18757675  1
  Zn  Zn95  1  0.19259042  0.18464027  0.67951640  1
  Zn  Zn96  1  0.21095585  0.64302018  0.16604301  1
  Zn  Zn97  1  0.18085602  0.68640921  0.68723356  1
  Zn  Zn98  1  0.68487871  0.19151606  0.18348890  1
  Zn  Zn99  1  0.68432586  0.17698627  0.69150737  1
  Zn  Zn100  1  0.69006742  0.68785724  0.18703257  1
  Zn  Zn101  1  0.68752271  0.68565926  0.68670342  1
  Zn  Zn102  1  0.32019413  0.31329426  0.31023930  1
  Zn  Zn103  1  0.31766579  0.31495328  0.81513350  1
  Zn  Zn104  1  0.31719840  0.80902540  0.31722222  1
  Zn  Zn105  1  0.31131309  0.81476840  0.80813169  1
  Zn  Zn106  1  0.81401487  0.29578201  0.31591923  1
  Zn  Zn107  1  0.81200542  0.30642806  0.81315376  1
  Zn  Zn108  1  0.81907609  0.81916339  0.31290151  1
  Zn  Zn109  1  0.80927426  0.81438980  0.81252433  1
  Zn  Zn110  1  0.18971153  0.43601821  0.43501505  1
  Zn  Zn111  1  0.19168424  0.43497906  0.94122486  1
  Zn  Zn112  1  0.18567987  0.93345173  0.43567390  1
  Zn  Zn113  1  0.18541587  0.93244748  0.93292883  1
  Zn  Zn114  1  0.69221887  0.43549367  0.44282545  1
  Zn  Zn115  1  0.70668852  0.41813720  0.90274550  1
  Zn  Zn116  1  0.68492608  0.93851958  0.44475897  1
  Zn  Zn117  1  0.68750723  0.93828455  0.93682575  1
  Zn  Zn118  1  0.30920940  0.06149780  0.06238502  1
  Zn  Zn119  1  0.36440896  0.04665672  0.57779522  1
  Zn  Zn120  1  0.31952403  0.55931312  0.05446021  1
  Zn  Zn121  1  0.31166552  0.56350559  0.56190086  1
  Zn  Zn122  1  0.81601921  0.06638787  0.07127595  1
  Zn  Zn123  1  0.78891462  0.07652354  0.57652949  1
  Zn  Zn124  1  0.81934323  0.55945361  0.05810869  1
  Zn  Zn125  1  0.81439902  0.57015611  0.55708223  1
  Zn  Zn126  1  0.46774834  0.45006892  0.19936978  1
  Zn  Zn127  1  0.44222091  0.43801291  0.68769116  1
  Zn  Zn128  1  0.43936786  0.93418075  0.18720400  1
  Zn  Zn129  1  0.44320949  0.93478829  0.68815060  1
  Zn  Zn130  1  0.93655556  0.43688146  0.18689851  1
  Zn  Zn131  1  0.94025292  0.43946904  0.68948150  1
  Zn  Zn132  1  0.96412356  0.97582192  0.22722901  1
  Zn  Zn133  1  0.92211189  0.91586841  0.69456147  1
  Zn  Zn134  1  0.06517282  0.06608039  0.32783829  1
  Zn  Zn135  1  0.06403907  0.05923315  0.81457625  1
  Zn  Zn136  1  0.06519910  0.55424324  0.30870932  1
  Zn  Zn137  1  0.06370797  0.56278816  0.80804404  1
  Zn  Zn138  1  0.56451522  0.06510247  0.30795043  1
  Zn  Zn139  1  0.55563832  0.06363373  0.81836995  1
  Zn  Zn140  1  0.56367490  0.56341468  0.31356271  1
  Zn  Zn141  1  0.56403827  0.56297810  0.81088493  1
  Zn  Zn142  1  0.43974611  0.18856580  0.43692372  1
  Zn  Zn143  1  0.43601385  0.18903999  0.93746496  1
  Zn  Zn144  1  0.43697457  0.68822845  0.43847963  1
  Zn  Zn145  1  0.43535716  0.68816355  0.93609965  1
  Zn  Zn146  1  0.92918815  0.19239648  0.42928401  1
  Zn  Zn147  1  0.95823275  0.20028733  0.96978360  1
  Zn  Zn148  1  0.94213611  0.68733216  0.43503690  1
  Zn  Zn149  1  0.93544611  0.68990069  0.94094642  1
  Zn  Zn150  1  0.07109572  0.31356230  0.06657989  1
  Zn  Zn151  1  0.06207607  0.30258185  0.56319019  1
  Zn  Zn152  1  0.05452167  0.80824169  0.05827716  1
  Zn  Zn153  1  0.05630440  0.81650647  0.54931853  1
  Zn  Zn154  1  0.56992345  0.31913325  0.05828203  1
  Zn  Zn155  1  0.56639470  0.31880621  0.55752943  1
  Zn  Zn156  1  0.56599792  0.81489768  0.05843131  1
  Zn  Zn157  1  0.56105714  0.81444339  0.56550186  1
  O  O158  1  0.12724858  0.11552602  0.11271728  1
  O  O159  1  0.12259869  0.13548998  0.60589648  1
  O  O160  1  0.10290010  0.63637744  0.13185851  1
  O  O161  1  0.11641931  0.61765084  0.61597392  1
  O  O162  1  0.62204744  0.11477285  0.11351357  1
  O  O163  1  0.61167238  0.12615116  0.62370599  1
  O  O164  1  0.61905583  0.62306699  0.11815586  1
  O  O165  1  0.61845406  0.61895037  0.61771917  1
  O  O166  1  0.37779485  0.38665818  0.38304898  1
  O  O167  1  0.39319418  0.36958574  0.88118598  1
  O  O168  1  0.37824657  0.88146735  0.38032805  1
  O  O169  1  0.38049226  0.88149710  0.88259098  1
  O  O170  1  0.86581023  0.38994614  0.37378575  1
  O  O171  1  0.88718622  0.38225490  0.87632460  1
  O  O172  1  0.87479153  0.88162278  0.38545150  1
  O  O173  1  0.88926186  0.88284761  0.86430992  1
  O  O174  1  0.25953085  -0.00392381  0.35744848  1
  O  O175  1  0.26052845  -0.00701105  0.86620404  1
  O  O176  1  0.26302520  0.50371639  0.37402618  1
  O  O177  1  0.24298526  0.51179714  0.86724034  1
  O  O178  1  0.73740521  -0.00083422  0.36269668  1
  O  O179  1  0.76138564  -0.01307432  0.86425768  1
  O  O180  1  0.76422244  0.51234624  0.38650308  1
  O  O181  1  0.76515575  0.51723707  0.88523281  1
  O  O182  1  0.24367576  0.53604153  0.13332554  1
  O  O183  1  0.24398884  0.49415600  0.63022131  1
  O  O184  1  0.24346906  0.99702666  0.13274921  1
  O  O185  1  0.26374025  0.99747960  0.63912657  1
  O  O186  1  0.75624090  0.48680220  0.12368103  1
  O  O187  1  0.74093735  0.50840533  0.62131182  1
  O  O188  1  0.73526634  0.99741444  0.12608553  1
  O  O189  1  0.74881221  0.98807715  0.64139430  1
  O  O190  1  0.00725291  0.36631445  0.25505195  1
  O  O191  1  0.00793318  0.36583023  0.75964090  1
  O  O192  1  -0.00834521  0.87775805  0.27380045  1
  O  O193  1  0.01552644  0.88612246  0.75543398  1
  O  O194  1  0.48210282  0.35700369  0.26780530  1
  O  O195  1  0.50877484  0.38161424  0.76431572  1
  O  O196  1  0.51310744  0.86244749  0.24384280  1
  O  O197  1  0.48868769  0.86347481  0.76028422  1
  O  O198  1  0.48937153  0.13416404  0.24943275  1
  O  O199  1  0.48603508  0.12403847  0.75080728  1
  O  O200  1  0.50551318  0.63966543  0.23604325  1
  O  O201  1  0.48965590  0.63052362  0.74552310  1
  O  O202  1  0.99089449  0.09300802  0.24295099  1
  O  O203  1  0.99373819  0.13125531  0.75732135  1
  O  O204  1  0.98949624  0.62466451  0.24541141  1
  O  O205  1  0.99801639  0.62268502  0.73268037  1
  O  O206  1  0.36803603  0.25804551  0.00059834  1
  O  O207  1  0.36936714  0.25812727  0.50878143  1
  O  O208  1  0.36803132  0.75705140  0.00495561  1
  O  O209  1  0.37403433  0.75631862  0.51024704  1
  O  O210  1  0.86213393  0.26132099  -0.02273891  1
  O  O211  1  0.87294684  0.24685653  0.52406175  1
  O  O212  1  0.86436265  0.74438064  0.01489128  1
  O  O213  1  0.85924510  0.73912500  0.49982134  1
  O  O214  1  0.14210632  0.25149345  0.49630882  1
  O  O215  1  0.14311827  0.24467190  0.99194900  1
  O  O216  1  0.12666560  0.73430503  0.50492896  1
  O  O217  1  0.13711225  0.75723934  0.98910074  1
  O  O218  1  0.61505230  0.24349338  0.48753307  1
  O  O219  1  0.62934049  0.24019268  0.99727273  1
  O  O220  1  0.62740723  0.74201986  0.49083911  1
  O  O221  1  0.63226703  0.73714132  0.99926263  1
  O  O222  1  0.50623910  0.26267743  0.13949782  1
  O  O223  1  0.48869768  0.26345354  0.62568504  1
  O  O224  1  0.49788210  0.74493167  0.12736993  1
  O  O225  1  0.49065249  0.74061839  0.63298505  1
  O  O226  1  0.99536141  0.23523846  0.07567368  1
  O  O227  1  0.99218859  0.25377152  0.64277413  1
  O  O228  1  0.98454909  0.74172880  0.12044298  1
  O  O229  1  1.00279229  0.73453580  0.61630935  1
  O  O230  1  0.00018707  0.28168430  0.36321064  1
  O  O231  1  0.01421104  0.25596738  0.86991286  1
  O  O232  1  -0.00516164  0.77076852  0.38788957  1
  O  O233  1  0.00983813  0.75834456  0.88361261  1
  O  O234  1  0.50614144  0.26006849  0.36912551  1
  O  O235  1  0.50820067  0.25938081  0.87944894  1
  O  O236  1  0.50921452  0.73998715  0.36392575  1
  O  O237  1  0.49690661  0.75696784  0.86721772  1
  O  O238  1  0.25341240  0.13904179  0.50411383  1
  O  O239  1  0.24731862  0.13742367  1.00089471  1
  O  O240  1  0.23328770  0.61496105  0.49369106  1
  O  O241  1  0.25982167  0.63846837  0.98633285  1
  O  O242  1  0.72429554  0.13627960  0.50913256  1
  O  O243  1  0.73875088  0.13020207  1.00244513  1
  O  O244  1  0.74050614  0.63639447  0.49160870  1
  O  O245  1  0.74636881  0.63235601  0.99386510  1
  O  O246  1  0.26695201  0.36396563  -0.00310398  1
  O  O247  1  0.25906947  0.36910834  0.50626743  1
  O  O248  1  0.26083491  0.86357403  -0.00752617  1
  O  O249  1  0.26796021  0.88030418  0.50032064  1
  O  O250  1  0.76073730  0.36867548  0.00076641  1
  O  O251  1  0.75054874  0.36196555  0.50186746  1
  O  O252  1  0.74217893  0.85972535  0.00142424  1
  O  O253  1  0.74722756  0.86279606  0.50889341  1
  O  O254  1  0.13058256  0.48483431  0.24683613  1
  O  O255  1  0.13120584  0.49190156  0.74263011  1
  O  O256  1  0.13929531  1.00784187  0.23909995  1
  O  O257  1  0.13774205  0.99059016  0.75427897  1
  O  O258  1  0.57606517  0.48675274  0.23524092  1
  O  O259  1  0.62723058  0.50776256  0.73332170  1
  O  O260  1  0.62599063  0.99304879  0.24112693  1
  O  O261  1  0.63516575  1.00340607  0.76334555  1
  O  O262  1  0.37392879  0.00582087  0.25289416  1
  O  O263  1  0.36589048  0.01086345  0.75765220  1
  O  O264  1  0.37812013  0.49940646  0.26513305  1
  O  O265  1  0.36858006  0.51368441  0.74148669  1
  O  O266  1  0.84986799  -0.00090702  0.24717492  1
  O  O267  1  0.87546519  0.00403207  0.75775652  1
  O  O268  1  0.88030923  0.50725475  0.26507789  1
  O  O269  1  0.88268885  0.51129122  0.76065005  1
  O  O270  1  0.13537700  0.37141086  0.35898528  1
  O  O271  1  0.12305202  0.36565639  0.86848218  1
  O  O272  1  0.10335564  0.88200558  0.38066516  1
  O  O273  1  0.11710698  0.86760885  0.86438884  1
  O  O274  1  0.60628167  0.38336146  0.38025108  1
  O  O275  1  0.60873754  0.35795230  0.89012248  1
  O  O276  1  0.62815944  0.86261833  0.36793706  1
  O  O277  1  0.60729128  0.87286081  0.88224711  1
  O  O278  1  0.37793260  0.11995334  0.13473159  1
  O  O279  1  0.36830203  0.13958402  0.64243724  1
  O  O280  1  0.38797440  0.64096994  0.11365907  1
  O  O281  1  0.37853362  0.63389034  0.62806790  1
  O  O282  1  0.87527347  0.13318628  0.13683714  1
  O  O283  1  0.87098660  0.13652770  0.64228915  1
  O  O284  1  0.88113657  0.62694654  0.13515634  1
  O  O285  1  0.88807438  0.62109197  0.63111655  1
  O  O286  1  0.25102226  0.25068053  0.11272313  1
  O  O287  1  0.26059057  0.25826685  0.61607465  1
  O  O288  1  0.25579820  0.74780813  0.11940439  1
  O  O289  1  0.26067716  0.74676510  0.62845813  1
  O  O290  1  0.74521456  0.25956666  0.10841010  1
  O  O291  1  0.76203065  0.25116816  0.64336220  1
  O  O292  1  0.75936723  0.74990729  0.11887573  1
  O  O293  1  0.74549382  0.74960369  0.61176787  1
  O  O294  1  0.26338556  0.24893463  0.39140612  1
  O  O295  1  0.24256274  0.25358474  0.87802787  1
  O  O296  1  0.25879992  0.73458041  0.37934799  1
  O  O297  1  0.24216298  0.74476088  0.87707729  1
  O  O298  1  0.71571385  0.26505576  0.36957062  1
  O  O299  1  0.73068175  0.25053710  0.88775714  1
  O  O300  1  0.74167202  0.74378069  0.38359990  1
  O  O301  1  0.75166880  0.74210481  0.88404712  1
  O  O302  1  0.01730595  0.10319622  -0.00587704  1
  O  O303  1  0.01315237  0.14280994  0.48527858  1
  O  O304  1  -0.00736704  0.62342994  0.01529669  1
  O  O305  1  0.00954094  0.61569540  0.50785333  1
  O  O306  1  0.50371478  0.11172847  -0.00407539  1
  O  O307  1  0.50934896  0.12537899  0.49826212  1
  O  O308  1  0.50749600  0.62234243  0.00031363  1
  O  O309  1  0.50980397  0.63321899  0.50927582  1
  O  O310  1  0.48742430  0.36928960  0.48523672  1
  O  O311  1  0.49108145  0.38137189  0.99680570  1
  O  O312  1  0.47960903  0.86915329  0.50588512  1
  O  O313  1  0.48945417  0.88157290  0.99258023  1
  O  O314  1  0.99544591  0.38452945  0.50504329  1
  O  O315  1  0.99656068  0.37187863  0.98485881  1
  O  O316  1  0.99288969  0.88797655  0.49821885  1
  O  O317  1  1.00880514  0.88544526  0.98663799  1
  O  O318  1  0.48606784  0.49147585  0.37612162  1
  O  O319  1  0.50999177  0.48749007  0.88393935  1
  O  O320  1  0.49066553  0.99531813  0.36318200  1
  O  O321  1  0.48730952  0.99234811  0.88279774  1
  O  O322  1  0.98813242  0.50455059  0.38782777  1
  O  O323  1  0.99854160  0.49020810  0.87111048  1
  O  O324  1  0.98846307  0.99893511  0.37991432  1
  O  O325  1  0.99468922  0.99195776  0.88255892  1
  O  O326  1  0.01911603  -0.01241710  0.11523096  1
  O  O327  1  -0.05406480  0.00220635  0.57756016  1
  O  O328  1  0.00050078  0.51355384  0.12679860  1
  O  O329  1  0.00407480  0.50407685  0.61294997  1
  O  O330  1  0.50971947  -0.00874130  0.11318445  1
  O  O331  1  0.46515431  0.00753940  0.61267891  1
  O  O332  1  0.49117394  0.51581388  0.10493667  1
  O  O333  1  0.50373708  0.51573132  0.62669217  1
  O  O334  1  0.24931551  0.37537624  0.24500773  1
  O  O335  1  0.24832222  0.37948177  0.74544615  1
  O  O336  1  0.25577419  0.87809731  0.24231561  1
  O  O337  1  0.23905004  0.88405431  0.74683963  1
  O  O338  1  0.77311406  0.35742493  0.22696525  1
  O  O339  1  0.73722331  0.38670421  0.79288568  1
  O  O340  1  0.73695887  0.88245077  0.24760300  1
  O  O341  1  0.74536112  0.88313774  0.74533051  1
  O  O342  1  0.26575112  0.11753776  0.24979715  1
  O  O343  1  0.25040328  0.11184791  0.74998277  1
  O  O344  1  0.24578910  0.62038806  0.27345842  1
  O  O345  1  0.25434929  0.62045775  0.75425922  1
  O  O346  1  0.73872965  0.11159007  0.24653451  1
  O  O347  1  0.75825653  0.10418882  0.74912002  1
  O  O348  1  0.75622699  0.62657326  0.26263551  1
  O  O349  1  0.76107467  0.63364385  0.76094832  1
  O  O350  1  0.37571736  0.11029056  0.36841438  1
  O  O351  1  0.37690028  0.11787718  0.86469624  1
  O  O352  1  0.36372126  0.61219143  0.38988280  1
  O  O353  1  0.36253171  0.63289738  0.86255528  1
  O  O354  1  0.86114464  0.19547592  0.34121104  1
  O  O355  1  0.87788043  0.11001977  0.86693710  1
  O  O356  1  0.86926092  0.62106443  0.36858995  1
  O  O357  1  0.87496840  0.62125476  0.86728935  1
  O  O358  1  0.12124873  0.37391954  0.14368818  1
  O  O359  1  0.13079757  0.37599955  0.62998183  1
  O  O360  1  0.13329540  0.87572269  0.12158097  1
  O  O361  1  0.12352452  0.86723900  0.63608891  1
  O  O362  1  0.64612619  0.37961205  0.11960918  1
  O  O363  1  0.61817452  0.39555330  0.62392019  1
  O  O364  1  0.62736751  0.88228103  0.13179203  1
  O  O365  1  0.64124354  0.86508893  0.62513956  1
  O  O366  1  0.13361262  0.25862494  0.25148359  1
  O  O367  1  0.12263998  0.25025040  0.75436887  1
  O  O368  1  0.14542849  0.75739804  0.23529558  1
  O  O369  1  0.12988856  0.76426642  0.75844017  1
  O  O370  1  0.60668039  0.24032183  0.25930284  1
  O  O371  1  0.62807873  0.24886897  0.76595890  1
  O  O372  1  0.62188361  0.75532626  0.25671670  1
  O  O373  1  0.60868236  0.74080268  0.75268496  1
  O  O374  1  0.38253815  0.23403510  0.25245864  1
  O  O375  1  0.37106901  0.23906969  0.74700862  1
  O  O376  1  0.38626219  0.75860559  0.23758083  1
  O  O377  1  0.37898476  0.74113833  0.73902441  1
  O  O378  1  0.97187324  0.29824751  0.28818308  1
  O  O379  1  0.88297919  0.23973511  0.75207663  1
  O  O380  1  0.86592790  0.74092903  0.23744776  1
  O  O381  1  0.88063431  0.74068474  0.75520722  1
  O  O382  1  0.37071897  0.48918870  0.49505115  1
  O  O383  1  0.38192314  0.48586897  0.99348186  1
  O  O384  1  0.37418988  0.99025184  0.47863862  1
  O  O385  1  0.37790027  0.99441185  0.99555735  1
  O  O386  1  0.88555419  0.50008609  0.49355729  1
  O  O387  1  0.88521592  0.49108195  0.98514813  1
  O  O388  1  0.89105241  1.01528145  0.52916886  1
  O  O389  1  0.88520368  1.00423400  0.99441532  1
  O  O390  1  0.13015702  0.00437168  0.00539539  1
  O  O391  1  0.13090519  0.01930350  0.49557130  1
  O  O392  1  0.12362270  0.49206123  0.00697740  1
  O  O393  1  0.11273571  0.49986370  0.50158509  1
  O  O394  1  0.61754925  0.00590494  0.00232976  1
  O  O395  1  0.62437794  0.01006809  0.50667889  1
  O  O396  1  0.61771049  0.51393070  0.00184119  1
  O  O397  1  0.62935121  0.51442831  0.50756220  1
  O  O398  1  0.38415461  0.38248386  0.11514512  1
  O  O399  1  0.37227862  0.37218609  0.62067798  1
  O  O400  1  0.38023090  0.86399640  0.11261725  1
  O  O401  1  0.37008612  0.85897396  0.62290720  1
  O  O402  1  0.87252316  0.37973630  0.10656246  1
  O  O403  1  0.87711452  0.36103691  0.63583635  1
  O  O404  1  0.87558928  0.86098069  0.13010363  1
  O  O405  1  0.84950026  0.86299224  0.63053340  1
  O  O406  1  0.13623792  0.13567873  0.38592151  1
  O  O407  1  0.12545277  0.13181935  0.88517364  1
  O  O408  1  0.13165944  0.62160739  0.38621014  1
  O  O409  1  0.13404050  0.63692314  0.86392189  1
  O  O410  1  0.62076767  0.13178335  0.38130586  1
  O  O411  1  0.61369099  0.13784896  0.88679652  1
  O  O412  1  0.63115076  0.62973267  0.37910540  1
  O  O413  1  0.63592747  0.62585223  0.88048103  1
