# generated using pymatgen
data_V79Zn79O256
_symmetry_space_group_name_H-M   'P 1'
_cell_length_a   16.85475543
_cell_length_b   16.86274631
_cell_length_c   16.86748088
_cell_angle_alpha   89.99718400
_cell_angle_beta   90.01388053
_cell_angle_gamma   89.98003610
_symmetry_Int_Tables_number   1
_chemical_formula_structural   V79Zn79O256
_chemical_formula_sum   'V79 Zn79 O256'
_cell_volume   4794.03221632
_cell_formula_units_Z   1
loop_
 _symmetry_equiv_pos_site_id
 _symmetry_equiv_pos_as_xyz
  1  'x, y, z'
loop_
 _atom_site_type_symbol
 _atom_site_label
 _atom_site_symmetry_multiplicity
 _atom_site_fract_x
 _atom_site_fract_y
 _atom_site_fract_z
 _atom_site_occupancy
  V  V0  1  -0.00927870  0.62124219  0.62941145  1
  V  V1  1  0.63524275  0.74793786  0.37675956  1
  V  V2  1  -0.00101256  0.39159088  0.38242687  1
  V  V3  1  0.50467373  -0.00112059  0.00498479  1
  V  V4  1  0.35899289  0.37618736  0.50989958  1
  V  V5  1  0.24732355  0.64390238  0.38346594  1
  V  V6  1  -0.00511110  0.37525621  0.87755893  1
  V  V7  1  0.64592748  0.12813643  0.49955573  1
  V  V8  1  0.87176655  0.87425105  0.00544012  1
  V  V9  1  0.74328400  0.38302707  0.61668751  1
  V  V10  1  0.87451458  0.24636533  0.13294961  1
  V  V11  1  0.63854029  0.24472389  0.37792873  1
  V  V12  1  0.50111490  0.75474905  0.24950400  1
  V  V13  1  0.88051866  0.00438535  0.86979933  1
  V  V14  1  0.63230882  0.88133401  0.74476126  1
  V  V15  1  0.37790850  0.62445317  0.75321986  1
  V  V16  1  0.00726583  0.00067620  0.49531953  1
  V  V17  1  0.75275578  0.75621367  0.51929973  1
  V  V18  1  0.88618694  0.62583669  0.25199555  1
  V  V19  1  0.74220331  0.25359317  -0.00591734  1
  V  V20  1  0.49983815  0.87925264  0.37607294  1
  V  V21  1  0.87388638  0.87167709  0.51500890  1
  V  V22  1  0.37214196  0.87776970  0.00111037  1
  V  V23  1  0.87213105  0.26156216  0.59176884  1
  V  V24  1  0.12581629  0.64255678  0.50221300  1
  V  V25  1  0.26388466  0.25159431  0.01102728  1
  V  V26  1  -0.02155916  0.74238124  0.74840039  1
  V  V27  1  0.00030860  0.87223992  0.87394533  1
  V  V28  1  0.62509487  0.38101951  0.25010026  1
  V  V29  1  0.50468548  0.87787724  0.87232143  1
  V  V30  1  0.49504098  0.01116078  0.49986786  1
  V  V31  1  0.12664397  0.74774379  0.86710424  1
  V  V32  1  0.49912399  0.48224904  0.00691592  1
  V  V33  1  -0.00099599  0.12936526  0.62413246  1
  V  V34  1  0.24016264  0.88933426  0.12705406  1
  V  V35  1  0.24450718  -0.00351529  0.27613441  1
  V  V36  1  0.24510776  0.12361178  0.86264602  1
  V  V37  1  0.86763670  0.00977464  0.37206566  1
  V  V38  1  0.50189520  0.62377044  0.62628175  1
  V  V39  1  0.12323193  0.15022078  0.49201094  1
  V  V40  1  0.50412066  0.49930524  0.50223602  1
  V  V41  1  0.62812038  0.11780850  0.00929950  1
  V  V42  1  0.13199970  0.37351695  0.75301573  1
  V  V43  1  0.00396207  0.25132755  0.25734390  1
  V  V44  1  0.37250572  0.75409678  0.12721403  1
  V  V45  1  0.25326012  0.62265569  0.87713432  1
  V  V46  1  0.24992999  0.75153028  0.00202540  1
  V  V47  1  0.38078395  0.48604723  0.88169360  1
  V  V48  1  0.62095502  0.62209309  0.00873452  1
  V  V49  1  0.11947136  0.62170596  0.00576893  1
  V  V50  1  0.75130286  0.01254244  0.24039293  1
  V  V51  1  0.25248403  0.14067910  0.37749381  1
  V  V52  1  0.49764911  0.37187567  0.37667726  1
  V  V53  1  0.75313433  0.12379284  0.86640111  1
  V  V54  1  -0.02105192  0.25105587  0.75036278  1
  V  V55  1  0.89393906  0.74166567  0.12251533  1
  V  V56  1  0.49022105  0.23776692  0.24894398  1
  V  V57  1  0.36774839  0.62467681  0.25203407  1
  V  V58  1  0.63507080  0.00222472  0.62100777  1
  V  V59  1  0.36105311  0.24129451  0.62019773  1
  V  V60  1  0.11471128  0.85949736  0.25206266  1
  V  V61  1  0.36940581  0.74951955  0.62217094  1
  V  V62  1  0.36917445  0.00022302  0.86390562  1
  V  V63  1  0.37378904  0.87117343  0.49852627  1
  V  V64  1  0.63803741  0.87647221  0.23974511  1
  V  V65  1  0.74715398  0.38121339  0.13353740  1
  V  V66  1  0.13123366  0.49137715  0.12824250  1
  V  V67  1  0.63114727  0.62316994  0.49724794  1
  V  V68  1  0.36497173  0.50171519  0.37448150  1
  V  V69  1  0.87448790  0.38168900  0.00745329  1
  V  V70  1  -0.00275471  0.84860608  0.37720975  1
  V  V71  1  0.74498121  0.62345812  0.86633980  1
  V  V72  1  0.74193958  0.75306133  0.00359629  1
  V  V73  1  0.86861909  0.50325060  0.85965916  1
  V  V74  1  0.13592236  0.37542602  0.25005085  1
  V  V75  1  0.24648543  0.88816957  0.62788746  1
  V  V76  1  0.13149727  0.49725524  0.61935862  1
  V  V77  1  0.00543000  0.12042781  0.12941129  1
  V  V78  1  0.50863594  0.75259673  0.75350347  1
  Zn  Zn79  1  -0.00826517  0.51113941  0.00919581  1
  Zn  Zn80  1  0.13832861  0.89356954  0.75153285  1
  Zn  Zn81  1  0.48821606  0.13330051  0.11944602  1
  Zn  Zn82  1  0.37198588  0.11223857  0.73036545  1
  Zn  Zn83  1  0.62988075  0.49506308  0.64486806  1
  Zn  Zn84  1  0.74121223  0.51890341  0.25929236  1
  Zn  Zn85  1  0.49720023  0.22518129  0.73231787  1
  Zn  Zn86  1  0.86280662  0.49725725  0.38384410  1
  Zn  Zn87  1  0.25774574  0.49098055  0.74949602  1
  Zn  Zn88  1  0.59006263  0.30675794  0.83482093  1
  Zn  Zn89  1  0.13006146  0.11813464  0.00874409  1
  Zn  Zn90  1  0.12200763  0.24720854  0.87991682  1
  Zn  Zn91  1  0.50066214  0.61822980  0.13106436  1
  Zn  Zn92  1  0.00305149  -0.00160345  0.01058639  1
  Zn  Zn93  1  0.76519990  -0.00358633  0.73468180  1
  Zn  Zn94  1  0.19092809  0.18363799  0.19333480  1
  Zn  Zn95  1  0.18502897  0.19075312  0.68244625  1
  Zn  Zn96  1  0.18567152  0.68597575  0.18761330  1
  Zn  Zn97  1  0.18967933  0.68601543  0.68744209  1
  Zn  Zn98  1  0.68271078  0.19232651  0.18731680  1
  Zn  Zn99  1  0.69833282  0.20039343  0.68147082  1
  Zn  Zn100  1  0.69366714  0.69389353  0.18585681  1
  Zn  Zn101  1  0.68583094  0.68540384  0.68586810  1
  Zn  Zn102  1  0.31618718  0.31506636  0.30673106  1
  Zn  Zn103  1  0.32131959  0.30066951  0.81415871  1
  Zn  Zn104  1  0.31294948  0.81895112  0.31061637  1
  Zn  Zn105  1  0.31452805  0.81241501  0.80946252  1
  Zn  Zn106  1  0.81806963  0.31733781  0.31704907  1
  Zn  Zn107  1  0.78093713  0.32779160  0.81987447  1
  Zn  Zn108  1  0.81977565  0.80491885  0.31387371  1
  Zn  Zn109  1  0.80860648  0.81051945  0.81886095  1
  Zn  Zn110  1  0.18027967  0.44110953  0.43222085  1
  Zn  Zn111  1  0.19096400  0.43386183  0.94402486  1
  Zn  Zn112  1  0.18029615  0.91956910  0.44257626  1
  Zn  Zn113  1  0.18276951  0.94240574  0.94043450  1
  Zn  Zn114  1  0.69329542  0.43076683  0.43919811  1
  Zn  Zn115  1  0.68544746  0.44164465  0.94211668  1
  Zn  Zn116  1  0.68863337  0.93528355  0.43540493  1
  Zn  Zn117  1  0.68872899  0.93980990  0.93265339  1
  Zn  Zn118  1  0.32213200  0.08441601  0.05132864  1
  Zn  Zn119  1  0.30478898  0.05995623  0.54762401  1
  Zn  Zn120  1  0.31364188  0.55785089  0.06541732  1
  Zn  Zn121  1  0.31065653  0.56107133  0.56270461  1
  Zn  Zn122  1  0.81734800  0.06288079  0.06233399  1
  Zn  Zn123  1  0.82386040  0.06474074  0.55963944  1
  Zn  Zn124  1  0.80398101  0.57061295  0.07760892  1
  Zn  Zn125  1  0.81144706  0.55207984  0.55685670  1
  Zn  Zn126  1  0.43105744  0.43267729  0.18795951  1
  Zn  Zn127  1  0.44550487  0.43002719  0.69075772  1
  Zn  Zn128  1  0.40559954  0.98036688  0.17121285  1
  Zn  Zn129  1  0.44502828  0.94184300  0.68047413  1
  Zn  Zn130  1  0.94527997  0.44509633  0.19252172  1
  Zn  Zn131  1  0.93883477  0.43575976  0.68195484  1
  Zn  Zn132  1  0.93363726  0.93227702  0.19350501  1
  Zn  Zn133  1  0.96661976  0.94749234  0.69279544  1
  Zn  Zn134  1  0.06431157  0.05676903  0.31291323  1
  Zn  Zn135  1  0.06305906  0.06270869  0.80344071  1
  Zn  Zn136  1  0.06584121  0.56859550  0.30868576  1
  Zn  Zn137  1  0.06070828  0.55726444  0.81367660  1
  Zn  Zn138  1  0.56946440  0.05979214  0.31387063  1
  Zn  Zn139  1  0.58342658  0.10013113  0.79018635  1
  Zn  Zn140  1  0.55764262  0.56366263  0.31675474  1
  Zn  Zn141  1  0.56148004  0.56021648  0.82169379  1
  Zn  Zn142  1  0.43247804  0.19165800  0.43745462  1
  Zn  Zn143  1  0.44504603  0.19121598  0.92547362  1
  Zn  Zn144  1  0.44219133  0.68940095  0.43644229  1
  Zn  Zn145  1  0.43938823  0.69070335  0.93832277  1
  Zn  Zn146  1  0.94051382  0.18632236  0.42768570  1
  Zn  Zn147  1  0.93579429  0.19208654  0.94483333  1
  Zn  Zn148  1  0.92017549  0.66135057  0.44997333  1
  Zn  Zn149  1  0.93237935  0.68668243  0.93540314  1
  Zn  Zn150  1  0.07058987  0.30439892  0.06336911  1
  Zn  Zn151  1  0.06057136  0.31767590  0.56553955  1
  Zn  Zn152  1  0.06766851  0.81423256  0.05813105  1
  Zn  Zn153  1  0.05814980  0.81208147  0.56730470  1
  Zn  Zn154  1  0.56384744  0.30695790  0.06713253  1
  Zn  Zn155  1  0.55877924  0.30663039  0.56481327  1
  Zn  Zn156  1  0.56036068  0.81432451  0.06286787  1
  Zn  Zn157  1  0.56177753  0.81455483  0.56509064  1
  O  O158  1  0.10846075  0.12593682  0.13117921  1
  O  O159  1  0.11123466  0.13733457  0.60729233  1
  O  O160  1  0.13115321  0.61741175  0.11296232  1
  O  O161  1  0.12633333  0.61839617  0.61747817  1
  O  O162  1  0.61849167  0.12717610  0.11283767  1
  O  O163  1  0.63229473  0.12104090  0.60586375  1
  O  O164  1  0.62249486  0.62815301  0.11290628  1
  O  O165  1  0.61882726  0.61630038  0.61889270  1
  O  O166  1  0.38009176  0.38289144  0.38171776  1
  O  O167  1  0.37343992  0.38858972  0.86868400  1
  O  O168  1  0.38846753  0.86413680  0.38609888  1
  O  O169  1  0.37738050  0.88162442  0.88008099  1
  O  O170  1  0.89370814  0.38184759  0.37025966  1
  O  O171  1  0.87369113  0.38702505  0.88464676  1
  O  O172  1  0.88692245  0.87372444  0.38241056  1
  O  O173  1  0.88090871  0.88041741  0.88382755  1
  O  O174  1  0.24091101  -0.00367285  0.37833786  1
  O  O175  1  0.26029081  0.00450718  0.87578442  1
  O  O176  1  0.26175437  0.51057272  0.37931644  1
  O  O177  1  0.26393768  0.50769803  0.87891595  1
  O  O178  1  0.76216141  -0.00679636  0.36848599  1
  O  O179  1  0.76667680  0.00814334  0.87748976  1
  O  O180  1  0.74943262  0.49651055  0.36922362  1
  O  O181  1  0.76030148  0.50971990  0.88067053  1
  O  O182  1  0.23329253  0.49919772  0.11760541  1
  O  O183  1  0.23734276  0.50518785  0.63346683  1
  O  O184  1  0.24679763  0.98889254  0.13403878  1
  O  O185  1  0.25370663  0.98800339  0.62263233  1
  O  O186  1  0.74996436  0.48321794  0.12979482  1
  O  O187  1  0.74823788  0.49207388  0.62681875  1
  O  O188  1  0.76200356  0.99856901  0.14105932  1
  O  O189  1  0.74331851  1.00477440  0.61953408  1
  O  O190  1  0.00905754  0.36740530  0.25559985  1
  O  O191  1  0.00246052  0.37016876  0.76142857  1
  O  O192  1  0.00422831  0.86995053  0.26392934  1
  O  O193  1  -0.00718045  0.85265712  0.76232229  1
  O  O194  1  0.50476351  0.36736897  0.26092759  1
  O  O195  1  0.53740249  0.40629174  0.76080034  1
  O  O196  1  0.51191420  0.86521737  0.25940333  1
  O  O197  1  0.50735060  0.87104123  0.75303615  1
  O  O198  1  0.50937422  0.13567457  0.25336884  1
  O  O199  1  0.48546177  0.10790470  0.73949692  1
  O  O200  1  0.49227364  0.63840509  0.25271873  1
  O  O201  1  0.49730810  0.63227966  0.74992351  1
  O  O202  1  1.00652735  0.14159260  0.24580334  1
  O  O203  1  1.00401537  0.13964686  0.73501112  1
  O  O204  1  0.98872282  0.62888026  0.25007721  1
  O  O205  1  1.00576507  0.63481994  0.74497439  1
  O  O206  1  0.36485796  0.23229170  -0.00252009  1
  O  O207  1  0.37497450  0.26895219  0.50532834  1
  O  O208  1  0.36998700  0.75713402  0.00588559  1
  O  O209  1  0.38796704  0.75841572  0.51195116  1
  O  O210  1  0.86580873  0.26272885  0.01070316  1
  O  O211  1  0.88217016  0.25921157  0.49295943  1
  O  O212  1  0.86879417  0.75467803  0.00501811  1
  O  O213  1  0.85826642  0.75298971  0.50196426  1
  O  O214  1  0.12249261  0.24917620  0.49362466  1
  O  O215  1  0.13568323  0.23918804  0.99520490  1
  O  O216  1  0.13046218  0.74114124  0.50537798  1
  O  O217  1  0.13037267  0.74240688  0.98803467  1
  O  O218  1  0.62037086  0.23776027  0.48941428  1
  O  O219  1  0.63595403  0.23945217  1.00261920  1
  O  O220  1  0.63147768  0.74600000  0.49764316  1
  O  O221  1  0.63473731  0.74309215  1.00120739  1
  O  O222  1  0.50181885  0.24998558  0.14381299  1
  O  O223  1  0.47556898  0.26402367  0.62534393  1
  O  O224  1  0.49206070  0.75098600  0.13545788  1
  O  O225  1  0.49334387  0.74484266  0.63489281  1
  O  O226  1  0.99287921  0.24493311  0.13346932  1
  O  O227  1  0.98750370  0.25151692  0.62892868  1
  O  O228  1  0.99302212  0.75319108  0.11925062  1
  O  O229  1  1.00223266  0.74067423  0.64201908  1
  O  O230  1  -0.00020145  0.25902350  0.36025010  1
  O  O231  1  -0.00265042  0.25770247  0.86868174  1
  O  O232  1  -0.00865378  0.75153767  0.38791732  1
  O  O233  1  0.00529099  0.75011730  0.86575981  1
  O  O234  1  0.50382642  0.25749173  0.37048595  1
  O  O235  1  0.48729524  0.25942995  0.84767787  1
  O  O236  1  0.51025307  0.75708758  0.36852351  1
  O  O237  1  0.49179484  0.76389493  0.86354351  1
  O  O238  1  0.22963030  0.12390544  0.48996568  1
  O  O239  1  0.24647561  0.12754740  0.98243178  1
  O  O240  1  0.24284776  0.62600230  0.49278924  1
  O  O241  1  0.24589823  0.63030241  0.99168876  1
  O  O242  1  0.74392381  0.12339933  0.49248151  1
  O  O243  1  0.74629281  0.13178682  0.99913490  1
  O  O244  1  0.73622140  0.63943025  0.50945453  1
  O  O245  1  0.73707035  0.63045081  0.99865262  1
  O  O246  1  0.25113017  0.35155641  -0.00853567  1
  O  O247  1  0.26109749  0.38474934  0.49394790  1
  O  O248  1  0.24996137  0.87116802  0.00804696  1
  O  O249  1  0.26482003  0.87643599  0.50987860  1
  O  O250  1  0.75659012  0.37004402  0.01519798  1
  O  O251  1  0.76205270  0.38024677  0.51254604  1
  O  O252  1  0.75614926  0.86031518  -0.01377320  1
  O  O253  1  0.75602655  0.86378234  0.50087289  1
  O  O254  1  0.12364208  0.49295268  0.23708193  1
  O  O255  1  0.12929237  0.48892558  0.74849892  1
  O  O256  1  0.13260196  0.97965553  0.25895829  1
  O  O257  1  0.07481467  0.98140751  0.72935753  1
  O  O258  1  0.61858467  0.48544234  0.25740102  1
  O  O259  1  0.59605962  0.47104799  0.75587628  1
  O  O260  1  0.63932728  0.98541257  0.25698401  1
  O  O261  1  0.63162898  0.99935825  0.73606742  1
  O  O262  1  0.34508477  -0.02319258  0.26539463  1
  O  O263  1  0.37571505  -0.00949830  0.76119898  1
  O  O264  1  0.38630779  0.51650153  0.26228945  1
  O  O265  1  0.38011132  0.50770258  0.76280610  1
  O  O266  1  0.86256939  -0.00854520  0.26299754  1
  O  O267  1  0.87894414  -0.00858245  0.76541737  1
  O  O268  1  0.87678225  0.51566209  0.25438457  1
  O  O269  1  0.87462468  0.49617642  0.76147250  1
  O  O270  1  0.11617244  0.38422898  0.35736263  1
  O  O271  1  0.11203679  0.37859379  0.86702748  1
  O  O272  1  0.10708693  0.86566536  0.37032104  1
  O  O273  1  0.11736301  0.86555031  0.87350529  1
  O  O274  1  0.61551112  0.36307147  0.37385146  1
  O  O275  1  0.68136826  0.34737987  0.88306532  1
  O  O276  1  0.61776321  0.86575168  0.37058876  1
  O  O277  1  0.61227484  0.88571863  0.86238898  1
  O  O278  1  0.38624641  0.09033812  0.13945672  1
  O  O279  1  0.36480751  0.13658623  0.61062897  1
  O  O280  1  0.37240173  0.63286345  0.13643095  1
  O  O281  1  0.38042026  0.62821792  0.63355607  1
  O  O282  1  0.88175566  0.14044219  0.12393983  1
  O  O283  1  0.88732136  0.14726855  0.60951674  1
  O  O284  1  0.88890217  0.63711053  0.11679279  1
  O  O285  1  0.89289591  0.61672433  0.62643235  1
  O  O286  1  0.25011564  0.23265851  0.11051552  1
  O  O287  1  0.25951304  0.25609997  0.62132051  1
  O  O288  1  0.25367780  0.75775200  0.12066839  1
  O  O289  1  0.26617029  0.75202377  0.62942418  1
  O  O290  1  0.75633686  0.25616079  0.11933671  1
  O  O291  1  0.76795065  0.25337012  0.60965457  1
  O  O292  1  0.76081576  0.75040726  0.10519820  1
  O  O293  1  0.74658187  0.75504718  0.61872719  1
  O  O294  1  0.24712300  0.23910474  0.36435127  1
  O  O295  1  0.25210449  0.23186828  0.87703333  1
  O  O296  1  0.25377016  0.74288710  0.38066433  1
  O  O297  1  0.24594890  0.74327442  0.87961367  1
  O  O298  1  0.73698405  0.25528482  0.37291048  1
  O  O299  1  0.77623819  0.22747960  0.88727931  1
  O  O300  1  0.73789739  0.75397804  0.38278439  1
  O  O301  1  0.76046965  0.73063286  0.88971083  1
  O  O302  1  -0.00116698  0.12794246  0.01909306  1
  O  O303  1  0.01100398  0.12257931  0.49754941  1
  O  O304  1  0.01562807  0.62621959  -0.01249733  1
  O  O305  1  0.01740972  0.63516565  0.51911672  1
  O  O306  1  0.51027683  0.11645786  -0.00510070  1
  O  O307  1  0.50078489  0.11217603  0.49036252  1
  O  O308  1  0.51243304  0.62836543  0.00139242  1
  O  O309  1  0.50710817  0.61880091  0.50542110  1
  O  O310  1  0.49362447  0.38270480  0.49088284  1
  O  O311  1  0.50825536  0.38346928  1.00145024  1
  O  O312  1  0.49620308  0.88135030  0.49358342  1
  O  O313  1  0.49593647  0.87676772  0.98949664  1
  O  O314  1  1.01370554  0.37664974  0.48086801  1
  O  O315  1  0.99036925  0.36863283  0.99013427  1
  O  O316  1  0.99484139  0.87693992  0.49115240  1
  O  O317  1  0.99210403  0.87004947  0.98648901  1
  O  O318  1  0.48966823  0.49348023  0.38429532  1
  O  O319  1  0.48764504  0.50359392  0.89165617  1
  O  O320  1  0.51012921  0.98878522  0.38648435  1
  O  O321  1  0.48532126  0.98865565  0.88203675  1
  O  O322  1  1.00312343  0.49365083  0.37131193  1
  O  O323  1  0.98443845  0.49333124  0.87966426  1
  O  O324  1  0.98597629  0.99556137  0.38013630  1
  O  O325  1  0.99025735  0.99011594  0.87693112  1
  O  O326  1  -0.01446806  0.01785414  0.13488641  1
  O  O327  1  -0.02045589  0.02130510  0.60378569  1
  O  O328  1  0.01820806  0.49630066  0.11939753  1
  O  O329  1  0.01575295  0.51474930  0.63797216  1
  O  O330  1  0.50226906  -0.01437612  0.10574550  1
  O  O331  1  0.51507830  -0.00202365  0.60563541  1
  O  O332  1  0.48902254  0.50100225  0.11111681  1
  O  O333  1  0.50080947  0.50376063  0.61372888  1
  O  O334  1  0.23534532  0.37421791  0.25525630  1
  O  O335  1  0.23470750  0.37124376  0.76227914  1
  O  O336  1  0.23330359  0.87604918  0.24879391  1
  O  O337  1  0.25230084  0.87315644  0.73528012  1
  O  O338  1  0.74048614  0.36947296  0.24571581  1
  O  O339  1  0.75269157  0.36302080  0.71874786  1
  O  O340  1  0.73969049  0.87128162  0.25394822  1
  O  O341  1  0.73690243  0.87820823  0.76123262  1
  O  O342  1  0.23591778  0.10728517  0.26927306  1
  O  O343  1  0.25219781  0.12449044  0.75711319  1
  O  O344  1  0.25877790  0.63328620  0.26642393  1
  O  O345  1  0.26096960  0.62408860  0.76148011  1
  O  O346  1  0.74000735  0.11178864  0.24908247  1
  O  O347  1  0.75452322  0.12188392  0.76416393  1
  O  O348  1  0.77054380  0.61983263  0.21620607  1
  O  O349  1  0.73996273  0.62652561  0.76667077  1
  O  O350  1  0.35164033  0.12414488  0.39142663  1
  O  O351  1  0.36603098  0.10838714  0.87143032  1
  O  O352  1  0.36574861  0.62365064  0.37482113  1
  O  O353  1  0.37000675  0.62282587  0.87099445  1
  O  O354  1  0.87351794  0.10934577  0.37663740  1
  O  O355  1  0.87562387  0.10886705  0.88387835  1
  O  O356  1  0.86458892  0.65012118  0.34758797  1
  O  O357  1  0.86512093  0.61003639  0.88076084  1
  O  O358  1  0.12521053  0.38207912  0.13312561  1
  O  O359  1  0.11717886  0.38849689  0.63995648  1
  O  O360  1  0.12650692  0.86982379  0.13996174  1
  O  O361  1  0.14493862  0.86591050  0.62096469  1
  O  O362  1  0.63431499  0.36522885  0.13911681  1
  O  O363  1  0.63658643  0.37704916  0.60947174  1
  O  O364  1  0.62622681  0.86772963  0.14078084  1
  O  O365  1  0.62233119  0.88685204  0.63337143  1
  O  O366  1  0.11489046  0.26444067  0.24062234  1
  O  O367  1  0.11558838  0.26507696  0.75043217  1
  O  O368  1  0.12556358  0.75922289  0.25300693  1
  O  O369  1  0.12648803  0.74965169  0.76272951  1
  O  O370  1  0.61686135  0.25666134  0.26489711  1
  O  O371  1  0.61537207  0.21953853  0.75302147  1
  O  O372  1  0.62181033  0.75524605  0.25633718  1
  O  O373  1  0.61450697  0.76109210  0.74271470  1
  O  O374  1  0.39085796  0.24436476  0.25956888  1
  O  O375  1  0.37041929  0.24415788  0.72945275  1
  O  O376  1  0.38243762  0.74596700  0.24855037  1
  O  O377  1  0.38549819  0.74200005  0.74380392  1
  O  O378  1  0.88885472  0.25818517  0.24281048  1
  O  O379  1  0.88031993  0.25624180  0.75290834  1
  O  O380  1  0.87009571  0.74698169  0.22621495  1
  O  O381  1  0.87953267  0.74175808  0.75576712  1
  O  O382  1  0.38293928  0.49452015  0.49473555  1
  O  O383  1  0.38457658  0.50109847  0.99163694  1
  O  O384  1  0.38999671  0.98984818  0.50397215  1
  O  O385  1  0.38248236  0.99330186  0.98929759  1
  O  O386  1  0.88720752  0.55383315  0.47740603  1
  O  O387  1  0.87230167  0.48932841  1.00546192  1
  O  O388  1  0.87784592  0.98897941  0.48609374  1
  O  O389  1  0.87978527  0.98963527  0.99326875  1
  O  O390  1  0.11489996  0.00399973  0.00200917  1
  O  O391  1  0.10835706  -0.00636194  0.49798174  1
  O  O392  1  0.12291927  0.50604182  0.00452778  1
  O  O393  1  0.12824224  0.50369949  0.51671594  1
  O  O394  1  0.61862043  0.00605897  -0.00611937  1
  O  O395  1  0.62207800  0.01168582  0.49950708  1
  O  O396  1  0.61008311  0.50970053  -0.00119854  1
  O  O397  1  0.61394528  0.50817097  0.49277904  1
  O  O398  1  0.34933294  0.36840644  0.15213451  1
  O  O399  1  0.37000045  0.38347198  0.61342730  1
  O  O400  1  0.36186873  0.87351472  0.12015700  1
  O  O401  1  0.37089648  0.86869656  0.61915503  1
  O  O402  1  0.86947917  0.36890005  0.12431756  1
  O  O403  1  0.87811037  0.36515763  0.61718819  1
  O  O404  1  0.88212917  0.86651509  0.11067084  1
  O  O405  1  0.89212036  0.88302765  0.61239164  1
  O  O406  1  0.12556370  0.12589371  0.38745570  1
  O  O407  1  0.13720540  0.12173959  0.86706722  1
  O  O408  1  0.13679622  0.62148018  0.38952303  1
  O  O409  1  0.13621615  0.62744397  0.87927052  1
  O  O410  1  0.62492912  0.13665249  0.38355716  1
  O  O411  1  0.64877545  0.11869190  0.88595215  1
  O  O412  1  0.61698021  0.63544527  0.38668818  1
  O  O413  1  0.63738947  0.61816743  0.88775804  1
