# generated using pymatgen
data_V79Zn79O256
_symmetry_space_group_name_H-M   'P 1'
_cell_length_a   16.92299948
_cell_length_b   16.96959466
_cell_length_c   16.94235029
_cell_angle_alpha   89.96431626
_cell_angle_beta   90.17328063
_cell_angle_gamma   90.08924552
_symmetry_Int_Tables_number   1
_chemical_formula_structural   V79Zn79O256
_chemical_formula_sum   'V79 Zn79 O256'
_cell_volume   4865.41478673
_cell_formula_units_Z   1
loop_
 _symmetry_equiv_pos_site_id
 _symmetry_equiv_pos_as_xyz
  1  'x, y, z'
loop_
 _atom_site_type_symbol
 _atom_site_label
 _atom_site_symmetry_multiplicity
 _atom_site_fract_x
 _atom_site_fract_y
 _atom_site_fract_z
 _atom_site_occupancy
  V  V0  1  0.00032150  0.25024913  0.24960997  1
  V  V1  1  0.49501851  0.87042074  0.90006039  1
  V  V2  1  0.24934855  0.87686868  0.12576224  1
  V  V3  1  -0.04597103  0.31782827  0.81642361  1
  V  V4  1  0.00189852  0.86641556  0.37166510  1
  V  V5  1  0.12263196  0.86769993  0.25178320  1
  V  V6  1  0.12686429  0.12407742  0.49923752  1
  V  V7  1  0.25252523  0.37636066  0.61961910  1
  V  V8  1  0.12404863  0.37482268  0.24932467  1
  V  V9  1  0.27647350  0.47374289  0.78602278  1
  V  V10  1  0.74488503  0.63192207  0.88215360  1
  V  V11  1  0.50628422  -0.00785277  0.50032231  1
  V  V12  1  0.49169067  0.12858200  0.62398808  1
  V  V13  1  0.63254246  0.25250397  0.37350534  1
  V  V14  1  0.62484163  0.50458191  0.11310389  1
  V  V15  1  0.87432328  0.75084686  0.12373391  1
  V  V16  1  0.74740535  -0.00411505  0.25327702  1
  V  V17  1  0.87725056  0.87603632  0.51244319  1
  V  V18  1  0.87355638  0.37767867  -0.00144645  1
  V  V19  1  0.74714383  0.51355368  0.74034069  1
  V  V20  1  0.00108795  0.62950184  0.13429274  1
  V  V21  1  0.24444293  -0.00221686  0.24834409  1
  V  V22  1  0.00386126  0.73155550  0.74109820  1
  V  V23  1  0.74690806  0.73809232  0.49613666  1
  V  V24  1  0.38160952  0.38509960  0.48801946  1
  V  V25  1  0.24926949  0.36789143  0.11657926  1
  V  V26  1  0.37714253  0.75172865  0.13007512  1
  V  V27  1  0.36952108  0.24752932  0.11268466  1
  V  V28  1  0.74934585  0.49923852  0.25090264  1
  V  V29  1  0.73990996  0.88458484  0.62569553  1
  V  V30  1  0.00205143  0.50707352  0.50313957  1
  V  V31  1  0.49284362  0.25283807  0.25868952  1
  V  V32  1  0.25084595  0.12074240  0.37367154  1
  V  V33  1  0.12640292  0.49898155  0.12847477  1
  V  V34  1  0.88000368  0.72722968  0.62551997  1
  V  V35  1  0.75573009  0.87410232  0.12158708  1
  V  V36  1  0.50718255  0.61315813  0.62177671  1
  V  V37  1  0.25728481  0.24847121  0.49752199  1
  V  V38  1  0.87349506  0.62822480  0.25438248  1
  V  V39  1  0.13303312  0.74803716  0.38344430  1
  V  V40  1  0.38088689  0.63206431  0.75454590  1
  V  V41  1  0.86938781  0.25337600  0.12070593  1
  V  V42  1  0.38783209  0.62212599  0.25316212  1
  V  V43  1  0.11952549  0.75453622  0.87461908  1
  V  V44  1  0.12214455  0.62694157  0.00258895  1
  V  V45  1  0.37413961  0.86755026  0.49741188  1
  V  V46  1  -0.00069749  0.37438717  0.37556320  1
  V  V47  1  0.38468013  0.75143388  0.62956375  1
  V  V48  1  -0.00256077  0.49876106  -0.01064342  1
  V  V49  1  0.61196479  0.74769454  0.37080171  1
  V  V50  1  0.87741489  -0.00223670  0.37364734  1
  V  V51  1  0.00307278  0.00022242  0.50711321  1
  V  V52  1  0.25933392  0.62970833  0.87832230  1
  V  V53  1  0.61170583  0.87300965  0.75726187  1
  V  V54  1  0.87237818  0.50086376  0.37881178  1
  V  V55  1  0.12657612  0.36959177  0.75377721  1
  V  V56  1  0.75844517  0.00164192  0.76336198  1
  V  V57  1  0.63160248  0.12415165  0.50280932  1
  V  V58  1  0.50981351  0.63132897  0.11351003  1
  V  V59  1  0.13225979  0.11340655  -0.00057334  1
  V  V60  1  0.00336353  0.11374391  0.11778662  1
  V  V61  1  0.25460667  0.75933589  0.00367007  1
  V  V62  1  0.13459751  -0.00149591  0.62991115  1
  V  V63  1  -0.00671379  0.13696698  0.63435077  1
  V  V64  1  0.87592231  0.12401139  0.25044540  1
  V  V65  1  0.87174413  0.36514342  0.51324708  1
  V  V66  1  0.13237224  0.25149826  0.88349763  1
  V  V67  1  0.12558315  0.24907064  0.37383229  1
  V  V68  1  0.38058910  -0.00783914  0.37279417  1
  V  V69  1  0.72856028  0.36539630  0.63251837  1
  V  V70  1  0.62506219  0.14405547  0.00214327  1
  V  V71  1  0.25224883  0.86657270  0.62234721  1
  V  V72  1  0.61857096  -0.00062990  0.12016850  1
  V  V73  1  0.38921200  0.00449049  0.87007720  1
  V  V74  1  0.26175700  0.12186214  0.84664241  1
  V  V75  1  0.12866555  0.87273800  0.74967118  1
  V  V76  1  0.75503720  0.14174565  0.88378872  1
  V  V77  1  0.12807714  0.50416788  0.62641278  1
  V  V78  1  0.25374749  0.61924416  0.37979623  1
  Zn  Zn79  1  0.75538139  0.12680427  0.38325732  1
  Zn  Zn80  1  0.41042091  0.43451470  -0.06349408  1
  Zn  Zn81  1  0.60047651  0.87199282  0.26032541  1
  Zn  Zn82  1  0.25984466  0.49611741  0.25164208  1
  Zn  Zn83  1  0.74081620  0.37160476  0.11537427  1
  Zn  Zn84  1  0.73212767  0.74834859  -0.00601505  1
  Zn  Zn85  1  0.61853337  0.38132400  0.25167955  1
  Zn  Zn86  1  0.49361427  0.12309021  0.11957181  1
  Zn  Zn87  1  0.44054093  0.44108833  0.31539471  1
  Zn  Zn88  1  0.91189362  0.57018672  0.82239572  1
  Zn  Zn89  1  0.37641643  0.12072860  0.24820465  1
  Zn  Zn90  1  0.51587860  0.49811258  0.48612045  1
  Zn  Zn91  1  0.37860445  0.24837994  0.63558949  1
  Zn  Zn92  1  0.13082666  0.63096414  0.51033196  1
  Zn  Zn93  1  0.87687919  -0.03378393  0.90935466  1
  Zn  Zn94  1  0.18649876  0.18369869  0.18548770  1
  Zn  Zn95  1  0.17842163  0.19246871  0.68214808  1
  Zn  Zn96  1  0.19284844  0.68721517  0.19697636  1
  Zn  Zn97  1  0.20080412  0.68794023  0.69109029  1
  Zn  Zn98  1  0.68648687  0.18584740  0.19066750  1
  Zn  Zn99  1  0.67479596  0.18472052  0.69913023  1
  Zn  Zn100  1  0.68777127  0.68900351  0.19584247  1
  Zn  Zn101  1  0.68870057  0.69561187  0.69180558  1
  Zn  Zn102  1  0.30751412  0.31138638  0.30763727  1
  Zn  Zn103  1  0.31524041  0.30167079  0.82222796  1
  Zn  Zn104  1  0.31573215  0.80749996  0.31242800  1
  Zn  Zn105  1  0.31659598  0.82077579  0.81482665  1
  Zn  Zn106  1  0.81157071  0.31689462  0.30883714  1
  Zn  Zn107  1  0.79298004  0.31898747  0.80788668  1
  Zn  Zn108  1  0.81204841  0.81254614  0.31204131  1
  Zn  Zn109  1  0.80476028  0.80137708  0.80156986  1
  Zn  Zn110  1  0.18804113  0.43948796  0.43734608  1
  Zn  Zn111  1  0.18718222  0.43662881  0.94272010  1
  Zn  Zn112  1  0.19103218  0.93522540  0.43907019  1
  Zn  Zn113  1  0.06064167  0.93262783  0.93316605  1
  Zn  Zn114  1  0.69368097  0.43071806  0.43963414  1
  Zn  Zn115  1  0.69625334  0.45866679  0.93121202  1
  Zn  Zn116  1  0.68842125  0.93150531  0.43669169  1
  Zn  Zn117  1  0.68073430  0.93584095  0.93627356  1
  Zn  Zn118  1  0.31372985  0.05723888  0.05722625  1
  Zn  Zn119  1  0.31541716  0.05783127  0.56239883  1
  Zn  Zn120  1  0.31203413  0.56650282  0.06050190  1
  Zn  Zn121  1  0.31761173  0.56401558  0.56491794  1
  Zn  Zn122  1  0.80544264  0.06762667  0.06397789  1
  Zn  Zn123  1  0.81564001  0.06166039  0.57018184  1
  Zn  Zn124  1  0.81439463  0.56395582  0.06008883  1
  Zn  Zn125  1  0.68709186  0.55888744  0.56642306  1
  Zn  Zn126  1  0.42043089  0.45635909  0.13136637  1
  Zn  Zn127  1  0.43757659  0.43130206  0.68302355  1
  Zn  Zn128  1  0.43513035  0.93548697  0.18641028  1
  Zn  Zn129  1  0.43271152  0.95026257  0.68899323  1
  Zn  Zn130  1  0.93763594  0.44009034  0.18459944  1
  Zn  Zn131  1  0.93335657  0.45086195  0.68085807  1
  Zn  Zn132  1  0.94133402  0.93378132  0.07435231  1
  Zn  Zn133  1  0.94275080  0.91930270  0.77678087  1
  Zn  Zn134  1  0.06097510  0.05817558  0.31076478  1
  Zn  Zn135  1  0.05960836  0.06552731  0.81435394  1
  Zn  Zn136  1  0.06356420  0.56314379  0.31655334  1
  Zn  Zn137  1  0.08543463  0.55913394  0.81185751  1
  Zn  Zn138  1  0.56124397  0.06875391  0.31193845  1
  Zn  Zn139  1  0.57591228  0.06718725  0.80818088  1
  Zn  Zn140  1  0.57762980  0.57066226  0.32281107  1
  Zn  Zn141  1  0.57142029  0.56878913  0.80606480  1
  Zn  Zn142  1  0.43953521  0.18093090  0.43692184  1
  Zn  Zn143  1  0.43850402  0.18356669  0.93642348  1
  Zn  Zn144  1  0.43815036  0.68149248  0.43978697  1
  Zn  Zn145  1  0.44179379  0.69117917  0.94244573  1
  Zn  Zn146  1  0.93975700  0.18660207  0.44134635  1
  Zn  Zn147  1  0.93677038  0.18351606  0.94112650  1
  Zn  Zn148  1  0.93614507  0.68703810  0.43957787  1
  Zn  Zn149  1  0.90935398  0.75256917  0.91637950  1
  Zn  Zn150  1  0.05608824  0.31093598  0.06080257  1
  Zn  Zn151  1  0.06424002  0.31699595  0.56068790  1
  Zn  Zn152  1  0.06688030  0.80743974  0.06973564  1
  Zn  Zn153  1  0.06001582  0.81021716  0.56450072  1
  Zn  Zn154  1  0.55497290  0.31457797  0.06584706  1
  Zn  Zn155  1  0.56144015  0.30774514  0.55619369  1
  Zn  Zn156  1  0.56491468  0.81697014  0.07416708  1
  Zn  Zn157  1  0.56287144  0.80590761  0.56038714  1
  O  O158  1  0.11137592  0.13202117  0.11461737  1
  O  O159  1  0.12249158  0.11412533  0.61706541  1
  O  O160  1  0.12228617  0.62055102  0.12325044  1
  O  O161  1  0.14506831  0.60858195  0.62710745  1
  O  O162  1  0.63245427  0.11417520  0.11572996  1
  O  O163  1  0.61614503  0.12930810  0.60551864  1
  O  O164  1  0.61658904  0.61927992  0.13359071  1
  O  O165  1  0.60993412  0.63084889  0.62999475  1
  O  O166  1  0.36776710  0.37712611  0.38251414  1
  O  O167  1  0.33067307  0.40753514  0.86051292  1
  O  O168  1  0.36602957  0.88165365  0.38535450  1
  O  O169  1  0.38743575  0.88890368  0.87511236  1
  O  O170  1  0.88155162  0.38246368  0.37739559  1
  O  O171  1  0.88502827  0.36366938  0.88089277  1
  O  O172  1  0.88376121  0.88149000  0.38296032  1
  O  O173  1  0.88394287  0.85736184  0.86382730  1
  O  O174  1  0.25811561  0.00186355  0.36929657  1
  O  O175  1  0.25393258  0.02598595  0.86817130  1
  O  O176  1  0.24389399  0.51367128  0.36965807  1
  O  O177  1  0.23867936  0.52105841  0.88047131  1
  O  O178  1  0.76231670  -0.00072090  0.37138927  1
  O  O179  1  0.76068957  -0.01294161  0.86996817  1
  O  O180  1  0.76455247  0.49089375  0.36606409  1
  O  O181  1  0.75917918  0.51864082  0.86015180  1
  O  O182  1  0.23664686  0.49301059  0.12514256  1
  O  O183  1  0.24498722  0.48427565  0.61560935  1
  O  O184  1  0.25778131  0.98835639  0.13645943  1
  O  O185  1  0.24104652  0.98923162  0.61959451  1
  O  O186  1  0.73810481  0.50287351  0.13117119  1
  O  O187  1  0.75212199  0.49201551  0.63425865  1
  O  O188  1  0.74476511  0.99110683  0.13505108  1
  O  O189  1  0.75082199  0.98818179  0.63179962  1
  O  O190  1  0.00404771  0.36995638  0.25493102  1
  O  O191  1  0.01190587  0.38393193  0.75617299  1
  O  O192  1  0.01480911  0.88227580  0.26700116  1
  O  O193  1  0.02226222  0.85007579  0.73607913  1
  O  O194  1  0.49924490  0.35911510  0.25269832  1
  O  O195  1  0.46185011  0.34148754  0.75285387  1
  O  O196  1  0.49017378  0.87704539  0.25963402  1
  O  O197  1  0.51350043  0.88314375  0.73736908  1
  O  O198  1  0.49830834  0.13735843  0.24206756  1
  O  O199  1  0.50128110  0.10559150  0.72080514  1
  O  O200  1  0.48848751  0.62728408  0.24825393  1
  O  O201  1  0.48673651  0.61720289  0.74474675  1
  O  O202  1  0.99406906  0.12921253  0.24367700  1
  O  O203  1  1.00886780  0.12526729  0.73284103  1
  O  O204  1  0.99154478  0.61612414  0.24085421  1
  O  O205  1  1.00855214  0.62916214  0.75538398  1
  O  O206  1  0.36897633  0.24151688  0.01499294  1
  O  O207  1  0.36385849  0.25586925  0.49187585  1
  O  O208  1  0.36275923  0.74078733  0.01570333  1
  O  O209  1  0.38321456  0.76222504  0.50881228  1
  O  O210  1  0.88515111  0.26285308  0.01145872  1
  O  O211  1  0.87885399  0.26754623  0.49000979  1
  O  O212  1  0.85911132  0.74718814  0.02228920  1
  O  O213  1  0.87319265  0.75589228  0.51157534  1
  O  O214  1  0.13796953  0.24626366  0.49307722  1
  O  O215  1  0.11616156  0.24310668  0.98733158  1
  O  O216  1  0.12285413  0.74653291  0.49011942  1
  O  O217  1  0.13312422  0.74257569  0.99449577  1
  O  O218  1  0.62005957  0.23543394  0.48322907  1
  O  O219  1  0.62920694  0.24336476  1.01172759  1
  O  O220  1  0.64196812  0.75740500  0.49301832  1
  O  O221  1  0.62661017  0.74162161  1.02555460  1
  O  O222  1  0.48339200  0.25086074  0.13454967  1
  O  O223  1  0.49819034  0.23361427  0.61549809  1
  O  O224  1  0.48991042  0.73957085  0.12565111  1
  O  O225  1  0.49032328  0.73893584  0.62284921  1
  O  O226  1  0.99026567  0.24443126  0.13316533  1
  O  O227  1  1.01436435  0.23493606  0.61853549  1
  O  O228  1  0.99165540  0.73659244  0.12516078  1
  O  O229  1  0.99188163  0.74026756  0.62546492  1
  O  O230  1  0.00701120  0.25391942  0.36965865  1
  O  O231  1  0.00950816  0.24830770  0.87089593  1
  O  O232  1  0.00732078  0.76081734  0.38190489  1
  O  O233  1  0.01625147  0.74490534  0.86402940  1
  O  O234  1  0.50890917  0.24115430  0.36351985  1
  O  O235  1  0.48757607  0.29017978  0.91089635  1
  O  O236  1  0.51245376  0.74760076  0.38614026  1
  O  O237  1  0.48956488  0.77194663  0.88108311  1
  O  O238  1  0.24678853  0.13002636  0.49449444  1
  O  O239  1  0.23130161  0.12531999  1.01031058  1
  O  O240  1  0.25516021  0.62020088  0.48403190  1
  O  O241  1  0.24105742  0.63425707  0.99897062  1
  O  O242  1  0.73584398  0.11325779  0.50234240  1
  O  O243  1  0.74207950  0.13143180  0.99486176  1
  O  O244  1  0.75030463  0.64068448  0.51238789  1
  O  O245  1  0.75024792  0.62264256  0.98713622  1
  O  O246  1  0.24268783  0.37181069  0.01692118  1
  O  O247  1  0.25602104  0.36627873  0.50107998  1
  O  O248  1  0.24152238  0.86173377  0.01459772  1
  O  O249  1  0.26211650  0.87759888  0.51070890  1
  O  O250  1  0.76754346  0.38824210  -0.00405529  1
  O  O251  1  0.76392949  0.37661248  0.51936086  1
  O  O252  1  0.74238424  0.87504111  0.01996136  1
  O  O253  1  0.75850479  0.87356741  0.51266581  1
  O  O254  1  0.12046056  0.49364391  0.23927592  1
  O  O255  1  0.14804731  0.48686858  0.74725756  1
  O  O256  1  0.13757729  0.98704287  0.26015371  1
  O  O257  1  0.11757409  0.98587597  0.73672065  1
  O  O258  1  0.63818407  0.50116869  0.25014293  1
  O  O259  1  0.64538310  0.50539251  0.74727351  1
  O  O260  1  0.63758362  1.00759100  0.24570000  1
  O  O261  1  0.64469611  0.98255784  0.75597860  1
  O  O262  1  0.36278132  -0.00030596  0.25831013  1
  O  O263  1  0.36857607  -0.00167359  0.76661858  1
  O  O264  1  0.37910028  0.50993578  0.23746764  1
  O  O265  1  0.36331163  0.50944158  0.74144332  1
  O  O266  1  0.87037733  0.00978078  0.26282216  1
  O  O267  1  0.85748031  -0.00922985  0.74580161  1
  O  O268  1  0.87098362  0.50532071  0.25642855  1
  O  O269  1  0.86484897  0.49894190  0.75119847  1
  O  O270  1  0.12042487  0.36926557  0.36968122  1
  O  O271  1  0.13755864  0.36612335  0.86674089  1
  O  O272  1  0.12268165  0.86619600  0.37429370  1
  O  O273  1  0.13051697  0.86342364  0.86321692  1
  O  O274  1  0.62922320  0.35569423  0.37504162  1
  O  O275  1  0.58788694  0.41837589  0.87928043  1
  O  O276  1  0.63699706  0.85780800  0.37174858  1
  O  O277  1  0.60374691  0.88116096  0.86847798  1
  O  O278  1  0.37166608  0.13460033  0.12850274  1
  O  O279  1  0.38421685  0.13051146  0.61515654  1
  O  O280  1  0.38606081  0.63044755  0.13511009  1
  O  O281  1  0.37993813  0.63307708  0.63501442  1
  O  O282  1  0.88487739  0.13295016  0.13256978  1
  O  O283  1  0.89416371  0.12502232  0.61741724  1
  O  O284  1  0.88278692  0.62889706  0.13381686  1
  O  O285  1  0.87203351  0.63298391  0.62111588  1
  O  O286  1  0.26089066  0.25504374  0.13637996  1
  O  O287  1  0.25058740  0.25851868  0.61354201  1
  O  O288  1  0.25562907  0.75395431  0.12206776  1
  O  O289  1  0.26510857  0.75738175  0.62304089  1
  O  O290  1  0.76497831  0.25253900  0.13384821  1
  O  O291  1  0.73724022  0.26465570  0.64693585  1
  O  O292  1  0.75413930  0.76641711  0.13701644  1
  O  O293  1  0.76425058  0.76133047  0.61870968  1
  O  O294  1  0.24462491  0.24132764  0.37884629  1
  O  O295  1  0.24292708  0.23363676  0.87596535  1
  O  O296  1  0.24311946  0.73620625  0.37202720  1
  O  O297  1  0.24776427  0.74628259  0.88456266  1
  O  O298  1  0.73745258  0.24357857  0.36271383  1
  O  O299  1  0.74187803  0.23970001  0.86811894  1
  O  O300  1  0.76597821  0.75150714  0.39638645  1
  O  O301  1  0.74373756  0.74232140  0.87629509  1
  O  O302  1  0.00548810  0.12631151  0.01330646  1
  O  O303  1  0.00869258  0.11620646  0.50207771  1
  O  O304  1  0.01545554  0.61940826  0.01291705  1
  O  O305  1  0.00537238  0.61001200  0.49454975  1
  O  O306  1  0.51846737  0.13113949  0.00268973  1
  O  O307  1  0.50802620  0.11306416  0.50215548  1
  O  O308  1  0.50026908  0.62481246  0.01512012  1
  O  O309  1  0.48897376  0.61617494  0.51943908  1
  O  O310  1  0.48357797  0.37375314  0.49988308  1
  O  O311  1  0.48263904  0.34349673  0.97237685  1
  O  O312  1  0.49440219  0.88674314  0.50563555  1
  O  O313  1  0.50100293  0.87873669  0.99883771  1
  O  O314  1  0.99559529  0.38242184  0.49377257  1
  O  O315  1  0.99377131  0.38890822  1.00086437  1
  O  O316  1  0.99545543  0.88272893  0.49519496  1
  O  O317  1  1.00115731  0.86807317  1.00437174  1
  O  O318  1  0.49889164  0.51294336  0.37511367  1
  O  O319  1  0.52989723  0.47007893  0.87463931  1
  O  O320  1  0.48858866  1.00680425  0.38491242  1
  O  O321  1  0.49405571  0.99909309  0.86825982  1
  O  O322  1  0.99644354  0.49271359  0.38187127  1
  O  O323  1  1.00493004  0.51617784  0.88635993  1
  O  O324  1  0.99514379  0.99280753  0.38533162  1
  O  O325  1  0.98990951  0.98930957  0.86130327  1
  O  O326  1  0.00016817  0.01653400  0.13387112  1
  O  O327  1  0.01224805  0.00711339  0.61135862  1
  O  O328  1  0.00996652  0.50875564  0.11731529  1
  O  O329  1  0.01756154  0.49469647  0.61714559  1
  O  O330  1  0.51556983  0.00344798  0.13298827  1
  O  O331  1  0.49201383  0.00876615  0.60406989  1
  O  O332  1  0.51740417  0.51691597  0.13384398  1
  O  O333  1  0.49806721  0.51078573  0.62905112  1
  O  O334  1  0.24050917  0.37871664  0.24129157  1
  O  O335  1  0.24814389  0.37261838  0.73729952  1
  O  O336  1  0.24398118  0.87936367  0.24692677  1
  O  O337  1  0.23955741  0.86557982  0.73690030  1
  O  O338  1  0.74866513  0.38767678  0.24078217  1
  O  O339  1  0.74753805  0.39040295  0.73740508  1
  O  O340  1  0.75471665  0.88833304  0.24512785  1
  O  O341  1  0.74584446  0.87823100  0.73605237  1
  O  O342  1  0.24639342  0.11305544  0.25591264  1
  O  O343  1  0.25038358  0.13198885  0.74708830  1
  O  O344  1  0.26127528  0.61752364  0.25772503  1
  O  O345  1  0.26355555  0.62301883  0.76526833  1
  O  O346  1  0.76381310  0.11534666  0.24868264  1
  O  O347  1  0.74412791  0.10751073  0.76938537  1
  O  O348  1  0.76374411  0.61195471  0.24415313  1
  O  O349  1  0.75360456  0.62101120  0.74976959  1
  O  O350  1  0.36699554  0.11114077  0.37476168  1
  O  O351  1  0.36985794  0.12820949  0.86354147  1
  O  O352  1  0.36547836  0.63063610  0.36269834  1
  O  O353  1  0.36930499  0.63088191  0.87205866  1
  O  O354  1  0.87754261  0.11683032  0.36943858  1
  O  O355  1  0.85584369  0.12667480  0.88554384  1
  O  O356  1  0.88505440  0.61254688  0.36582331  1
  O  O357  1  0.86239817  0.65105443  0.87744108  1
  O  O358  1  0.12685241  0.37993141  0.12951260  1
  O  O359  1  0.13371412  0.38045240  0.63295826  1
  O  O360  1  0.13750126  0.86453699  0.14083544  1
  O  O361  1  0.13516168  0.87776741  0.62562601  1
  O  O362  1  0.62009421  0.39089243  0.12678387  1
  O  O363  1  0.63011804  0.37481468  0.61817290  1
  O  O364  1  0.63409285  0.88878677  0.13937789  1
  O  O365  1  0.63777893  0.87247006  0.62567957  1
  O  O366  1  0.12010769  0.25451280  0.25481062  1
  O  O367  1  0.12781682  0.26328734  0.75928394  1
  O  O368  1  0.12899942  0.75916031  0.26468191  1
  O  O369  1  0.12542261  0.74858712  0.75589288  1
  O  O370  1  0.61404138  0.24902582  0.25712541  1
  O  O371  1  0.59359706  0.18047280  0.77582502  1
  O  O372  1  0.62604525  0.75365654  0.26392738  1
  O  O373  1  0.63029425  0.77416634  0.74822611  1
  O  O374  1  0.38461225  0.24416102  0.25355865  1
  O  O375  1  0.40546091  0.28072650  0.75026900  1
  O  O376  1  0.36769277  0.73441176  0.23966276  1
  O  O377  1  0.37232839  0.74260162  0.74314341  1
  O  O378  1  0.88054593  0.24091755  0.24665501  1
  O  O379  1  0.89217366  0.26861921  0.75766024  1
  O  O380  1  0.86896514  0.73667430  0.24314323  1
  O  O381  1  0.88878589  0.75018335  0.73136759  1
  O  O382  1  0.37497538  0.48513444  0.50155610  1
  O  O383  1  0.38793123  0.49327005  1.02668604  1
  O  O384  1  0.38309203  0.98911525  0.49146200  1
  O  O385  1  0.37216017  1.01432663  0.97300140  1
  O  O386  1  0.88703762  0.48523031  0.48891686  1
  O  O387  1  0.88839348  0.49311006  1.00645260  1
  O  O388  1  0.88298431  0.99474276  0.49273514  1
  O  O389  1  0.87718767  1.00202482  1.01295511  1
  O  O390  1  0.12003295  0.01553450  -0.00766781  1
  O  O391  1  0.12106346  0.00257145  0.50542348  1
  O  O392  1  0.11984955  0.50815244  0.00899238  1
  O  O393  1  0.11918356  0.49977903  0.50881917  1
  O  O394  1  0.62954920  -0.00162984  0.01958771  1
  O  O395  1  0.61251463  0.00729995  0.48884701  1
  O  O396  1  0.62835627  0.50299950  0.01492169  1
  O  O397  1  0.62770338  0.49830331  0.49555471  1
  O  O398  1  0.36351810  0.35731782  0.13187497  1
  O  O399  1  0.36594514  0.36832527  0.60880577  1
  O  O400  1  0.36115462  0.86310342  0.13199728  1
  O  O401  1  0.37082496  0.87008417  0.62068437  1
  O  O402  1  0.87432290  0.36950867  0.11688748  1
  O  O403  1  0.88452453  0.37040725  0.61301241  1
  O  O404  1  0.86334576  0.86700655  0.13238596  1
  O  O405  1  0.87097542  0.87630200  0.61337149  1
  O  O406  1  0.12985840  0.12808057  0.37956282  1
  O  O407  1  0.13236490  0.13137816  0.88231909  1
  O  O408  1  0.13672433  0.63145423  0.37447577  1
  O  O409  1  0.13762573  0.63688854  0.88490435  1
  O  O410  1  0.63023970  0.13127749  0.38294870  1
  O  O411  1  0.64029052  0.11156008  0.89987152  1
  O  O412  1  0.63868739  0.64862041  0.37550114  1
  O  O413  1  0.64235221  0.62584219  0.87107901  1
