# generated using pymatgen
data_V79Zn79O256
_symmetry_space_group_name_H-M   'P 1'
_cell_length_a   16.98652587
_cell_length_b   16.89289248
_cell_length_c   16.95283528
_cell_angle_alpha   89.75240753
_cell_angle_beta   89.97890819
_cell_angle_gamma   90.02333229
_symmetry_Int_Tables_number   1
_chemical_formula_structural   V79Zn79O256
_chemical_formula_sum   'V79 Zn79 O256'
_cell_volume   4864.59629014
_cell_formula_units_Z   1
loop_
 _symmetry_equiv_pos_site_id
 _symmetry_equiv_pos_as_xyz
  1  'x, y, z'
loop_
 _atom_site_type_symbol
 _atom_site_label
 _atom_site_symmetry_multiplicity
 _atom_site_fract_x
 _atom_site_fract_y
 _atom_site_fract_z
 _atom_site_occupancy
  V  V0  1  0.88025237  0.12521169  0.24511996  1
  V  V1  1  0.12755078  0.38832948  0.74742901  1
  V  V2  1  0.37800649  0.13158056  0.24897810  1
  V  V3  1  0.24517387  0.63085277  0.37528410  1
  V  V4  1  0.36872506  0.12527027  0.75458845  1
  V  V5  1  0.79808368  0.84363441  0.14173220  1
  V  V6  1  0.25052703  0.74883901  -0.00412288  1
  V  V7  1  0.86230531  0.75229555  0.62173528  1
  V  V8  1  0.74954882  0.25845311  -0.00205351  1
  V  V9  1  0.00188762  0.49272445  -0.00326042  1
  V  V10  1  0.62700144  0.12340056  0.00094535  1
  V  V11  1  0.62952209  0.75974140  0.39292398  1
  V  V12  1  0.38016803  0.87234855  -0.00278874  1
  V  V13  1  0.37443965  0.73407308  0.13443575  1
  V  V14  1  0.37601531  -0.00174908  0.87484484  1
  V  V15  1  0.50306607  0.11758205  0.12717888  1
  V  V16  1  0.00423282  0.61816479  0.62079699  1
  V  V17  1  0.86016710  0.61523057  0.75326210  1
  V  V18  1  0.12714298  -0.00481266  0.12401780  1
  V  V19  1  0.38758023  0.25020987  0.12230053  1
  V  V20  1  -0.00862504  0.25058489  0.75035148  1
  V  V21  1  0.87442571  0.26074925  0.12689135  1
  V  V22  1  0.13096085  0.12011757  -0.00592973  1
  V  V23  1  0.12568036  0.75499525  0.86881772  1
  V  V24  1  0.24386827  0.14180476  0.37605434  1
  V  V25  1  0.86497850  0.87130630  0.50375969  1
  V  V26  1  0.49562076  0.37486070  0.86974764  1
  V  V27  1  0.37870555  0.38084408  -0.00414314  1
  V  V28  1  0.12519290  0.14101618  0.49453758  1
  V  V29  1  0.25608975  0.37465743  0.12770486  1
  V  V30  1  0.13056166  0.24419221  0.87203913  1
  V  V31  1  0.49537414  0.24806107  0.74513774  1
  V  V32  1  0.24576338  0.00688563  0.75570285  1
  V  V33  1  0.87069304  -0.00063336  0.37076497  1
  V  V34  1  0.87807783  0.37130488  0.51560016  1
  V  V35  1  0.36973787  0.37054968  0.49800482  1
  V  V36  1  0.73382402  0.37294682  0.14122024  1
  V  V37  1  0.12505849  0.62368174  -0.00249172  1
  V  V38  1  0.62416506  0.25460497  0.36342538  1
  V  V39  1  -0.00220652  0.00314311  0.49843285  1
  V  V40  1  0.87381856  0.50087527  0.38493337  1
  V  V41  1  0.01660234  0.86861811  0.37209343  1
  V  V42  1  0.74130551  0.62826618  0.40657450  1
  V  V43  1  -0.01053878  -0.00360308  -0.00115178  1
  V  V44  1  0.24517496  0.39147636  0.62536805  1
  V  V45  1  0.13090021  0.50068926  0.12229663  1
  V  V46  1  0.23771128  0.75411980  0.49514964  1
  V  V47  1  0.49487002  0.63005989  0.64350504  1
  V  V48  1  0.24898305  0.87249629  0.12675884  1
  V  V49  1  0.00117471  0.37354462  0.88031794  1
  V  V50  1  -0.01394133  0.87574912  0.87799138  1
  V  V51  1  0.37442782  0.50782533  0.37414876  1
  V  V52  1  0.62852950  0.37436799  0.73378839  1
  V  V53  1  0.12116291  0.60607559  0.49885675  1
  V  V54  1  0.50175035  0.78262875  0.76119474  1
  V  V55  1  0.37785831  0.00561330  0.37465498  1
  V  V56  1  0.50157133  -0.00279559  -0.00026555  1
  V  V57  1  -0.01077987  0.13286471  0.62409145  1
  V  V58  1  0.63197758  -0.00713861  0.62912648  1
  V  V59  1  0.24655949  -0.00079441  0.25076604  1
  V  V60  1  0.74935081  -0.01475783  0.75771038  1
  V  V61  1  0.25381344  0.24442201  -0.00430146  1
  V  V62  1  0.36153463  0.24641670  0.62013781  1
  V  V63  1  0.24991677  0.62107892  0.85613678  1
  V  V64  1  0.78525484  0.73404263  -0.00844453  1
  V  V65  1  0.51448933  0.74152979  0.25964423  1
  V  V66  1  0.49971404  0.00096767  0.50093306  1
  V  V67  1  0.36651366  0.49959387  0.85461535  1
  V  V68  1  0.75497569  0.25116047  0.50842433  1
  V  V69  1  0.02023250  0.71745644  0.24386261  1
  V  V70  1  0.24824021  0.87984513  0.62328075  1
  V  V71  1  0.50254095  0.51112745  0.50455215  1
  V  V72  1  0.26040612  0.50582589  0.24672192  1
  V  V73  1  0.37436286  0.87665183  0.49493424  1
  V  V74  1  0.74883619  0.12700143  0.36814133  1
  V  V75  1  0.73406111  0.50345921  0.25392676  1
  V  V76  1  0.50753084  0.37344168  0.36709669  1
  V  V77  1  0.12121947  0.00437907  0.62434197  1
  V  V78  1  0.86848507  0.12512983  0.75854454  1
  Zn  Zn79  1  0.12016825  0.87902504  0.74912177  1
  Zn  Zn80  1  0.00842530  0.13422525  0.12769543  1
  Zn  Zn81  1  0.86289288  0.65328474  0.21811401  1
  Zn  Zn82  1  0.62735337  0.24913224  0.87132030  1
  Zn  Zn83  1  0.50002213  0.12540961  0.62382015  1
  Zn  Zn84  1  0.83199319  0.43162740  -0.05047497  1
  Zn  Zn85  1  -0.00306621  0.75344629  0.74298923  1
  Zn  Zn86  1  0.00335879  0.37393704  0.38377939  1
  Zn  Zn87  1  0.62400499  0.12875525  0.50058936  1
  Zn  Zn88  1  0.36728162  0.74227156  0.63116244  1
  Zn  Zn89  1  0.72183751  -0.02474608  0.23489386  1
  Zn  Zn90  1  0.57858797  0.57357740  0.06047774  1
  Zn  Zn91  1  0.03437687  0.29394916  0.25660764  1
  Zn  Zn92  1  0.64301823  0.51736434  0.63960705  1
  Zn  Zn93  1  0.75378168  0.11662510  0.88227036  1
  Zn  Zn94  1  0.19036854  0.18745803  0.18567310  1
  Zn  Zn95  1  0.18123111  0.19053249  0.68444742  1
  Zn  Zn96  1  0.18656681  0.68771523  0.19146901  1
  Zn  Zn97  1  0.18223797  0.69133130  0.68082775  1
  Zn  Zn98  1  0.68624067  0.18441713  0.18603816  1
  Zn  Zn99  1  0.68275655  0.18143522  0.68620013  1
  Zn  Zn100  1  0.68945150  0.68637961  0.18443719  1
  Zn  Zn101  1  0.67693738  0.69593572  0.69132667  1
  Zn  Zn102  1  0.31819791  0.31738787  0.30887126  1
  Zn  Zn103  1  0.30842425  0.31320212  0.80700498  1
  Zn  Zn104  1  0.36325060  0.84360683  0.28220605  1
  Zn  Zn105  1  0.31502949  0.81481650  0.80745256  1
  Zn  Zn106  1  0.82037046  0.31602658  0.31688555  1
  Zn  Zn107  1  0.80319407  0.33483646  0.81418144  1
  Zn  Zn108  1  0.82646125  0.79983620  0.32108669  1
  Zn  Zn109  1  0.80888758  0.80321551  0.81002442  1
  Zn  Zn110  1  0.18785703  0.43117891  0.43741155  1
  Zn  Zn111  1  0.19060359  0.43246001  0.93423064  1
  Zn  Zn112  1  0.19092178  0.94998376  0.43858206  1
  Zn  Zn113  1  0.18856597  0.93530648  0.93657286  1
  Zn  Zn114  1  0.70721280  0.45749875  0.47935124  1
  Zn  Zn115  1  0.67462324  0.45802627  0.90763159  1
  Zn  Zn116  1  0.68415074  0.93885846  0.43766576  1
  Zn  Zn117  1  0.67299334  0.92424092  1.04710586  1
  Zn  Zn118  1  0.31505255  0.06124242  0.06379591  1
  Zn  Zn119  1  0.30872489  0.06801565  0.56036054  1
  Zn  Zn120  1  0.31253717  0.56052206  0.04821752  1
  Zn  Zn121  1  0.31499863  0.56568057  0.55979928  1
  Zn  Zn122  1  0.80676535  0.05303118  0.07102398  1
  Zn  Zn123  1  0.80981994  0.06531884  0.56192784  1
  Zn  Zn124  1  0.81568951  0.56289916  0.07535557  1
  Zn  Zn125  1  0.81624710  0.55799678  0.57657790  1
  Zn  Zn126  1  0.45031804  0.45657729  0.18921815  1
  Zn  Zn127  1  0.43638665  0.43537338  0.68065879  1
  Zn  Zn128  1  0.54437917  0.91846589  0.19681610  1
  Zn  Zn129  1  0.43459249  0.94088310  0.68302499  1
  Zn  Zn130  1  0.93124929  0.47235122  0.19476537  1
  Zn  Zn131  1  0.93943279  0.43757318  0.68946473  1
  Zn  Zn132  1  0.94787573  0.93972277  0.19475971  1
  Zn  Zn133  1  0.93175172  0.93941852  0.69020235  1
  Zn  Zn134  1  0.06229198  0.06507805  0.31264004  1
  Zn  Zn135  1  0.05559820  0.06257190  0.81368341  1
  Zn  Zn136  1  0.06586565  0.51507365  0.31184396  1
  Zn  Zn137  1  0.05406578  0.56774600  0.81036022  1
  Zn  Zn138  1  0.56375781  0.06583286  0.31449289  1
  Zn  Zn139  1  0.56423025  0.05977648  0.81424580  1
  Zn  Zn140  1  0.56212182  0.57083544  0.32276974  1
  Zn  Zn141  1  0.55793292  0.55688755  0.81246323  1
  Zn  Zn142  1  0.43758956  0.18926174  0.43558450  1
  Zn  Zn143  1  0.43905837  0.18511835  0.93573733  1
  Zn  Zn144  1  0.43531298  0.69452106  0.43775068  1
  Zn  Zn145  1  0.43287359  0.68817573  0.92032019  1
  Zn  Zn146  1  0.94034135  0.19564456  0.42799749  1
  Zn  Zn147  1  0.93765133  0.18733957  0.94262271  1
  Zn  Zn148  1  0.93887599  0.68602298  0.42730840  1
  Zn  Zn149  1  0.94449371  0.67781836  0.92964169  1
  Zn  Zn150  1  0.07375405  0.30663000  0.07769055  1
  Zn  Zn151  1  0.06144552  0.31914592  0.56620760  1
  Zn  Zn152  1  0.05295874  0.80853011  0.06710922  1
  Zn  Zn153  1  0.05394987  0.81097210  0.55942339  1
  Zn  Zn154  1  0.56408266  0.41004949  0.05456784  1
  Zn  Zn155  1  0.55929202  0.31090080  0.55154025  1
  Zn  Zn156  1  0.57541773  0.76777426  0.07804597  1
  Zn  Zn157  1  0.55850345  0.81317894  0.57064374  1
  O  O158  1  0.12684650  0.11070865  0.11046975  1
  O  O159  1  0.11481443  0.11981797  0.61746797  1
  O  O160  1  0.14394184  0.61141789  0.10740366  1
  O  O161  1  0.11272803  0.63080016  0.61435491  1
  O  O162  1  0.61334164  0.12894675  0.11532689  1
  O  O163  1  0.61811746  0.11366986  0.61857232  1
  O  O164  1  0.62114017  0.66839748  0.09875342  1
  O  O165  1  0.60189394  0.62430601  0.63239255  1
  O  O166  1  0.37882413  0.38250230  0.38238723  1
  O  O167  1  0.37366795  0.38053144  0.87561305  1
  O  O168  1  0.36392889  0.89307241  0.38581933  1
  O  O169  1  0.36344673  0.88914113  0.88457326  1
  O  O170  1  0.87583887  0.38570933  0.38971851  1
  O  O171  1  0.90029128  0.35827264  0.88193043  1
  O  O172  1  0.88534155  0.88246268  0.38971613  1
  O  O173  1  0.88904542  0.86904713  0.87453313  1
  O  O174  1  0.25661577  0.01355038  0.36706165  1
  O  O175  1  0.25390847  -0.00122090  0.86202930  1
  O  O176  1  0.25916317  0.50408302  0.36657151  1
  O  O177  1  0.25766933  0.50463479  0.87178518  1
  O  O178  1  0.75987067  0.00797545  0.37662365  1
  O  O179  1  0.74360111  0.00138057  0.85584275  1
  O  O180  1  0.74308095  0.51536865  0.38097945  1
  O  O181  1  0.76986836  0.44119123  0.85893763  1
  O  O182  1  0.25636865  0.49426766  0.12728962  1
  O  O183  1  0.25457610  0.48986854  0.62572568  1
  O  O184  1  0.24620475  0.99301030  0.12918780  1
  O  O185  1  0.23832146  0.99866566  0.62880279  1
  O  O186  1  0.74692690  0.48297634  0.14196097  1
  O  O187  1  0.73414837  0.48597127  0.58911619  1
  O  O188  1  0.75744829  0.96153923  0.12048433  1
  O  O189  1  0.73699089  1.00584761  0.62862821  1
  O  O190  1  -0.00457511  0.40429367  0.25567308  1
  O  O191  1  0.00777563  0.36812416  0.75617247  1
  O  O192  1  0.00063166  0.87470027  0.27129569  1
  O  O193  1  0.00096705  0.88010787  0.76462773  1
  O  O194  1  0.49264214  0.38302052  0.26917379  1
  O  O195  1  0.49549245  0.36363831  0.75187705  1
  O  O196  1  0.47583699  0.84585485  0.25547523  1
  O  O197  1  0.50523349  0.88367325  0.74917664  1
  O  O198  1  0.48645239  0.11983028  0.24107458  1
  O  O199  1  0.48628697  0.13102917  0.74953691  1
  O  O200  1  0.49347067  0.64073689  0.26088781  1
  O  O201  1  0.48881157  0.62037900  0.74310690  1
  O  O202  1  0.98815672  0.11966655  0.24349083  1
  O  O203  1  0.99052126  0.12984332  0.74382928  1
  O  O204  1  1.02502250  0.61696899  0.25661053  1
  O  O205  1  0.99346978  0.62934863  0.73382930  1
  O  O206  1  0.36864203  0.25241540  0.00189893  1
  O  O207  1  0.37863828  0.25940818  0.50807595  1
  O  O208  1  0.36448843  0.75306222  -0.00345772  1
  O  O209  1  0.36446360  0.76444506  0.50116144  1
  O  O210  1  0.85575596  0.23364186  0.01405146  1
  O  O211  1  0.86478289  0.25544406  0.49647422  1
  O  O212  1  0.88516352  0.74018968  0.00171139  1
  O  O213  1  0.87869471  0.76443233  0.50589581  1
  O  O214  1  0.11808852  0.23977292  0.50378536  1
  O  O215  1  0.13397852  0.24033053  0.99282118  1
  O  O216  1  0.13683083  0.75337890  0.50225625  1
  O  O217  1  0.13167709  0.74375869  0.99041036  1
  O  O218  1  0.63658701  0.24993952  0.48837955  1
  O  O219  1  0.64289057  0.23826676  0.99936566  1
  O  O220  1  0.62089756  0.75904406  0.49195702  1
  O  O221  1  0.60983963  0.78075571  0.93980465  1
  O  O222  1  0.48720905  0.23646313  0.11733411  1
  O  O223  1  0.48377139  0.24957772  0.63149177  1
  O  O224  1  0.47731701  0.74432877  0.13995727  1
  O  O225  1  0.49531773  0.74136785  0.63418377  1
  O  O226  1  0.97508875  0.24704667  0.10453238  1
  O  O227  1  1.00802998  0.24124736  0.63885688  1
  O  O228  1  1.01050882  0.73729373  0.14305811  1
  O  O229  1  0.99014174  0.74300290  0.62399418  1
  O  O230  1  -0.00163233  0.26000275  0.35838553  1
  O  O231  1  0.01344361  0.25219599  0.87176223  1
  O  O232  1  0.01293536  0.76802511  0.39068293  1
  O  O233  1  0.00996238  0.76259681  0.87539672  1
  O  O234  1  0.50653297  0.26438731  0.38133953  1
  O  O235  1  0.49150911  0.25607797  0.85963792  1
  O  O236  1  0.51640200  0.74672534  0.37180981  1
  O  O237  1  0.48412222  0.76817704  0.86066613  1
  O  O238  1  0.23792549  0.12254880  0.48871022  1
  O  O239  1  0.24441593  0.13373434  1.00376034  1
  O  O240  1  0.23721745  0.63257948  0.50005199  1
  O  O241  1  0.24282647  0.63271824  0.98185337  1
  O  O242  1  0.75417046  0.13363182  0.48429650  1
  O  O243  1  0.74006943  0.12166272  1.00312075  1
  O  O244  1  0.74084956  0.62975252  0.50400429  1
  O  O245  1  0.75957598  0.63651402  1.01434870  1
  O  O246  1  0.26117114  0.36304856  0.00240135  1
  O  O247  1  0.25774692  0.37972582  0.51149360  1
  O  O248  1  0.25554481  0.86588106  0.00365689  1
  O  O249  1  0.25261873  0.87479817  0.50483322  1
  O  O250  1  0.75421071  0.36192888  0.01648404  1
  O  O251  1  0.76026538  0.35572941  0.49349812  1
  O  O252  1  0.74747625  0.82520433  0.04240011  1
  O  O253  1  0.76769375  0.88312279  0.49890023  1
  O  O254  1  0.14417602  0.50113335  0.22500467  1
  O  O255  1  0.11782777  0.48691589  0.75499363  1
  O  O256  1  0.13619540  1.00888797  0.23694371  1
  O  O257  1  0.12871759  1.00592462  0.74039507  1
  O  O258  1  0.63485191  0.50142406  0.26367468  1
  O  O259  1  0.62089716  0.48183786  0.75081443  1
  O  O260  1  0.61342382  0.99319493  0.24754237  1
  O  O261  1  0.63541744  1.00632534  0.73851884  1
  O  O262  1  0.36247943  0.01554203  0.26030485  1
  O  O263  1  0.36563521  0.00650714  0.75506690  1
  O  O264  1  0.36994098  0.49977379  0.26030496  1
  O  O265  1  0.36774538  0.49168269  0.75632778  1
  O  O266  1  0.87773240  0.00644935  0.26144462  1
  O  O267  1  0.85765025  0.01164905  0.74012382  1
  O  O268  1  0.84633530  0.49131487  0.28172728  1
  O  O269  1  0.87085115  0.51605666  0.73299346  1
  O  O270  1  0.10613399  0.42035308  0.36764624  1
  O  O271  1  0.12217216  0.36373008  0.86636365  1
  O  O272  1  0.11320089  0.89352970  0.38141801  1
  O  O273  1  0.12296806  0.86563718  0.87295329  1
  O  O274  1  0.60927089  0.37126420  0.38002429  1
  O  O275  1  0.60777973  0.36680441  0.85642743  1
  O  O276  1  0.64059333  0.85857893  0.37131370  1
  O  O277  1  0.62820023  0.84885619  0.91886265  1
  O  O278  1  0.38019516  0.13013467  0.13030002  1
  O  O279  1  0.37360417  0.13019822  0.63384949  1
  O  O280  1  0.36419924  0.63671390  0.11105392  1
  O  O281  1  0.38891275  0.62871896  0.61542945  1
  O  O282  1  0.86972339  0.12553770  0.13693424  1
  O  O283  1  0.88570398  0.12392441  0.63175117  1
  O  O284  1  0.89502799  0.57077001  0.15195074  1
  O  O285  1  0.88477033  0.63841417  0.62074566  1
  O  O286  1  0.26294436  0.25627586  0.11324382  1
  O  O287  1  0.25848255  0.25456526  0.62586215  1
  O  O288  1  0.24706951  0.75266140  0.11141681  1
  O  O289  1  0.24865099  0.76418049  0.61630450  1
  O  O290  1  0.75490018  0.25551539  0.12227401  1
  O  O291  1  0.74604294  0.23752323  0.60589480  1
  O  O292  1  0.79268615  0.73898540  0.16055434  1
  O  O293  1  0.76400578  0.74830727  0.62464977  1
  O  O294  1  0.25095545  0.24140652  0.36482844  1
  O  O295  1  0.24064267  0.25411920  0.88258176  1
  O  O296  1  0.25578759  0.73472296  0.38555242  1
  O  O297  1  0.24466439  0.74577134  0.87759827  1
  O  O298  1  0.74505421  0.24208173  0.37631099  1
  O  O299  1  0.75337474  0.25254683  0.89186097  1
  O  O300  1  0.74344390  0.73600728  0.37560356  1
  O  O301  1  0.76127824  0.74805919  0.89463681  1
  O  O302  1  0.01129886  0.11101540  0.00041949  1
  O  O303  1  0.00176485  0.12132974  0.50471648  1
  O  O304  1  0.01715654  0.60807496  -0.01100307  1
  O  O305  1  0.01426747  0.63047981  0.50509296  1
  O  O306  1  0.50479224  0.11809861  0.00562833  1
  O  O307  1  0.49734789  0.11387210  0.50063306  1
  O  O308  1  0.52926070  0.62818597  -0.04327367  1
  O  O309  1  0.49479879  0.61295021  0.49697004  1
  O  O310  1  0.48441628  0.38429633  0.49419021  1
  O  O311  1  0.48699070  0.36113145  0.98122783  1
  O  O312  1  0.48346622  0.88733594  0.50808379  1
  O  O313  1  0.48242888  0.88396547  1.00446470  1
  O  O314  1  0.98285678  0.36706530  0.50198817  1
  O  O315  1  1.01968657  0.38440723  0.99369510  1
  O  O316  1  0.99465035  0.89062131  0.49544079  1
  O  O317  1  1.00669826  0.88473591  0.99023316  1
  O  O318  1  0.49083703  0.49390741  0.38389255  1
  O  O319  1  0.48006793  0.48397896  0.86482286  1
  O  O320  1  0.48461570  1.00901999  0.38362789  1
  O  O321  1  0.48609096  1.00562420  0.88534697  1
  O  O322  1  0.97128955  0.51805373  0.38162662  1
  O  O323  1  1.00984640  0.48847142  0.88690598  1
  O  O324  1  0.98957862  1.00014091  0.38378132  1
  O  O325  1  1.00500983  0.98820523  0.88733396  1
  O  O326  1  0.01243176  -0.00527988  0.11234849  1
  O  O327  1  0.00350271  0.00966368  0.61903755  1
  O  O328  1  0.02787607  0.49149346  0.10802765  1
  O  O329  1  -0.00619662  0.51904019  0.62187849  1
  O  O330  1  0.49272719  0.01074619  0.11201194  1
  O  O331  1  0.50702713  0.00346752  0.61607012  1
  O  O332  1  0.50563954  0.49584015  0.10546474  1
  O  O333  1  0.49184186  0.51137428  0.61447269  1
  O  O334  1  0.25979954  0.38588145  0.23500618  1
  O  O335  1  0.24124468  0.37160113  0.73501441  1
  O  O336  1  0.26271913  0.89032795  0.23887484  1
  O  O337  1  0.24563941  0.88839513  0.73804411  1
  O  O338  1  0.74619472  0.37744308  0.24612183  1
  O  O339  1  0.72492722  0.34976320  0.73260615  1
  O  O340  1  0.77446146  0.86945359  0.24266540  1
  O  O341  1  0.75640844  0.88574430  0.75072778  1
  O  O342  1  0.25515711  0.12036468  0.25332858  1
  O  O343  1  0.25584964  0.11705040  0.74180502  1
  O  O344  1  0.24511190  0.61316673  0.26084275  1
  O  O345  1  0.24457271  0.63239466  0.75723004  1
  O  O346  1  0.75658031  0.11920252  0.25801712  1
  O  O347  1  0.75959516  0.12996198  0.75483592  1
  O  O348  1  0.74986355  0.60793688  0.24705035  1
  O  O349  1  0.76065253  0.63161498  0.74038439  1
  O  O350  1  0.36599809  0.12536471  0.36820589  1
  O  O351  1  0.37275111  0.11604826  0.86365804  1
  O  O352  1  0.36254499  0.61397433  0.38775541  1
  O  O353  1  0.36513015  0.60692263  0.87461967  1
  O  O354  1  0.86874942  0.11915763  0.36558256  1
  O  O355  1  0.87656968  0.12650684  0.86342514  1
  O  O356  1  0.85379769  0.61436919  0.39540242  1
  O  O357  1  0.88380495  0.62398002  0.85124063  1
  O  O358  1  0.15002778  0.39296562  0.10424772  1
  O  O359  1  0.13830682  0.37328739  0.63047686  1
  O  O360  1  0.13817270  0.88300522  0.11508740  1
  O  O361  1  0.12924206  0.88907379  0.62237957  1
  O  O362  1  0.63665257  0.36054009  0.13009896  1
  O  O363  1  0.60380133  0.37579973  0.63497156  1
  O  O364  1  0.60302458  0.86742666  0.11493194  1
  O  O365  1  0.62309833  0.89342259  0.61990531  1
  O  O366  1  0.10687339  0.25880944  0.18255379  1
  O  O367  1  0.11660576  0.25300705  0.75836224  1
  O  O368  1  0.11743774  0.74622749  0.25931069  1
  O  O369  1  0.12115966  0.75492248  0.75825444  1
  O  O370  1  0.62754530  0.24506800  0.26422110  1
  O  O371  1  0.60766307  0.25146514  0.74691162  1
  O  O372  1  0.61507200  0.74943134  0.25392729  1
  O  O373  1  0.59989840  0.75200191  0.75080046  1
  O  O374  1  0.36885701  0.23993067  0.23741430  1
  O  O375  1  0.37493558  0.24226641  0.74195970  1
  O  O376  1  0.35255988  0.73914232  0.23345482  1
  O  O377  1  0.38981509  0.76755309  0.73984390  1
  O  O378  1  0.87007185  0.24133862  0.23613354  1
  O  O379  1  0.88845115  0.24756361  0.75681992  1
  O  O380  1  0.91278595  0.73038979  0.28398882  1
  O  O381  1  0.87604222  0.74423684  0.73390676  1
  O  O382  1  0.37881469  0.49074424  0.49172264  1
  O  O383  1  0.36879007  0.48423535  0.98545711  1
  O  O384  1  0.37689600  0.99903567  0.49297252  1
  O  O385  1  0.37730555  0.99500294  0.99292529  1
  O  O386  1  0.86334931  0.48166811  0.49645609  1
  O  O387  1  0.89941793  0.49784033  1.00852334  1
  O  O388  1  0.88192230  0.99601550  0.49516523  1
  O  O389  1  0.89227461  1.00514044  1.00438909  1
  O  O390  1  0.12646026  0.00543510  0.00449949  1
  O  O391  1  0.11448820  0.01174257  0.50885509  1
  O  O392  1  0.13004594  0.50781704  -0.00063668  1
  O  O393  1  0.12901106  0.50934850  0.51183771  1
  O  O394  1  0.61140982  0.00816721  -0.00484277  1
  O  O395  1  0.61499780  0.00183959  0.50501272  1
  O  O396  1  0.62650280  0.48857376  -0.00184988  1
  O  O397  1  0.59939059  0.49244066  0.49799032  1
  O  O398  1  0.37322411  0.36807486  0.11366966  1
  O  O399  1  0.36163634  0.36818694  0.61860592  1
  O  O400  1  0.35793062  0.85628351  0.11171516  1
  O  O401  1  0.35784523  0.88734959  0.61190981  1
  O  O402  1  0.86369294  0.36159372  0.12932794  1
  O  O403  1  0.87727184  0.37439076  0.61540937  1
  O  O404  1  0.89378246  0.86346089  0.12722556  1
  O  O405  1  0.88193279  0.86627108  0.61369371  1
  O  O406  1  0.13194394  0.12107691  0.38282849  1
  O  O407  1  0.12115076  0.13143846  0.88291461  1
  O  O408  1  0.13629743  0.61173930  0.39211019  1
  O  O409  1  0.12989540  0.63479724  0.87640999  1
  O  O410  1  0.63293442  0.13317734  0.37796712  1
  O  O411  1  0.62501577  0.13029107  0.88651117  1
  O  O412  1  0.63661535  0.63744001  0.38033322  1
  O  O413  1  0.58732276  0.62824586  0.89980503  1
