# generated using pymatgen
data_V79Zn79O256
_symmetry_space_group_name_H-M   'P 1'
_cell_length_a   16.89357633
_cell_length_b   16.89701781
_cell_length_c   16.91877706
_cell_angle_alpha   90.11977790
_cell_angle_beta   90.12139666
_cell_angle_gamma   90.08644283
_symmetry_Int_Tables_number   1
_chemical_formula_structural   V79Zn79O256
_chemical_formula_sum   'V79 Zn79 O256'
_cell_volume   4829.45592450
_cell_formula_units_Z   1
loop_
 _symmetry_equiv_pos_site_id
 _symmetry_equiv_pos_as_xyz
  1  'x, y, z'
loop_
 _atom_site_type_symbol
 _atom_site_label
 _atom_site_symmetry_multiplicity
 _atom_site_fract_x
 _atom_site_fract_y
 _atom_site_fract_z
 _atom_site_occupancy
  V  V0  1  0.62160851  0.62209693  0.49832878  1
  V  V1  1  0.37065516  0.12156448  0.26040451  1
  V  V2  1  0.11201502  0.86915527  0.24334497  1
  V  V3  1  0.87955898  0.62705582  0.25058754  1
  V  V4  1  0.00186353  0.87053139  0.86510420  1
  V  V5  1  0.25435936  -0.00109566  0.25974879  1
  V  V6  1  0.50097817  0.25442119  0.24916699  1
  V  V7  1  0.87395337  0.12332646  0.74832045  1
  V  V8  1  0.87285445  0.49360103  0.37633523  1
  V  V9  1  0.74144607  0.74409201  -0.00121906  1
  V  V10  1  0.62380044  0.12659961  0.49859667  1
  V  V11  1  0.50083477  0.37774841  0.37811716  1
  V  V12  1  0.37361938  0.64126006  0.74513467  1
  V  V13  1  0.12678106  0.36953260  0.25498190  1
  V  V14  1  0.87843905  0.74883162  0.12767607  1
  V  V15  1  0.25423216  0.62487991  0.87487928  1
  V  V16  1  0.37161977  0.88193501  0.50722288  1
  V  V17  1  0.12438675  0.49816090  0.12472813  1
  V  V18  1  0.25168644  0.36946060  0.11897087  1
  V  V19  1  0.87314396  0.62189112  0.75119441  1
  V  V20  1  0.25363202  0.49989640  0.25117345  1
  V  V21  1  0.00321894  0.24640154  0.25211486  1
  V  V22  1  0.00155428  0.25566088  0.76327425  1
  V  V23  1  0.62255732  0.48817049  0.11419012  1
  V  V24  1  0.86977145  -0.00576833  0.86717982  1
  V  V25  1  0.87214372  0.26097769  0.12231492  1
  V  V26  1  0.26428790  0.87115435  0.12441119  1
  V  V27  1  0.49445633  0.00283882  0.48864660  1
  V  V28  1  0.25366019  0.50643890  0.75058842  1
  V  V29  1  0.37904994  0.50115644  0.37866848  1
  V  V30  1  0.87367903  0.87243997  0.00509034  1
  V  V31  1  -0.00587192  0.86895374  0.38860770  1
  V  V32  1  0.12353389  0.62923985  0.49827463  1
  V  V33  1  0.12281359  0.11300615  0.48661258  1
  V  V34  1  0.13506173  -0.00990024  0.64626030  1
  V  V35  1  0.50000657  0.11974131  0.12427647  1
  V  V36  1  0.52013864  0.75833940  0.75761508  1
  V  V37  1  0.13917956  0.25123467  0.88173544  1
  V  V38  1  0.38195065  0.63819526  0.24686831  1
  V  V39  1  0.75629290  0.25648855  0.49884356  1
  V  V40  1  0.11810274  0.75093372  0.86619463  1
  V  V41  1  0.87971740  -0.00303049  0.38870665  1
  V  V42  1  0.12443491  0.49829069  0.62601198  1
  V  V43  1  0.61183723  0.37354186  0.74801008  1
  V  V44  1  0.87890198  0.25360237  0.62255949  1
  V  V45  1  0.38255778  0.38769041  -0.00337361  1
  V  V46  1  0.25570570  0.74935635  0.00398971  1
  V  V47  1  0.74301686  0.62261330  0.87514944  1
  V  V48  1  0.24017420  0.24488915  0.48636570  1
  V  V49  1  0.11980345  0.62579412  0.00299629  1
  V  V50  1  0.74914369  0.37867538  0.63049788  1
  V  V51  1  0.50352876  0.86544354  0.36954248  1
  V  V52  1  -0.00017077  0.37016430  0.37777240  1
  V  V53  1  0.49570733  0.63316640  0.62028060  1
  V  V54  1  0.36708063  0.00942510  0.86265828  1
  V  V55  1  -0.00525008  0.48499114  -0.00280897  1
  V  V56  1  0.74548307  0.62573081  0.37614342  1
  V  V57  1  0.74218070  0.48472372  0.24503525  1
  V  V58  1  -0.00117158  0.12180555  0.11829659  1
  V  V59  1  0.75327524  0.26454172  0.00340857  1
  V  V60  1  0.64115371  -0.00700075  0.13945356  1
  V  V61  1  0.62107102  0.50136454  0.62659656  1
  V  V62  1  0.14053173  0.12403742  -0.00385698  1
  V  V63  1  0.62410011  0.12446524  0.00204742  1
  V  V64  1  0.51097290  0.62827154  0.11918211  1
  V  V65  1  0.75053298  0.11917841  0.36948124  1
  V  V66  1  0.25761880  0.75257162  0.50521172  1
  V  V67  1  0.87465338  0.76171609  0.62710885  1
  V  V68  1  0.37182747  0.24722788  0.11833947  1
  V  V69  1  -0.00501073  0.49474015  0.50032250  1
  V  V70  1  0.61361097  0.25488724  0.87259315  1
  V  V71  1  0.37181200  0.37566325  0.50251148  1
  V  V72  1  0.87270405  0.11528409  0.24606725  1
  V  V73  1  0.74944643  0.75958419  0.50172168  1
  V  V74  1  0.49338436  0.13150942  0.62999746  1
  V  V75  1  0.87689639  0.48673739  0.87257633  1
  V  V76  1  0.74908044  0.12389612  0.87177509  1
  V  V77  1  0.62732567  0.25699630  0.36833657  1
  V  V78  1  -0.00331065  0.62752527  0.62927450  1
  Zn  Zn79  1  0.74249133  0.89553980  0.66407615  1
  Zn  Zn80  1  0.00610528  0.12002701  0.62185550  1
  Zn  Zn81  1  0.37246882  0.24816193  0.62553497  1
  Zn  Zn82  1  0.50279125  -0.01917673  -0.00806094  1
  Zn  Zn83  1  0.49664648  0.40825348  0.87925227  1
  Zn  Zn84  1  0.62725240  -0.00361987  0.61693915  1
  Zn  Zn85  1  0.24822605  0.37158082  0.62882517  1
  Zn  Zn86  1  0.53584189  0.75767123  0.25467707  1
  Zn  Zn87  1  0.25018391  0.63160879  0.37175000  1
  Zn  Zn88  1  0.12733287  -0.00164332  0.12067308  1
  Zn  Zn89  1  0.00112636  -0.00110567  -0.00335718  1
  Zn  Zn90  1  0.12192231  0.38391713  0.76244609  1
  Zn  Zn91  1  0.38769306  0.86659659  -0.01392797  1
  Zn  Zn92  1  0.11746891  0.74754984  0.37123112  1
  Zn  Zn93  1  0.00104627  0.62569897  0.13084329  1
  Zn  Zn94  1  0.18770222  0.18304353  0.18702764  1
  Zn  Zn95  1  0.19143859  0.18449023  0.67749441  1
  Zn  Zn96  1  0.18925694  0.68907320  0.18813220  1
  Zn  Zn97  1  0.21642354  0.74078714  0.71172177  1
  Zn  Zn98  1  0.68846032  0.18878068  0.18554283  1
  Zn  Zn99  1  0.68478095  0.18991112  0.68686564  1
  Zn  Zn100  1  0.69859011  0.67714126  0.18043127  1
  Zn  Zn101  1  0.69091278  0.68773159  0.68721850  1
  Zn  Zn102  1  0.31575156  0.31039536  0.31063848  1
  Zn  Zn103  1  0.30683947  0.31914321  0.81692215  1
  Zn  Zn104  1  0.31097149  0.81832854  0.32425031  1
  Zn  Zn105  1  0.33200903  0.85821603  0.78692891  1
  Zn  Zn106  1  0.81736208  0.30717503  0.30888781  1
  Zn  Zn107  1  0.80486189  0.30941182  0.80876892  1
  Zn  Zn108  1  0.80713462  0.81119258  0.31316624  1
  Zn  Zn109  1  0.81317931  0.80281990  0.81422674  1
  Zn  Zn110  1  0.18804497  0.43785861  0.43830733  1
  Zn  Zn111  1  0.18799048  0.43794792  0.93775843  1
  Zn  Zn112  1  0.18268590  0.93347233  0.43823992  1
  Zn  Zn113  1  0.19196732  0.93701451  0.93148292  1
  Zn  Zn114  1  0.68620922  0.43990950  0.44127790  1
  Zn  Zn115  1  0.68655381  0.44235291  0.93083755  1
  Zn  Zn116  1  0.68609446  0.93867556  0.43262329  1
  Zn  Zn117  1  0.69428551  0.94124438  0.94938102  1
  Zn  Zn118  1  0.31751009  0.05223061  0.06017031  1
  Zn  Zn119  1  0.30538862  0.06244341  0.56465707  1
  Zn  Zn120  1  0.31545481  0.56630266  0.06638175  1
  Zn  Zn121  1  0.31016743  0.56622272  0.56305292  1
  Zn  Zn122  1  0.81313140  0.06531924  0.05639654  1
  Zn  Zn123  1  0.80858675  0.06267359  0.56550215  1
  Zn  Zn124  1  0.81045010  0.55910211  0.06238822  1
  Zn  Zn125  1  0.81025667  0.56155318  0.56206502  1
  Zn  Zn126  1  0.44035775  0.44002326  0.18515290  1
  Zn  Zn127  1  0.43751395  0.44771437  0.68581199  1
  Zn  Zn128  1  0.44190964  0.93776601  0.18789618  1
  Zn  Zn129  1  0.44626386  0.94282591  0.68364128  1
  Zn  Zn130  1  0.93810976  0.44154992  0.18982580  1
  Zn  Zn131  1  0.93664247  0.43532837  0.68929941  1
  Zn  Zn132  1  0.93306448  0.93700664  0.18466080  1
  Zn  Zn133  1  0.95046659  0.93940986  0.68276852  1
  Zn  Zn134  1  0.06304778  0.05421841  0.30995389  1
  Zn  Zn135  1  0.06214076  0.06432536  0.81280811  1
  Zn  Zn136  1  0.06303783  0.55784936  0.31410764  1
  Zn  Zn137  1  0.05981859  0.56478649  0.81423656  1
  Zn  Zn138  1  0.56044297  0.06261587  0.31141087  1
  Zn  Zn139  1  0.54187033  0.07906711  0.82565843  1
  Zn  Zn140  1  0.56281463  0.56086112  0.30860568  1
  Zn  Zn141  1  0.55931426  0.56416640  0.80454143  1
  Zn  Zn142  1  0.43498207  0.19253633  0.44032138  1
  Zn  Zn143  1  0.42980724  0.18648023  0.93796257  1
  Zn  Zn144  1  0.43904010  0.69083284  0.43372330  1
  Zn  Zn145  1  0.44557529  0.67967857  0.93069793  1
  Zn  Zn146  1  0.94050750  0.18257427  0.43803952  1
  Zn  Zn147  1  0.93488482  0.18844760  0.93818409  1
  Zn  Zn148  1  0.93186548  0.68720295  0.44068142  1
  Zn  Zn149  1  0.93439257  0.68334931  0.94019211  1
  Zn  Zn150  1  0.06436985  0.30730815  0.06429196  1
  Zn  Zn151  1  0.06331601  0.30704903  0.56423828  1
  Zn  Zn152  1  0.05861902  0.81083014  0.06051022  1
  Zn  Zn153  1  0.06401969  0.81453121  0.56812636  1
  Zn  Zn154  1  0.56140184  0.31195803  0.06108660  1
  Zn  Zn155  1  0.56113824  0.31147443  0.55967727  1
  Zn  Zn156  1  0.56674806  0.81075429  0.07139104  1
  Zn  Zn157  1  0.56691810  0.81628735  0.56469710  1
  O  O158  1  0.11577086  0.12700655  0.11255248  1
  O  O159  1  0.12677563  0.11493566  0.61696661  1
  O  O160  1  0.12555064  0.61766089  0.11981425  1
  O  O161  1  0.11091089  0.61426859  0.61306792  1
  O  O162  1  0.61906964  0.12310106  0.11847029  1
  O  O163  1  0.61822975  0.13207903  0.60902626  1
  O  O164  1  0.61752099  0.61101671  0.13292670  1
  O  O165  1  0.62248452  0.61785074  0.61895151  1
  O  O166  1  0.38071018  0.38201537  0.38083109  1
  O  O167  1  0.37384802  0.36865095  0.89338808  1
  O  O168  1  0.38970460  0.87008575  0.39040321  1
  O  O169  1  0.38246886  0.89227491  0.87636456  1
  O  O170  1  0.88623599  0.38334216  0.36847354  1
  O  O171  1  0.86771229  0.38786153  0.86856833  1
  O  O172  1  0.87951028  0.88733946  0.36593426  1
  O  O173  1  0.88732249  0.87553260  0.88312421  1
  O  O174  1  0.25012914  -0.01293401  0.35775853  1
  O  O175  1  0.26501653  0.00084568  0.87874880  1
  O  O176  1  0.25734652  0.50049188  0.36376317  1
  O  O177  1  0.23573317  0.51496849  0.86409223  1
  O  O178  1  0.76096097  0.01072830  0.37744887  1
  O  O179  1  0.75781522  0.01478541  0.88254041  1
  O  O180  1  0.75662562  0.50237332  0.36971697  1
  O  O181  1  0.76909716  0.51172560  0.88623096  1
  O  O182  1  0.24668556  0.49144465  0.13486276  1
  O  O183  1  0.23841860  0.50393938  0.63237129  1
  O  O184  1  0.24717521  0.98262050  0.12947569  1
  O  O185  1  0.23596659  1.00017662  0.62456298  1
  O  O186  1  0.74014987  0.50215812  0.13726137  1
  O  O187  1  0.74204311  0.48608608  0.61668380  1
  O  O188  1  0.74046386  1.00842931  0.12196453  1
  O  O189  1  0.74062612  1.00786916  0.63257469  1
  O  O190  1  0.00789702  0.36798003  0.25564208  1
  O  O191  1  0.00464141  0.35997088  0.74664686  1
  O  O192  1  0.01010115  0.87884035  0.24990735  1
  O  O193  1  -0.00594700  0.86946617  0.76709210  1
  O  O194  1  0.48949227  0.36129223  0.26033193  1
  O  O195  1  0.50760420  0.37971370  0.75082033  1
  O  O196  1  0.49332376  0.87239097  0.26413058  1
  O  O197  1  0.49622271  0.85491375  0.73822043  1
  O  O198  1  0.49187021  0.13346139  0.24300084  1
  O  O199  1  0.51303359  0.12179797  0.72752024  1
  O  O200  1  0.49094866  0.63248295  0.25273563  1
  O  O201  1  0.49242241  0.63742644  0.73892259  1
  O  O202  1  0.99541678  0.12966888  0.24181562  1
  O  O203  1  0.98760096  0.13776311  0.75256204  1
  O  O204  1  0.98510890  0.61501659  0.25178665  1
  O  O205  1  0.99115336  0.61972895  0.73720656  1
  O  O206  1  0.37758305  0.25639207  0.01518411  1
  O  O207  1  0.36308644  0.26066969  0.49815897  1
  O  O208  1  0.35727518  0.74630538  -0.00968862  1
  O  O209  1  0.36250011  0.75282984  0.49739424  1
  O  O210  1  0.86122646  0.24668533  0.00573684  1
  O  O211  1  0.86697483  0.24197147  0.50891091  1
  O  O212  1  0.87188654  0.75580678  0.00673997  1
  O  O213  1  0.86217611  0.74101154  0.51650276  1
  O  O214  1  0.13553895  0.24639575  0.49910713  1
  O  O215  1  0.11991973  0.23842084  0.99124122  1
  O  O216  1  0.12578591  0.74076315  0.49797410  1
  O  O217  1  0.13013855  0.73841013  1.00187039  1
  O  O218  1  0.63278061  0.24420552  0.48805734  1
  O  O219  1  0.63539015  0.24560195  0.99584755  1
  O  O220  1  0.64273351  0.73674388  0.50786020  1
  O  O221  1  0.64339089  0.75130066  1.00407529  1
  O  O222  1  0.49444646  0.24255954  0.13322788  1
  O  O223  1  0.49456799  0.23795785  0.61689102  1
  O  O224  1  0.52042451  0.73316295  0.14281117  1
  O  O225  1  0.50947171  0.73727144  0.63030025  1
  O  O226  1  0.99307221  0.24142873  0.13209411  1
  O  O227  1  0.99158228  0.24787633  0.63415322  1
  O  O228  1  0.98483157  0.74397603  0.12161257  1
  O  O229  1  0.98441112  0.73928646  0.61439541  1
  O  O230  1  -0.01028867  0.25792532  0.36198825  1
  O  O231  1  -0.00287072  0.25176625  0.86555569  1
  O  O232  1  -0.00842144  0.76387728  0.37624262  1
  O  O233  1  0.00789912  0.75854919  0.88558463  1
  O  O234  1  0.50781532  0.25587150  0.36791556  1
  O  O235  1  0.51385400  0.24945848  0.88398640  1
  O  O236  1  0.50666535  0.75902271  0.37107495  1
  O  O237  1  0.50073335  0.74248494  0.85626979  1
  O  O238  1  0.24139047  0.13748788  0.49721542  1
  O  O239  1  0.23830204  0.12466031  1.01057784  1
  O  O240  1  0.24109340  0.63233011  0.49486755  1
  O  O241  1  0.24163904  0.62699908  0.99671645  1
  O  O242  1  0.74343228  0.13531909  0.48872232  1
  O  O243  1  0.74038431  0.13415071  0.99067415  1
  O  O244  1  0.74230440  0.62485492  0.49274456  1
  O  O245  1  0.75712758  0.63214183  0.98820590  1
  O  O246  1  0.25650111  0.37916581  0.01411396  1
  O  O247  1  0.25613529  0.36957023  0.50078861  1
  O  O248  1  0.24563893  0.86655814  0.01417945  1
  O  O249  1  0.26059744  0.86506569  0.49300959  1
  O  O250  1  0.74675972  0.36264546  -0.00496625  1
  O  O251  1  0.74465705  0.36224186  0.50787967  1
  O  O252  1  0.76190524  0.85760799  -0.01480737  1
  O  O253  1  0.74886853  0.85825750  0.48873397  1
  O  O254  1  0.13297771  0.49116475  0.24589245  1
  O  O255  1  0.12910573  0.50454585  0.74173501  1
  O  O256  1  0.13629086  0.98788323  0.24567036  1
  O  O257  1  0.13151467  1.00581145  0.74755431  1
  O  O258  1  0.63994171  0.49741522  0.25123735  1
  O  O259  1  0.62584825  0.49079277  0.73526970  1
  O  O260  1  0.62912941  1.01079966  0.23901713  1
  O  O261  1  0.61507667  0.96851828  0.78307654  1
  O  O262  1  0.36289094  0.00635587  0.24324673  1
  O  O263  1  0.37570205  -0.00931277  0.75892491  1
  O  O264  1  0.36837895  0.50324651  0.25798333  1
  O  O265  1  0.35847055  0.51325406  0.74331716  1
  O  O266  1  0.87523220  0.01221349  0.25210681  1
  O  O267  1  0.88286832  0.01093002  0.75851470  1
  O  O268  1  0.86529183  0.50462125  0.25729914  1
  O  O269  1  0.88239454  0.50541145  0.76434648  1
  O  O270  1  0.11499644  0.38150651  0.36319258  1
  O  O271  1  0.12808488  0.35813951  0.87884826  1
  O  O272  1  0.10705373  0.87701083  0.36502288  1
  O  O273  1  0.11262938  0.86268564  0.88388833  1
  O  O274  1  0.61685676  0.36561316  0.38165765  1
  O  O275  1  0.62007879  0.37316844  0.86595445  1
  O  O276  1  0.60283710  0.88216117  0.38266666  1
  O  O277  1  0.64465373  0.91176530  0.82157788  1
  O  O278  1  0.38187897  0.13015561  0.13030811  1
  O  O279  1  0.39039605  0.12339679  0.61553765  1
  O  O280  1  0.38932816  0.61836775  0.14100855  1
  O  O281  1  0.38551855  0.62112057  0.62947636  1
  O  O282  1  0.88072592  0.13213588  0.12893586  1
  O  O283  1  0.87413593  0.13608004  0.63401961  1
  O  O284  1  0.87487409  0.62752119  0.13486992  1
  O  O285  1  0.87984745  0.62164515  0.63311712  1
  O  O286  1  0.25922509  0.25946489  0.13550864  1
  O  O287  1  0.25323702  0.25623095  0.60824105  1
  O  O288  1  0.24629041  0.76128133  0.11874431  1
  O  O289  1  0.24130090  0.74365158  0.60284587  1
  O  O290  1  0.75564151  0.24692867  0.11179916  1
  O  O291  1  0.75639001  0.25562364  0.61693862  1
  O  O292  1  0.76368785  0.73894136  0.10688010  1
  O  O293  1  0.76145882  0.75038856  0.61708373  1
  O  O294  1  0.24958579  0.25767068  0.38596531  1
  O  O295  1  0.23736824  0.24581760  0.87766949  1
  O  O296  1  0.23980353  0.74926221  0.38677648  1
  O  O297  1  0.22880553  0.73923669  0.88765817  1
  O  O298  1  0.74698936  0.24509920  0.37968395  1
  O  O299  1  0.74401422  0.24407942  0.88629062  1
  O  O300  1  0.76431358  0.73377088  0.39210519  1
  O  O301  1  0.75871526  0.73215923  0.88581385  1
  O  O302  1  -0.00040028  0.12363486  0.00879422  1
  O  O303  1  0.01823129  0.13454115  0.50306173  1
  O  O304  1  0.00988325  0.61625098  0.00294323  1
  O  O305  1  0.00283781  0.61451096  0.50502858  1
  O  O306  1  0.51200866  0.13423398  0.01204058  1
  O  O307  1  0.50663249  0.12217532  0.49896365  1
  O  O308  1  0.49505654  0.63298241  0.02130076  1
  O  O309  1  0.51182503  0.63472016  0.50468187  1
  O  O310  1  0.48840695  0.36797433  0.48623423  1
  O  O311  1  0.48661414  0.37511656  0.99974047  1
  O  O312  1  0.49150695  0.88231204  0.49372525  1
  O  O313  1  0.49836562  0.86864288  1.00890513  1
  O  O314  1  1.00776254  0.38286022  0.48969296  1
  O  O315  1  1.00467415  0.38623698  1.00412054  1
  O  O316  1  1.00064712  0.87526159  0.48656674  1
  O  O317  1  0.98933395  0.87828322  0.99558982  1
  O  O318  1  0.49119461  0.48871167  0.36591180  1
  O  O319  1  0.48659922  0.51840691  0.87191259  1
  O  O320  1  0.49678009  0.99804221  0.38382722  1
  O  O321  1  0.48799084  1.00342560  0.88104193  1
  O  O322  1  0.99247480  0.49057966  0.38083529  1
  O  O323  1  0.99250893  0.49945698  0.88686997  1
  O  O324  1  0.98513824  0.99034045  0.37019833  1
  O  O325  1  0.99125069  0.98707238  0.87511571  1
  O  O326  1  0.00119419  0.01191791  0.12366143  1
  O  O327  1  0.01850094  0.00647098  0.62919418  1
  O  O328  1  0.00460749  0.50076680  0.11434816  1
  O  O329  1  0.00174654  0.50409194  0.61711400  1
  O  O330  1  0.50900584  0.01289645  0.12671231  1
  O  O331  1  0.50765069  0.01305548  0.60858389  1
  O  O332  1  0.51407117  0.51201644  0.13652743  1
  O  O333  1  0.51069957  0.51588062  0.62638280  1
  O  O334  1  0.24539480  0.38095619  0.24392631  1
  O  O335  1  0.24453365  0.39017793  0.74886966  1
  O  O336  1  0.24608269  0.88015662  0.24011398  1
  O  O337  1  0.23300153  0.84414439  0.74870088  1
  O  O338  1  0.75441880  0.38567887  0.25425756  1
  O  O339  1  0.73633953  0.36927885  0.73638035  1
  O  O340  1  0.70278910  0.83021482  0.25982976  1
  O  O341  1  0.76120856  0.89076354  0.77439460  1
  O  O342  1  0.25375084  0.10769510  0.24286010  1
  O  O343  1  0.28855426  0.16893133  0.74773711  1
  O  O344  1  0.26064715  0.61542100  0.24764523  1
  O  O345  1  0.25340635  0.62803399  0.75576269  1
  O  O346  1  0.76051772  0.13651508  0.26112392  1
  O  O347  1  0.76059024  0.13839680  0.76194927  1
  O  O348  1  0.75911527  0.61228374  0.26065428  1
  O  O349  1  0.76181251  0.62604195  0.76195684  1
  O  O350  1  0.37827070  0.13162573  0.35917537  1
  O  O351  1  0.38015554  0.11345945  0.87304552  1
  O  O352  1  0.37596123  0.61649969  0.36456494  1
  O  O353  1  0.35896562  0.63182071  0.86494533  1
  O  O354  1  0.87185477  0.11499366  0.36751863  1
  O  O355  1  0.86863402  0.11675035  0.86961979  1
  O  O356  1  0.86833651  0.61260573  0.37060818  1
  O  O357  1  0.87584928  0.61748086  0.86502892  1
  O  O358  1  0.13258659  0.37654662  0.13432377  1
  O  O359  1  0.12193885  0.39053881  0.62530636  1
  O  O360  1  0.12566379  0.87466831  0.13520695  1
  O  O361  1  0.11933306  0.88836415  0.62871736  1
  O  O362  1  0.61445865  0.38788761  0.12870739  1
  O  O363  1  0.62652813  0.37966243  0.62786789  1
  O  O364  1  0.62647691  0.89467616  0.12552826  1
  O  O365  1  0.63587509  0.88241160  0.62158835  1
  O  O366  1  0.11451052  0.25705010  0.24323299  1
  O  O367  1  0.11336827  0.24251836  0.76459390  1
  O  O368  1  0.12871058  0.76503657  0.25238743  1
  O  O369  1  0.11315004  0.73541660  0.76901935  1
  O  O370  1  0.61554823  0.24417665  0.25882508  1
  O  O371  1  0.62801768  0.26005935  0.76063109  1
  O  O372  1  0.65923802  0.76066496  0.25629621  1
  O  O373  1  0.62115504  0.74921065  0.75089725  1
  O  O374  1  0.38125119  0.24216098  0.24060223  1
  O  O375  1  0.34175349  0.22951838  0.74480482  1
  O  O376  1  0.36565352  0.73576931  0.25497098  1
  O  O377  1  0.37326276  0.74123651  0.74436909  1
  O  O378  1  0.88430549  0.23856773  0.24178093  1
  O  O379  1  0.88323471  0.24519626  0.74541479  1
  O  O380  1  0.86308439  0.73833249  0.24090326  1
  O  O381  1  0.87182068  0.73717808  0.73449109  1
  O  O382  1  0.36561473  0.49377435  0.48600567  1
  O  O383  1  0.37164670  0.48677086  1.00669422  1
  O  O384  1  0.37862176  0.98995122  0.50137046  1
  O  O385  1  0.38200549  0.99253815  0.99228869  1
  O  O386  1  0.88466804  0.50302050  0.48980887  1
  O  O387  1  0.88835114  0.50215860  0.99259668  1
  O  O388  1  0.87576247  1.00635662  0.48736831  1
  O  O389  1  0.87307956  0.99041570  0.98750756  1
  O  O390  1  0.12257877  0.01351064  -0.00180512  1
  O  O391  1  0.13066866  0.01135618  0.50241951  1
  O  O392  1  0.11607708  0.50566512  0.00358574  1
  O  O393  1  0.11610552  0.50702428  0.50417731  1
  O  O394  1  0.62349977  0.01221589  0.00669006  1
  O  O395  1  0.61752655  0.01600264  0.49118703  1
  O  O396  1  0.63127296  0.49731647  0.01496391  1
  O  O397  1  0.62632108  0.51036256  0.51008013  1
  O  O398  1  0.37050389  0.36853319  0.11937879  1
  O  O399  1  0.37665644  0.37873560  0.61219726  1
  O  O400  1  0.36433124  0.87268080  0.12630321  1
  O  O401  1  0.38271399  0.87336770  0.60567842  1
  O  O402  1  0.88033653  0.36004881  0.13217906  1
  O  O403  1  0.86512517  0.36316302  0.63191740  1
  O  O404  1  0.87532911  0.86640459  0.11568560  1
  O  O405  1  0.87492105  0.86287814  0.63448870  1
  O  O406  1  0.12125314  0.11751960  0.38529954  1
  O  O407  1  0.11894729  0.13400588  0.88967907  1
  O  O408  1  0.12301126  0.62448068  0.38503581  1
  O  O409  1  0.12457583  0.63296477  0.88606304  1
  O  O410  1  0.63238277  0.13513494  0.37815838  1
  O  O411  1  0.63048877  0.13446847  0.88135317  1
  O  O412  1  0.63539018  0.61640532  0.38269444  1
  O  O413  1  0.64532743  0.61314878  0.86766146  1
