# generated using pymatgen
data_V79Zn79O256
_symmetry_space_group_name_H-M   'P 1'
_cell_length_a   16.86165489
_cell_length_b   16.90685686
_cell_length_c   16.88757617
_cell_angle_alpha   90.01864147
_cell_angle_beta   90.06736505
_cell_angle_gamma   90.06941450
_symmetry_Int_Tables_number   1
_chemical_formula_structural   V79Zn79O256
_chemical_formula_sum   'V79 Zn79 O256'
_cell_volume   4814.26232393
_cell_formula_units_Z   1
loop_
 _symmetry_equiv_pos_site_id
 _symmetry_equiv_pos_as_xyz
  1  'x, y, z'
loop_
 _atom_site_type_symbol
 _atom_site_label
 _atom_site_symmetry_multiplicity
 _atom_site_fract_x
 _atom_site_fract_y
 _atom_site_fract_z
 _atom_site_occupancy
  V  V0  1  0.49092363  -0.00544569  0.50918817  1
  V  V1  1  0.38072726  0.12925711  0.74012836  1
  V  V2  1  0.62030436  0.50880360  0.62515497  1
  V  V3  1  0.37192097  0.00210096  0.37498368  1
  V  V4  1  0.12847654  0.37514953  0.75081867  1
  V  V5  1  0.00034335  0.24791404  0.75042990  1
  V  V6  1  0.63371788  0.87386305  0.74638750  1
  V  V7  1  0.49356246  0.49673102  0.50014564  1
  V  V8  1  0.37646628  0.50043279  0.37012787  1
  V  V9  1  0.25992793  0.25043624  0.00487654  1
  V  V10  1  -0.00289405  0.63420486  0.12081404  1
  V  V11  1  0.50982750  0.61742527  0.13690492  1
  V  V12  1  0.11791978  0.50081892  0.62470630  1
  V  V13  1  0.25778374  0.50441986  0.24875676  1
  V  V14  1  0.50433175  0.74442527  0.74449557  1
  V  V15  1  -0.00260919  0.12637724  0.13050003  1
  V  V16  1  0.49682946  0.87628486  0.37388690  1
  V  V17  1  0.88481982  0.88004893  0.01179115  1
  V  V18  1  0.26119354  0.37409092  0.61489664  1
  V  V19  1  0.12008972  0.12289596  0.00225785  1
  V  V20  1  0.50508541  0.75630796  0.25440711  1
  V  V21  1  -0.00139878  0.87860612  0.85161780  1
  V  V22  1  0.12922178  -0.01085343  0.62280812  1
  V  V23  1  -0.00134601  0.26054624  0.25406868  1
  V  V24  1  0.87765348  0.00086255  0.38267762  1
  V  V25  1  0.49723239  0.37783811  0.87499131  1
  V  V26  1  0.74105924  0.49839263  0.24917124  1
  V  V27  1  0.12120565  0.62012494  0.50033901  1
  V  V28  1  0.00918062  0.12553200  0.61870043  1
  V  V29  1  0.00060463  0.87933372  0.38160379  1
  V  V30  1  0.74782336  0.25170701  0.49264306  1
  V  V31  1  0.25702343  0.62378810  0.37345814  1
  V  V32  1  0.50496398  0.87760133  0.88372168  1
  V  V33  1  0.75734011  0.00033221  0.24886989  1
  V  V34  1  0.11604804  0.75413010  0.86819303  1
  V  V35  1  0.12726185  0.24963112  0.87618983  1
  V  V36  1  0.63691894  -0.00184776  0.62211298  1
  V  V37  1  0.75510431  0.61864040  0.38789820  1
  V  V38  1  0.38212321  -0.00026172  0.88278562  1
  V  V39  1  0.62050831  0.35475272  0.25323628  1
  V  V40  1  -0.00471644  0.64310494  0.62610967  1
  V  V41  1  0.87883492  0.63932212  0.75630434  1
  V  V42  1  0.61425718  -0.00508896  0.13570697  1
  V  V43  1  0.37359988  0.76353250  0.62622934  1
  V  V44  1  0.49923169  0.24762262  0.73992697  1
  V  V45  1  0.25156786  0.00574649  0.24620425  1
  V  V46  1  -0.00502684  0.38180203  0.88125973  1
  V  V47  1  0.75611191  0.00491838  0.75985701  1
  V  V48  1  0.49935286  0.35765606  0.37488194  1
  V  V49  1  0.37736237  0.62383007  0.74368018  1
  V  V50  1  0.24775077  -0.01347269  0.74847826  1
  V  V51  1  0.75367040  0.74085288  0.00539704  1
  V  V52  1  0.63236336  0.73855133  0.88147913  1
  V  V53  1  0.12253541  0.75105468  0.37368360  1
  V  V54  1  0.12035995  0.24963762  0.39058602  1
  V  V55  1  0.25272331  0.37966177  0.12561536  1
  V  V56  1  0.12786101  0.87325344  0.24758735  1
  V  V57  1  0.25633899  0.50015205  0.75817040  1
  V  V58  1  0.75333447  0.50576216  0.75486347  1
  V  V59  1  0.63808124  0.24473194  0.88105985  1
  V  V60  1  0.25497064  0.63479578  0.88088225  1
  V  V61  1  0.61590348  0.63239901  0.49768607  1
  V  V62  1  0.25384933  0.12539081  0.87560941  1
  V  V63  1  0.11823473  0.00005367  0.11970960  1
  V  V64  1  0.37660625  0.38286578  -0.00111239  1
  V  V65  1  0.51614174  0.50670610  0.00305266  1
  V  V66  1  0.87421700  0.25035937  0.62279395  1
  V  V67  1  0.62769744  0.37374889  0.74578767  1
  V  V68  1  0.25625624  0.76012305  0.50526884  1
  V  V69  1  0.88481149  0.38487472  0.48877997  1
  V  V70  1  0.74926208  0.87336255  0.13130107  1
  V  V71  1  0.75352917  0.12615428  0.36963279  1
  V  V72  1  0.75091717  0.37409297  0.11543217  1
  V  V73  1  0.61626401  0.12766457  0.49853956  1
  V  V74  1  0.37008476  0.74375781  0.12242822  1
  V  V75  1  0.87206578  0.25353039  0.11433235  1
  V  V76  1  0.87455311  0.62494876  0.24805524  1
  V  V77  1  0.62919306  0.10807612  -0.00372218  1
  V  V78  1  0.27400922  0.24625882  0.50730717  1
  Zn  Zn79  1  0.13226415  0.62683331  0.00209017  1
  Zn  Zn80  1  0.86658008  0.13126927  0.75784194  1
  Zn  Zn81  1  0.65325546  0.78057794  0.39322522  1
  Zn  Zn82  1  0.49394210  0.13964421  0.12314631  1
  Zn  Zn83  1  -0.11558050  0.01113367  -0.11032064  1
  Zn  Zn84  1  0.75191320  0.37823379  0.62012493  1
  Zn  Zn85  1  0.24477726  0.12068585  0.39001724  1
  Zn  Zn86  1  0.12528484  0.38054651  0.25737087  1
  Zn  Zn87  1  -0.00558632  0.49429151  0.01148073  1
  Zn  Zn88  1  0.36599307  0.86630291  -0.00481121  1
  Zn  Zn89  1  0.12219077  0.50166787  0.12485283  1
  Zn  Zn90  1  -0.02010965  0.75910384  0.24886893  1
  Zn  Zn91  1  0.86713935  0.50447251  0.88418725  1
  Zn  Zn92  1  0.24578274  0.86614633  0.11125632  1
  Zn  Zn93  1  0.00837930  0.00574041  0.49760718  1
  Zn  Zn94  1  0.21796118  0.21238159  0.21102401  1
  Zn  Zn95  1  0.19238304  0.18459902  0.68498802  1
  Zn  Zn96  1  0.18666546  0.68457629  0.18795771  1
  Zn  Zn97  1  0.18838666  0.69024212  0.68965758  1
  Zn  Zn98  1  0.68556770  0.18198279  0.18146082  1
  Zn  Zn99  1  0.68486884  0.18513583  0.68253193  1
  Zn  Zn100  1  0.68477661  0.68918448  0.19138436  1
  Zn  Zn101  1  0.69949057  0.69361588  0.68177702  1
  Zn  Zn102  1  0.30590444  0.32003838  0.32951396  1
  Zn  Zn103  1  0.31485598  0.31121095  0.81309373  1
  Zn  Zn104  1  0.31760658  0.81119507  0.30772100  1
  Zn  Zn105  1  0.31628499  0.80975752  0.81616348  1
  Zn  Zn106  1  0.81663910  0.31362721  0.30907238  1
  Zn  Zn107  1  0.81313773  0.31660742  0.81194019  1
  Zn  Zn108  1  0.80708893  0.81246265  0.33307852  1
  Zn  Zn109  1  0.81381161  0.81900140  0.82196312  1
  Zn  Zn110  1  0.07425743  0.43521461  0.43472918  1
  Zn  Zn111  1  0.18209197  0.44378810  0.94239102  1
  Zn  Zn112  1  0.18736869  0.93806007  0.43856341  1
  Zn  Zn113  1  0.18543509  0.93505758  0.93381937  1
  Zn  Zn114  1  0.68384279  0.43785136  0.43546968  1
  Zn  Zn115  1  0.68739098  0.43581668  0.93473853  1
  Zn  Zn116  1  0.69011171  0.93946153  0.43717588  1
  Zn  Zn117  1  0.69258641  0.92999425  0.93944918  1
  Zn  Zn118  1  0.31387193  0.06414189  0.06602527  1
  Zn  Zn119  1  0.31179894  0.06174897  0.56525285  1
  Zn  Zn120  1  0.32541192  0.56175351  0.06375537  1
  Zn  Zn121  1  0.30963416  0.56353133  0.56334629  1
  Zn  Zn122  1  0.80927261  0.06655244  0.06199411  1
  Zn  Zn123  1  0.81388357  0.06614419  0.56286813  1
  Zn  Zn124  1  0.81691059  0.55585187  0.06530585  1
  Zn  Zn125  1  0.80856911  0.56655582  0.57345953  1
  Zn  Zn126  1  0.42450337  0.30430137  0.18939217  1
  Zn  Zn127  1  0.43979691  0.43827507  0.68835568  1
  Zn  Zn128  1  0.42987013  0.93104697  0.18472552  1
  Zn  Zn129  1  0.44169723  0.93792559  0.69644484  1
  Zn  Zn130  1  0.93218269  0.44370023  0.19393466  1
  Zn  Zn131  1  0.93440718  0.43824921  0.68787245  1
  Zn  Zn132  1  0.93683566  0.93899665  0.19225791  1
  Zn  Zn133  1  0.93054498  0.93147021  0.67241285  1
  Zn  Zn134  1  0.06629454  0.06974146  0.31009663  1
  Zn  Zn135  1  0.06384056  0.06255928  0.81064284  1
  Zn  Zn136  1  0.06761558  0.56611046  0.30357799  1
  Zn  Zn137  1  0.06555999  0.56723758  0.80919623  1
  Zn  Zn138  1  0.56063833  0.06639420  0.31609170  1
  Zn  Zn139  1  0.56542855  0.06310388  0.81049336  1
  Zn  Zn140  1  0.56323565  0.55776251  0.31227846  1
  Zn  Zn141  1  0.56264483  0.56132141  0.81503362  1
  Zn  Zn142  1  0.38978492  0.14389496  0.25229043  1
  Zn  Zn143  1  0.44738582  0.18678984  0.93619881  1
  Zn  Zn144  1  0.43761380  0.68790366  0.44038398  1
  Zn  Zn145  1  0.44047392  0.68675559  0.93508339  1
  Zn  Zn146  1  0.93479299  0.18871060  0.43592189  1
  Zn  Zn147  1  0.93470894  0.19143629  0.93842438  1
  Zn  Zn148  1  0.93603469  0.55803663  0.43921143  1
  Zn  Zn149  1  0.93421365  0.69540835  0.93678581  1
  Zn  Zn150  1  0.06868001  0.30962385  0.06634900  1
  Zn  Zn151  1  0.06174048  0.31659523  0.56867438  1
  Zn  Zn152  1  0.06897361  0.80433075  0.05757677  1
  Zn  Zn153  1  0.06794354  0.81349769  0.56118649  1
  Zn  Zn154  1  0.56718160  0.31569084  0.06193306  1
  Zn  Zn155  1  0.55911319  0.31305572  0.55824654  1
  Zn  Zn156  1  0.56425958  0.80731089  0.06697788  1
  Zn  Zn157  1  0.55882580  0.81659282  0.56457089  1
  O  O158  1  0.11847875  0.11664489  0.11750478  1
  O  O159  1  0.11535537  0.11670500  0.63238309  1
  O  O160  1  0.11029007  0.62576170  0.12583292  1
  O  O161  1  0.11772452  0.62113547  0.62172115  1
  O  O162  1  0.62453944  0.10694349  0.11631761  1
  O  O163  1  0.62846497  0.11294378  0.60936914  1
  O  O164  1  0.60825037  0.63312805  0.12235294  1
  O  O165  1  0.63506717  0.61942518  0.61184613  1
  O  O166  1  0.39038072  0.38698147  0.37209852  1
  O  O167  1  0.38794000  0.36956798  0.88190428  1
  O  O168  1  0.38215184  0.88736041  0.37085845  1
  O  O169  1  0.38770031  0.88097570  0.87341218  1
  O  O170  1  0.87340806  0.37613850  0.39023014  1
  O  O171  1  0.89210602  0.37651295  0.86889704  1
  O  O172  1  0.89443689  0.88622109  0.36342290  1
  O  O173  1  0.88997442  0.87841983  0.88562556  1
  O  O174  1  0.25135001  -0.00239808  0.36479358  1
  O  O175  1  0.25728240  0.00525817  0.86274396  1
  O  O176  1  0.26039561  0.50868897  0.36892952  1
  O  O177  1  0.24338565  0.50953573  0.86269418  1
  O  O178  1  0.75898774  0.00690253  0.36768325  1
  O  O179  1  0.75572286  -0.00476109  0.86273682  1
  O  O180  1  0.74234438  0.50998590  0.36258951  1
  O  O181  1  0.74737247  0.49794696  0.86009873  1
  O  O182  1  0.25547146  0.49817321  0.13219811  1
  O  O183  1  0.24207943  0.49121271  0.63332210  1
  O  O184  1  0.23806659  0.99712108  0.13527557  1
  O  O185  1  0.24253523  1.00265986  0.63774564  1
  O  O186  1  0.75745048  0.48276736  0.13744699  1
  O  O187  1  0.73744960  0.49766992  0.63484212  1
  O  O188  1  0.74686646  0.99390774  0.13354347  1
  O  O189  1  0.74178264  0.99960821  0.62904299  1
  O  O190  1  0.00353600  0.36463962  0.24444762  1
  O  O191  1  0.01046748  0.36625752  0.75315710  1
  O  O192  1  0.01278179  0.87433025  0.25602966  1
  O  O193  1  -0.01215745  0.87060450  0.75324475  1
  O  O194  1  0.51177240  0.36593506  0.25939419  1
  O  O195  1  0.50752199  0.37071079  0.75629213  1
  O  O196  1  0.49600445  0.86277599  0.25524743  1
  O  O197  1  0.51202110  0.86422464  0.75866650  1
  O  O198  1  0.50245607  0.12523905  0.24327385  1
  O  O199  1  0.48973050  0.13153648  0.75458609  1
  O  O200  1  0.50262477  0.62966097  0.24266848  1
  O  O201  1  0.49216589  0.63439482  0.75811005  1
  O  O202  1  1.00726852  0.13905250  0.23631901  1
  O  O203  1  1.00219576  0.13897211  0.74304977  1
  O  O204  1  0.98633816  0.62935851  0.24693685  1
  O  O205  1  0.99204900  0.62364245  0.73620744  1
  O  O206  1  0.36553830  0.25775845  -0.00818647  1
  O  O207  1  0.36891073  0.25381992  0.50351918  1
  O  O208  1  0.38838499  0.74969747  0.01536429  1
  O  O209  1  0.36390471  0.74471601  0.50968715  1
  O  O210  1  0.88013478  0.25817256  0.01512264  1
  O  O211  1  0.86956979  0.26151990  0.50510365  1
  O  O212  1  0.86043019  0.76420252  -0.00525255  1
  O  O213  1  0.83465427  0.79285464  0.62109142  1
  O  O214  1  0.11326722  0.25031922  0.49163299  1
  O  O215  1  0.13565658  0.24208768  0.99452268  1
  O  O216  1  0.13610762  0.74234428  0.49422237  1
  O  O217  1  0.12319817  0.74100832  0.98101922  1
  O  O218  1  0.63177789  0.23621238  0.50634887  1
  O  O219  1  0.62914236  0.25675002  0.98156564  1
  O  O220  1  0.61344396  0.73692228  0.49900552  1
  O  O221  1  0.63417919  0.75245684  0.98805366  1
  O  O222  1  0.50363014  0.25497826  0.12813178  1
  O  O223  1  0.50358837  0.25691312  0.64020984  1
  O  O224  1  0.49753374  0.74319562  0.13762084  1
  O  O225  1  0.49352908  0.75244047  0.63750974  1
  O  O226  1  0.99298217  0.24849072  0.13302177  1
  O  O227  1  0.99579866  0.24529590  0.63237037  1
  O  O228  1  1.00303300  0.73915871  0.13374240  1
  O  O229  1  1.00435544  0.74207016  0.62457170  1
  O  O230  1  0.00730808  0.24429918  0.36310680  1
  O  O231  1  0.00688524  0.26027512  0.86638970  1
  O  O232  1  0.01705021  0.76085221  0.37211494  1
  O  O233  1  0.00704598  0.76078753  0.87256921  1
  O  O234  1  0.49494080  0.26294808  0.38340190  1
  O  O235  1  0.51244690  0.25998238  0.86440048  1
  O  O236  1  0.48870573  0.75750764  0.36467386  1
  O  O237  1  0.51432546  0.75572544  0.86646253  1
  O  O238  1  0.25453412  0.14092588  0.50788555  1
  O  O239  1  0.24414430  0.13248175  0.99604969  1
  O  O240  1  0.24007318  0.63081907  0.49342673  1
  O  O241  1  0.25730125  0.61540984  0.98213016  1
  O  O242  1  0.74634064  0.13387151  0.49253510  1
  O  O243  1  0.72965207  0.12816004  1.00572813  1
  O  O244  1  0.74284802  0.62236671  0.49235267  1
  O  O245  1  0.75890430  0.64209349  1.01150960  1
  O  O246  1  0.25700588  0.37221287  0.00136376  1
  O  O247  1  0.25169422  0.36738945  0.51470298  1
  O  O248  1  0.25110627  0.87361247  -0.00199806  1
  O  O249  1  0.24775157  0.85841766  0.49657131  1
  O  O250  1  0.74469417  0.37765414  0.01673763  1
  O  O251  1  0.75360874  0.36654010  0.49911911  1
  O  O252  1  0.76008882  0.86865781  0.01145122  1
  O  O253  1  0.74653453  0.84432724  0.42770246  1
  O  O254  1  0.14202831  0.49905008  0.24687281  1
  O  O255  1  0.13503554  0.49302378  0.74388162  1
  O  O256  1  0.13163452  0.99220425  0.24319863  1
  O  O257  1  0.14184526  1.00437319  0.74452863  1
  O  O258  1  0.63684984  0.49557852  0.24620526  1
  O  O259  1  0.62876190  0.49563119  0.74375414  1
  O  O260  1  0.63550627  1.00001143  0.23956208  1
  O  O261  1  0.63435198  0.99453248  0.74329197  1
  O  O262  1  0.35730010  -0.00867477  0.25405842  1
  O  O263  1  0.36795195  0.00980642  0.75591923  1
  O  O264  1  0.36623889  0.50393531  0.26309984  1
  O  O265  1  0.36749543  0.50946364  0.74497061  1
  O  O266  1  0.86482759  0.00191327  0.25854077  1
  O  O267  1  0.85905108  -0.00354766  0.73997936  1
  O  O268  1  0.86142203  0.51306092  0.25491221  1
  O  O269  1  0.86593959  0.50501676  0.75108372  1
  O  O270  1  0.12821940  0.35618497  0.37436421  1
  O  O271  1  0.12151401  0.37089502  0.86461696  1
  O  O272  1  0.12187714  0.87154686  0.36669242  1
  O  O273  1  0.10966086  0.86646721  0.87588920  1
  O  O274  1  0.61386802  0.37863974  0.36278888  1
  O  O275  1  0.62108919  0.36597869  0.86262736  1
  O  O276  1  0.60045553  0.88324252  0.37330924  1
  O  O277  1  0.62217079  0.86825763  0.86563037  1
  O  O278  1  0.38075851  0.11593712  0.13619647  1
  O  O279  1  0.37609339  0.12121513  0.64186276  1
  O  O280  1  0.39274379  0.63601446  0.12017254  1
  O  O281  1  0.36808536  0.63605206  0.63816350  1
  O  O282  1  0.88460138  0.13869626  0.11797081  1
  O  O283  1  0.88332318  0.13730006  0.62991133  1
  O  O284  1  0.88218172  0.62506321  0.13994124  1
  O  O285  1  0.88964396  0.62742049  0.62979550  1
  O  O286  1  0.24276886  0.26217309  0.11026319  1
  O  O287  1  0.24456151  0.26265131  0.61784319  1
  O  O288  1  0.26542683  0.74222271  0.12796515  1
  O  O289  1  0.25421818  0.74734099  0.61266468  1
  O  O290  1  0.76431081  0.25649502  0.13304876  1
  O  O291  1  0.75870017  0.24952175  0.61432776  1
  O  O292  1  0.73767946  0.76057035  0.11439978  1
  O  O293  1  0.75646339  0.77508667  0.60941861  1
  O  O294  1  0.24102932  0.25090289  0.39723843  1
  O  O295  1  0.24567369  0.24543660  0.88251426  1
  O  O296  1  0.24779464  0.74443040  0.38432005  1
  O  O297  1  0.24353578  0.73965974  0.87352572  1
  O  O298  1  0.75859377  0.24152650  0.38399467  1
  O  O299  1  0.73725201  0.25164271  0.86477261  1
  O  O300  1  0.73609889  0.71254620  0.35010365  1
  O  O301  1  0.74004908  0.75554474  0.88767723  1
  O  O302  1  0.01353524  0.13656630  0.01052549  1
  O  O303  1  -0.00646735  0.12483126  0.51400035  1
  O  O304  1  -0.01026506  0.63160263  0.01725615  1
  O  O305  1  0.00963329  0.62427158  0.51454213  1
  O  O306  1  0.52195774  0.13390983  0.00547166  1
  O  O307  1  0.51640289  0.10849913  0.49424544  1
  O  O308  1  0.50111377  0.60893077  -0.00539580  1
  O  O309  1  0.51060587  0.61558175  0.49883275  1
  O  O310  1  0.51145602  0.38646183  0.48531470  1
  O  O311  1  0.49679642  0.38303832  0.99409851  1
  O  O312  1  0.49966014  0.88849033  0.49409291  1
  O  O313  1  0.50494436  0.86869184  0.98533573  1
  O  O314  1  0.98946997  0.37865339  0.50194568  1
  O  O315  1  1.01112787  0.37149888  0.98304146  1
  O  O316  1  1.01150441  0.88137067  0.48596942  1
  O  O317  1  0.98557821  0.86932193  1.00746514  1
  O  O318  1  0.49158942  0.50069580  0.38234156  1
  O  O319  1  0.50929211  0.48625463  0.88377611  1
  O  O320  1  0.49077155  0.99550364  0.38408333  1
  O  O321  1  0.49352334  0.98952096  0.86363848  1
  O  O322  1  1.00902612  0.50441742  0.37565465  1
  O  O323  1  1.00581667  0.48473480  0.86753665  1
  O  O324  1  0.99720232  0.99920823  0.37425676  1
  O  O325  1  1.00327181  0.98333900  0.86674847  1
  O  O326  1  0.00976469  0.00989260  0.13354978  1
  O  O327  1  0.01055730  0.00603684  0.62634010  1
  O  O328  1  -0.00080421  0.51567395  0.13151292  1
  O  O329  1  0.01484466  0.50164901  0.63188401  1
  O  O330  1  0.51462258  -0.01166820  0.13080722  1
  O  O331  1  0.50538171  -0.00424048  0.61283439  1
  O  O332  1  0.50034484  0.51379480  0.11211489  1
  O  O333  1  0.51108536  0.49522927  0.61708036  1
  O  O334  1  0.25210867  0.38746324  0.24183026  1
  O  O335  1  0.24373212  0.37949424  0.74781310  1
  O  O336  1  0.23894105  0.88162549  0.24704142  1
  O  O337  1  0.25553654  0.88811826  0.75455936  1
  O  O338  1  0.74136059  0.38407502  0.25453828  1
  O  O339  1  0.74134573  0.38369721  0.74572675  1
  O  O340  1  0.75632363  0.88223097  0.23914696  1
  O  O341  1  0.74080482  0.88343072  0.75449567  1
  O  O342  1  0.24262740  0.10740668  0.25218466  1
  O  O343  1  0.26375123  0.12410488  0.75667850  1
  O  O344  1  0.24537374  0.61904435  0.26400367  1
  O  O345  1  0.25657937  0.61822635  0.75670733  1
  O  O346  1  0.74234434  0.11553712  0.26039651  1
  O  O347  1  0.74715191  0.10933314  0.74635948  1
  O  O348  1  0.75482948  0.61002175  0.24181902  1
  O  O349  1  0.76824432  0.61907846  0.73832456  1
  O  O350  1  0.36507717  0.10529173  0.36491827  1
  O  O351  1  0.37361603  0.11710245  0.87058746  1
  O  O352  1  0.36496851  0.61784317  0.38302107  1
  O  O353  1  0.36275386  0.63493861  0.86125827  1
  O  O354  1  0.86466890  0.11645134  0.37747793  1
  O  O355  1  0.88694444  0.12091835  0.86859115  1
  O  O356  1  0.85997310  0.61874239  0.37322390  1
  O  O357  1  0.88933455  0.62079376  0.85872932  1
  O  O358  1  0.14111333  0.38045511  0.12376958  1
  O  O359  1  0.13243045  0.38168033  0.63493233  1
  O  O360  1  0.12295990  0.88088743  0.13060839  1
  O  O361  1  0.12021987  0.88993631  0.63037687  1
  O  O362  1  0.64237781  0.36568576  0.14113399  1
  O  O363  1  0.62509675  0.38274993  0.63453414  1
  O  O364  1  0.63618451  0.88789003  0.11590989  1
  O  O365  1  0.61948546  0.88412406  0.63615006  1
  O  O366  1  0.11799052  0.25631229  0.25570860  1
  O  O367  1  0.12108717  0.25692147  0.75355910  1
  O  O368  1  0.13244354  0.75920985  0.26018265  1
  O  O369  1  0.12972269  0.74861827  0.76703216  1
  O  O370  1  0.63627564  0.25729062  0.25707221  1
  O  O371  1  0.62069712  0.25532570  0.75310724  1
  O  O372  1  0.60783630  0.74798392  0.25680106  1
  O  O373  1  0.62551932  0.75407626  0.75418512  1
  O  O374  1  0.33935785  0.24840016  0.24673799  1
  O  O375  1  0.38261895  0.23691755  0.75609605  1
  O  O376  1  0.38666601  0.75010107  0.23567758  1
  O  O377  1  0.38394697  0.74507743  0.74466079  1
  O  O378  1  0.89265705  0.25217315  0.24605666  1
  O  O379  1  0.88366274  0.25464302  0.74014112  1
  O  O380  1  0.86592911  0.73116133  0.26338752  1
  O  O381  1  0.86838070  0.73841482  0.75764195  1
  O  O382  1  0.38645053  0.50605060  0.49549717  1
  O  O383  1  0.38688608  0.48684685  0.99833461  1
  O  O384  1  0.38587764  1.00514398  0.49622713  1
  O  O385  1  0.37082746  0.99980196  0.98418513  1
  O  O386  1  0.86876913  0.48850135  0.50770966  1
  O  O387  1  0.88191723  0.49935621  0.99524784  1
  O  O388  1  0.87621930  1.00077986  0.48728139  1
  O  O389  1  0.86929347  0.98521091  1.00300085  1
  O  O390  1  0.13065812  0.01105413  0.00843707  1
  O  O391  1  0.13204223  0.00131777  0.51756758  1
  O  O392  1  0.11366277  0.51030927  0.00444407  1
  O  O393  1  0.12995478  0.51064696  0.51104582  1
  O  O394  1  0.62747729  0.00416542  0.00352619  1
  O  O395  1  0.62179822  0.00265791  0.50645692  1
  O  O396  1  0.61562238  0.49464024  0.00173431  1
  O  O397  1  0.61808965  0.50710043  0.50844396  1
  O  O398  1  0.36173416  0.37291070  0.11242636  1
  O  O399  1  0.36005584  0.37891126  0.63178001  1
  O  O400  1  0.37090056  0.86014773  0.11826646  1
  O  O401  1  0.37715082  0.86327639  0.63338740  1
  O  O402  1  0.86374786  0.36413970  0.13412206  1
  O  O403  1  0.87520199  0.36427594  0.61699046  1
  O  O404  1  0.86842721  0.87626127  0.11916071  1
  O  O405  1  0.85403188  0.86809198  0.60090049  1
  O  O406  1  0.13044111  0.14247529  0.37167413  1
  O  O407  1  0.13080374  0.12892804  0.88227945  1
  O  O408  1  0.13299722  0.63421036  0.38226237  1
  O  O409  1  0.13608332  0.63402484  0.87250891  1
  O  O410  1  0.63919422  0.11325455  0.39124248  1
  O  O411  1  0.62220828  0.13437763  0.88362317  1
  O  O412  1  0.62914137  0.61541399  0.39333072  1
  O  O413  1  0.62757212  0.63990678  0.86993527  1
