# generated using pymatgen
data_V79Zn79O256
_symmetry_space_group_name_H-M   'P 1'
_cell_length_a   16.92532253
_cell_length_b   16.89031744
_cell_length_c   16.93303833
_cell_angle_alpha   90.30156067
_cell_angle_beta   89.84218152
_cell_angle_gamma   89.96619122
_symmetry_Int_Tables_number   1
_chemical_formula_structural   V79Zn79O256
_chemical_formula_sum   'V79 Zn79 O256'
_cell_volume   4840.63029520
_cell_formula_units_Z   1
loop_
 _symmetry_equiv_pos_site_id
 _symmetry_equiv_pos_as_xyz
  1  'x, y, z'
loop_
 _atom_site_type_symbol
 _atom_site_label
 _atom_site_symmetry_multiplicity
 _atom_site_fract_x
 _atom_site_fract_y
 _atom_site_fract_z
 _atom_site_occupancy
  V  V0  1  0.74661109  0.62528943  0.37775156  1
  V  V1  1  0.37482222  0.62772160  0.75217816  1
  V  V2  1  0.61705495  0.25104442  0.86797326  1
  V  V3  1  0.24885845  0.74926858  0.49553745  1
  V  V4  1  0.13642411  0.12812042  -0.00140545  1
  V  V5  1  0.62660030  0.38908120  0.24683032  1
  V  V6  1  0.13838385  0.24381532  0.87139349  1
  V  V7  1  0.87606933  0.74533228  0.12658774  1
  V  V8  1  0.12053565  0.87333338  0.75286284  1
  V  V9  1  0.73530519  0.62670255  0.87838691  1
  V  V10  1  0.62534647  0.64834639  0.50264959  1
  V  V11  1  0.39261157  0.23752573  0.62860846  1
  V  V12  1  0.50359990  0.12487842  0.12430033  1
  V  V13  1  0.62810686  0.87371919  0.73735990  1
  V  V14  1  0.12535440  0.50092324  0.62244264  1
  V  V15  1  0.11626612  0.00619293  0.62717459  1
  V  V16  1  0.00245758  0.61854155  0.13517507  1
  V  V17  1  0.88317460  -0.00467990  0.87565567  1
  V  V18  1  0.37854571  0.26401966  0.10768113  1
  V  V19  1  0.88557082  0.87430444  -0.00000346  1
  V  V20  1  0.12782373  0.62451875  0.49143749  1
  V  V21  1  0.74418193  0.74802841  0.00245931  1
  V  V22  1  0.12034968  0.75650548  0.87965492  1
  V  V23  1  0.63799198  0.25825269  0.37471648  1
  V  V24  1  0.87807984  0.12204270  0.74303215  1
  V  V25  1  0.12653569  0.13245731  0.49544747  1
  V  V26  1  0.25584730  0.37507457  0.10343887  1
  V  V27  1  0.24890580  0.50321048  0.74957317  1
  V  V28  1  0.75192750  0.38246253  0.12845372  1
  V  V29  1  0.86896888  0.75729744  0.60738100  1
  V  V30  1  0.75050429  0.12059106  0.87671503  1
  V  V31  1  0.00121559  0.49940572  -0.00081031  1
  V  V32  1  0.48779709  0.49031490  -0.01592892  1
  V  V33  1  0.50188492  0.75552775  0.76619792  1
  V  V34  1  0.50135702  0.87312123  0.34528859  1
  V  V35  1  0.25627182  0.63071063  0.87947804  1
  V  V36  1  0.49364338  0.25688531  0.25129133  1
  V  V37  1  0.87585617  0.50990085  0.86995957  1
  V  V38  1  -0.00481095  0.62505136  0.62778210  1
  V  V39  1  0.75069579  -0.00934882  0.73635775  1
  V  V40  1  0.36203107  0.00720276  0.37486244  1
  V  V41  1  0.12475868  0.37505174  0.74823297  1
  V  V42  1  0.24833169  0.87764709  0.62741868  1
  V  V43  1  0.62976200  0.49833431  0.62594946  1
  V  V44  1  -0.00943706  0.00249966  0.49541842  1
  V  V45  1  0.49915313  0.50617892  0.49655923  1
  V  V46  1  0.49448894  0.38277409  0.37349099  1
  V  V47  1  0.75605547  0.11903908  0.35577125  1
  V  V48  1  0.50157836  0.63313513  0.62783535  1
  V  V49  1  0.25343647  0.37024452  0.62377882  1
  V  V50  1  0.39192862  0.87697433  0.50001872  1
  V  V51  1  0.25036776  0.75610207  0.01455451  1
  V  V52  1  0.12609303  0.74942432  0.36871671  1
  V  V53  1  0.86763950  0.61253694  0.24961540  1
  V  V54  1  0.75202336  0.88447012  0.14069226  1
  V  V55  1  -0.00789277  0.74736589  0.75281741  1
  V  V56  1  0.88003526  0.24552407  0.12962922  1
  V  V57  1  0.61780671  0.75108109  0.34694776  1
  V  V58  1  0.37919185  0.62917334  0.25667236  1
  V  V59  1  0.25864140  0.49377077  0.26384124  1
  V  V60  1  0.63179879  0.00757711  0.14338077  1
  V  V61  1  -0.00730613  0.77139855  0.25881164  1
  V  V62  1  0.37051593  0.47277452  0.87083431  1
  V  V63  1  0.00293411  0.01094017  0.01335151  1
  V  V64  1  0.75127093  0.50193826  0.74983040  1
  V  V65  1  0.37734629  0.00949905  0.87008858  1
  V  V66  1  0.85769945  0.25273494  0.63242673  1
  V  V67  1  0.61750894  0.50452093  0.10779250  1
  V  V68  1  0.13630553  0.90162554  0.24925257  1
  V  V69  1  0.61552503  0.37381087  0.74964630  1
  V  V70  1  -0.00358559  0.24642463  0.74617176  1
  V  V71  1  0.75171432  0.25040449  -0.00281395  1
  V  V72  1  0.86976899  0.48582641  0.36989126  1
  V  V73  1  0.25404267  0.91005422  0.12636396  1
  V  V74  1  0.12998419  0.49121021  0.12725097  1
  V  V75  1  0.37636310  0.37798111  0.49688204  1
  V  V76  1  0.38745885  0.88333547  -0.00504200  1
  V  V77  1  0.86467194  0.38130931  0.51864745  1
  V  V78  1  0.37519816  0.75343211  0.62691733  1
  Zn  Zn79  1  -0.06301029  0.88201885  0.40644294  1
  Zn  Zn80  1  0.62061931  0.07164812  0.50446340  1
  Zn  Zn81  1  0.24996832  0.01584339  0.75713947  1
  Zn  Zn82  1  0.61662797  0.77853260  0.88986342  1
  Zn  Zn83  1  0.87513284  0.37580375  -0.00615075  1
  Zn  Zn84  1  0.00483320  0.13765337  0.15140164  1
  Zn  Zn85  1  0.62161179  0.11808713  -0.00199872  1
  Zn  Zn86  1  -0.00267159  0.37551827  0.87297880  1
  Zn  Zn87  1  0.54611662  0.66588774  0.05862731  1
  Zn  Zn88  1  0.12664106  0.62829688  0.00376076  1
  Zn  Zn89  1  0.74213759  0.24276855  0.50742114  1
  Zn  Zn90  1  0.25454306  0.24103733  0.48652670  1
  Zn  Zn91  1  0.00140946  0.49456543  0.49750448  1
  Zn  Zn92  1  0.36123888  0.12464727  0.24948656  1
  Zn  Zn93  1  0.04880474  0.27867943  0.30188186  1
  Zn  Zn94  1  0.17246713  0.15154740  0.20135787  1
  Zn  Zn95  1  0.18781365  0.19130837  0.67612522  1
  Zn  Zn96  1  0.18931392  0.67458133  0.19592052  1
  Zn  Zn97  1  0.18473305  0.68922485  0.68642297  1
  Zn  Zn98  1  0.68861706  0.19779211  0.19212350  1
  Zn  Zn99  1  0.68042340  0.17542233  0.69220077  1
  Zn  Zn100  1  0.69308513  0.68133903  0.18303458  1
  Zn  Zn101  1  0.69083889  0.68927219  0.69311409  1
  Zn  Zn102  1  0.27279743  0.28585374  0.27612977  1
  Zn  Zn103  1  0.31812210  0.18665887  0.80351699  1
  Zn  Zn104  1  0.31312542  0.81294697  0.30903890  1
  Zn  Zn105  1  0.31119513  0.81748830  0.81824180  1
  Zn  Zn106  1  0.86270411  0.26800963  0.34149827  1
  Zn  Zn107  1  0.80684028  0.31931436  0.81300064  1
  Zn  Zn108  1  0.81404017  0.80763064  0.31978848  1
  Zn  Zn109  1  0.81146761  0.81028906  0.81734635  1
  Zn  Zn110  1  0.18224749  0.42635036  0.43720304  1
  Zn  Zn111  1  0.18645014  0.43687483  0.93360298  1
  Zn  Zn112  1  0.18082043  0.93605362  0.43944529  1
  Zn  Zn113  1  0.19132334  0.94256960  0.93811064  1
  Zn  Zn114  1  0.68897089  0.43975269  0.44046610  1
  Zn  Zn115  1  0.68918058  0.43283398  0.93227539  1
  Zn  Zn116  1  0.74481770  0.93484740  0.43505880  1
  Zn  Zn117  1  0.69480889  0.93780675  0.95285238  1
  Zn  Zn118  1  0.32396854  0.07553913  0.05438191  1
  Zn  Zn119  1  0.31089102  0.05867585  0.56003449  1
  Zn  Zn120  1  0.32024494  0.56634117  0.06136239  1
  Zn  Zn121  1  0.31223910  0.56405209  0.56167554  1
  Zn  Zn122  1  0.81379556  0.06322161  0.06615155  1
  Zn  Zn123  1  0.80314127  0.06886981  0.55240689  1
  Zn  Zn124  1  0.81265107  0.56161178  0.05739548  1
  Zn  Zn125  1  0.80853461  0.57247031  0.56179172  1
  Zn  Zn126  1  0.43690351  0.44649970  0.18532392  1
  Zn  Zn127  1  0.43670615  0.43772380  0.68615236  1
  Zn  Zn128  1  0.43039724  0.94790357  0.18720921  1
  Zn  Zn129  1  0.44120607  0.94079540  0.69076955  1
  Zn  Zn130  1  0.94007950  0.41652394  0.18968692  1
  Zn  Zn131  1  0.93825112  0.44069584  0.68889710  1
  Zn  Zn132  1  0.94112055  0.93257411  0.19391759  1
  Zn  Zn133  1  0.93578470  0.93033754  0.68434934  1
  Zn  Zn134  1  0.05010481  0.08237152  0.31959731  1
  Zn  Zn135  1  0.06237644  0.06203499  0.81284007  1
  Zn  Zn136  1  0.04953875  0.48095801  0.30106987  1
  Zn  Zn137  1  0.06578877  0.56863996  0.81392871  1
  Zn  Zn138  1  0.55114340  0.07467988  0.33348154  1
  Zn  Zn139  1  0.58571519  0.00354266  0.85298889  1
  Zn  Zn140  1  0.56099547  0.56647799  0.30800447  1
  Zn  Zn141  1  0.55707981  0.56165915  0.81741533  1
  Zn  Zn142  1  0.44619297  0.17959676  0.45709719  1
  Zn  Zn143  1  0.44080362  0.18221401  0.93621170  1
  Zn  Zn144  1  0.43622481  0.69086115  0.43200090  1
  Zn  Zn145  1  0.39620705  0.74194335  1.12723764  1
  Zn  Zn146  1  0.94254850  0.18277839  0.45836054  1
  Zn  Zn147  1  0.93787966  0.18960425  0.93271373  1
  Zn  Zn148  1  0.94201079  0.67609155  0.43455486  1
  Zn  Zn149  1  0.93684631  0.68401776  0.93981133  1
  Zn  Zn150  1  0.06614847  0.31230355  0.05800843  1
  Zn  Zn151  1  0.04991398  0.31243355  0.56035720  1
  Zn  Zn152  1  0.06848776  0.82002641  0.07748811  1
  Zn  Zn153  1  0.05646385  0.81420611  0.56193475  1
  Zn  Zn154  1  0.56491009  0.31398818  0.05509640  1
  Zn  Zn155  1  0.56508066  0.31805474  0.56126776  1
  Zn  Zn156  1  0.56507198  0.83341779  0.07630591  1
  Zn  Zn157  1  0.60633474  0.86808384  0.52733640  1
  O  O158  1  0.11815336  0.13703441  0.10084477  1
  O  O159  1  0.12178517  0.10769574  0.62820604  1
  O  O160  1  0.11642428  0.61261577  0.12380839  1
  O  O161  1  0.11988831  0.62105377  0.61579885  1
  O  O162  1  0.61485423  0.13017195  0.12986377  1
  O  O163  1  0.60769191  0.11178063  0.62349785  1
  O  O164  1  0.63220255  0.60758543  0.11966892  1
  O  O165  1  0.61801479  0.62469795  0.62016102  1
  O  O166  1  0.38952048  0.37671595  0.38659677  1
  O  O167  1  0.36118626  0.37801344  0.86218754  1
  O  O168  1  0.38815070  0.87174299  0.37996140  1
  O  O169  1  0.37521268  0.88118274  0.88974258  1
  O  O170  1  0.86402994  0.38638390  0.38249399  1
  O  O171  1  0.87634583  0.39089233  0.87444843  1
  O  O172  1  0.92691019  0.85689781  0.29188602  1
  O  O173  1  0.87102244  0.88175485  0.89049712  1
  O  O174  1  0.26328378  -0.01125601  0.37863316  1
  O  O175  1  0.26437731  -0.00550170  0.87098794  1
  O  O176  1  0.24383273  0.48497150  0.36166618  1
  O  O177  1  0.25423305  0.50897989  0.86970342  1
  O  O178  1  0.75269122  0.02002308  0.35825966  1
  O  O179  1  0.76424686  0.00648073  0.87528025  1
  O  O180  1  0.75804883  0.51178806  0.37809489  1
  O  O181  1  0.75520598  0.50810041  0.87206500  1
  O  O182  1  0.24500196  0.48985516  0.11573593  1
  O  O183  1  0.24603546  0.49466185  0.63047478  1
  O  O184  1  0.25738878  1.00943730  0.12840439  1
  O  O185  1  0.23862797  0.98826512  0.62546900  1
  O  O186  1  0.74150451  0.48685801  0.11232481  1
  O  O187  1  0.73769147  0.51511970  0.63518791  1
  O  O188  1  0.75412393  0.99110346  0.13394539  1
  O  O189  1  0.75983704  0.99896778  0.63907795  1
  O  O190  1  0.02136655  0.38013163  0.25515427  1
  O  O191  1  0.01211058  0.37084109  0.74828874  1
  O  O192  1  0.03966267  0.86605505  0.21296423  1
  O  O193  1  0.01326531  0.86445768  0.74631173  1
  O  O194  1  0.50609422  0.37932491  0.25633046  1
  O  O195  1  0.51547868  0.37941766  0.74498949  1
  O  O196  1  0.49041925  0.86785511  0.24717253  1
  O  O197  1  0.51740593  0.86986914  0.74441178  1
  O  O198  1  0.49468912  0.14333659  0.24513519  1
  O  O199  1  0.54184997  0.07762116  0.66488419  1
  O  O200  1  0.48080500  0.61672546  0.24950380  1
  O  O201  1  0.49606225  0.63347779  0.74588842  1
  O  O202  1  0.93981691  0.08493005  0.25831278  1
  O  O203  1  0.98712233  0.13157403  0.75420176  1
  O  O204  1  0.98844120  0.61077610  0.23865498  1
  O  O205  1  1.01048147  0.63557785  0.73844843  1
  O  O206  1  0.38577155  0.25317943  0.00983983  1
  O  O207  1  0.37413751  0.26243243  0.49956567  1
  O  O208  1  0.35853325  0.77321469  0.01056608  1
  O  O209  1  0.36729588  0.75725135  0.50572880  1
  O  O210  1  0.86555810  0.25422438  0.00091215  1
  O  O211  1  0.86808043  0.26124159  0.51962841  1
  O  O212  1  0.87368086  0.75717417  0.00678666  1
  O  O213  1  0.88308198  0.74331654  0.50803938  1
  O  O214  1  0.12133390  0.23408823  0.52149185  1
  O  O215  1  0.11933011  0.24172763  0.98002710  1
  O  O216  1  0.12939688  0.74685949  0.49260437  1
  O  O217  1  0.12789616  0.75511983  0.99502538  1
  O  O218  1  0.62700988  0.26627795  0.47918899  1
  O  O219  1  0.63504455  0.24463182  0.98647154  1
  O  O220  1  0.62227035  0.74864222  0.50161753  1
  O  O221  1  0.63715029  0.75929625  1.00460767  1
  O  O222  1  0.49605490  0.25151873  0.13078057  1
  O  O223  1  0.49235591  0.25084879  0.61253827  1
  O  O224  1  0.50865381  0.74886426  0.11939900  1
  O  O225  1  0.49470222  0.73870208  0.63521844  1
  O  O226  1  0.98366926  0.25529955  0.11258601  1
  O  O227  1  0.98129505  0.25637026  0.64149337  1
  O  O228  1  0.99608645  0.73922043  0.13915702  1
  O  O229  1  0.99309679  0.74393011  0.63247651  1
  O  O230  1  -0.02900813  0.25616439  0.37943219  1
  O  O231  1  0.00189539  0.25476147  0.85954791  1
  O  O232  1  0.00885361  0.74706581  0.36621427  1
  O  O233  1  0.01234772  0.73911467  0.86969053  1
  O  O234  1  0.51188183  0.26719221  0.36599082  1
  O  O235  1  0.51981903  0.23550915  0.87429202  1
  O  O236  1  0.51021562  0.75780195  0.37362296  1
  O  O237  1  0.50334399  0.74885447  0.86479998  1
  O  O238  1  0.23289428  0.12690928  0.50910272  1
  O  O239  1  0.23476323  0.12180263  0.99735000  1
  O  O240  1  0.24234493  0.63966594  0.50921178  1
  O  O241  1  0.25085759  0.63748144  0.99370293  1
  O  O242  1  0.72794532  0.12617265  0.49058508  1
  O  O243  1  0.75448281  0.13333832  0.99132543  1
  O  O244  1  0.73605515  0.62518501  0.48909854  1
  O  O245  1  0.75581865  0.64007925  0.99490596  1
  O  O246  1  0.25389815  0.37562214  0.00374903  1
  O  O247  1  0.26232804  0.38274173  0.51141903  1
  O  O248  1  0.24956430  0.87673408  0.01629674  1
  O  O249  1  0.24979694  0.86476598  0.51096035  1
  O  O250  1  0.74867348  0.36382865  0.00487159  1
  O  O251  1  0.76116142  0.37152455  0.50114011  1
  O  O252  1  0.76513120  0.86636114  0.01332163  1
  O  O253  1  0.82579104  0.86502098  0.41715524  1
  O  O254  1  0.14020256  0.50186368  0.23405077  1
  O  O255  1  0.12891507  0.49381247  0.74533010  1
  O  O256  1  0.12298038  0.99914543  0.25799314  1
  O  O257  1  0.12381507  0.99111831  0.74229007  1
  O  O258  1  0.61967741  0.49404701  0.23413603  1
  O  O259  1  0.62765515  0.49632158  0.74460365  1
  O  O260  1  0.61840570  1.01659622  0.24240181  1
  O  O261  1  0.64205342  0.98991725  0.74913102  1
  O  O262  1  0.37548924  0.00885987  0.26750016  1
  O  O263  1  0.37216681  -0.00717411  0.76418508  1
  O  O264  1  0.36517085  0.50520211  0.25192515  1
  O  O265  1  0.36897800  0.50623314  0.75516228  1
  O  O266  1  0.89334481  0.02342851  0.25357639  1
  O  O267  1  0.87021172  0.00074736  0.75553450  1
  O  O268  1  0.87671986  0.49731967  0.26208891  1
  O  O269  1  0.86454468  0.49753073  0.75772899  1
  O  O270  1  0.14360647  0.32960315  0.38188479  1
  O  O271  1  0.12437897  0.36452011  0.86339922  1
  O  O272  1  0.12929122  0.86900020  0.35377123  1
  O  O273  1  0.13215858  0.86617228  0.86627134  1
  O  O274  1  0.61932801  0.37912971  0.36478197  1
  O  O275  1  0.62726051  0.35783390  0.86786036  1
  O  O276  1  0.61319600  0.85724388  0.35870745  1
  O  O277  1  0.62758879  0.89251451  0.86921680  1
  O  O278  1  0.38756797  0.14241567  0.12703492  1
  O  O279  1  0.37961590  0.13958812  0.60207141  1
  O  O280  1  0.37365197  0.62557281  0.13779845  1
  O  O281  1  0.38195460  0.63103768  0.63203347  1
  O  O282  1  0.87653953  0.14249710  0.12044356  1
  O  O283  1  0.86571649  0.13429488  0.63789678  1
  O  O284  1  0.87960222  0.62306765  0.13144711  1
  O  O285  1  0.89086488  0.62941465  0.62009698  1
  O  O286  1  0.27031852  0.26683764  0.12218285  1
  O  O287  1  0.26003559  0.26283285  0.61784159  1
  O  O288  1  0.23552869  0.74619570  0.11444409  1
  O  O289  1  0.25501971  0.75816484  0.61927137  1
  O  O290  1  0.75576883  0.26019258  0.11413653  1
  O  O291  1  0.75302708  0.24482237  0.63172570  1
  O  O292  1  0.75685835  0.75663392  0.12006667  1
  O  O293  1  0.77170325  0.73522269  0.62916515  1
  O  O294  1  0.21799760  0.28524205  0.38151130  1
  O  O295  1  0.23597803  0.24943475  0.86504978  1
  O  O296  1  0.23909606  0.75981072  0.38604055  1
  O  O297  1  0.24130819  0.74828555  0.88651286  1
  O  O298  1  0.73926723  0.26947030  0.36848506  1
  O  O299  1  0.74627129  0.23964875  0.87850163  1
  O  O300  1  0.72935953  0.73475787  0.36192152  1
  O  O301  1  0.74572631  0.74448727  0.88541608  1
  O  O302  1  -0.00051326  0.11488354  -0.00379304  1
  O  O303  1  0.01339829  0.11181488  0.51199741  1
  O  O304  1  -0.00050554  0.61595317  0.01477801  1
  O  O305  1  0.01239232  0.62158579  0.50995318  1
  O  O306  1  0.50396892  0.13288669  0.02054361  1
  O  O307  1  0.53046783  0.10859818  0.44769857  1
  O  O308  1  0.50696335  0.59203625  -0.01099563  1
  O  O309  1  0.50591122  0.62487447  0.50760845  1
  O  O310  1  0.49594929  0.38752927  0.49399531  1
  O  O311  1  0.50686044  0.38928210  0.99576683  1
  O  O312  1  0.49158282  0.86861877  0.50698713  1
  O  O313  1  0.48580794  0.88124060  1.00778246  1
  O  O314  1  0.97508103  0.37934832  0.50799107  1
  O  O315  1  1.00084481  0.38872466  0.99506578  1
  O  O316  1  1.00781768  0.89213713  0.49541603  1
  O  O317  1  0.99271022  0.88959336  1.01506023  1
  O  O318  1  0.51043628  0.49612880  0.38786177  1
  O  O319  1  0.48570721  0.49176724  0.87453009  1
  O  O320  1  0.49369357  0.97452932  0.36667182  1
  O  O321  1  0.47941774  1.01061766  0.87664030  1
  O  O322  1  0.97618661  0.50706519  0.38325305  1
  O  O323  1  0.99457232  0.50625634  0.88108067  1
  O  O324  1  0.99797029  1.00498597  0.39261701  1
  O  O325  1  0.98696386  1.00229975  0.88059216  1
  O  O326  1  -0.00443684  0.01421938  0.11588694  1
  O  O327  1  0.01358722  -0.00881879  0.62255738  1
  O  O328  1  0.00839951  0.49896554  0.11854892  1
  O  O329  1  0.00774965  0.50849014  0.62563147  1
  O  O330  1  0.50615220  0.02058949  0.13463855  1
  O  O331  1  0.51270821  0.01634898  0.62410026  1
  O  O332  1  0.51303694  0.49389870  0.11131398  1
  O  O333  1  0.50809475  0.51481346  0.62067575  1
  O  O334  1  0.25567562  0.38961000  0.22877410  1
  O  O335  1  0.23662585  0.38250658  0.73707803  1
  O  O336  1  0.24570867  0.88095154  0.23574834  1
  O  O337  1  0.23923216  0.86973536  0.73906008  1
  O  O338  1  0.74092178  0.37603067  0.22976958  1
  O  O339  1  0.73587322  0.39264075  0.75585825  1
  O  O340  1  0.75929754  0.86762316  0.23698387  1
  O  O341  1  0.74584931  0.88372254  0.75488291  1
  O  O342  1  0.26019484  0.17230500  0.26087117  1
  O  O343  1  0.25085709  0.12570163  0.73820976  1
  O  O344  1  0.25747954  0.60245146  0.24838366  1
  O  O345  1  0.25357263  0.62316667  0.75535233  1
  O  O346  1  0.76060264  0.13975519  0.25595393  1
  O  O347  1  0.75665548  0.10880913  0.75739127  1
  O  O348  1  0.76107319  0.62029439  0.25541461  1
  O  O349  1  0.74273542  0.61280408  0.76386093  1
  O  O350  1  0.37376082  0.10866054  0.38772207  1
  O  O351  1  0.36748344  0.11768512  0.88071364  1
  O  O352  1  0.37041212  0.63336570  0.36073093  1
  O  O353  1  0.35939227  0.62747654  0.86663599  1
  O  O354  1  0.84834304  0.15312422  0.39070661  1
  O  O355  1  0.86778291  0.11761489  0.86425086  1
  O  O356  1  0.86382702  0.61880109  0.36860203  1
  O  O357  1  0.86429210  0.61551499  0.87885078  1
  O  O358  1  0.14204685  0.37867967  0.11450458  1
  O  O359  1  0.13112709  0.37930173  0.62837513  1
  O  O360  1  0.14851916  0.89046160  0.12958936  1
  O  O361  1  0.13123801  0.87904615  0.63228091  1
  O  O362  1  0.63366454  0.38220500  0.12670880  1
  O  O363  1  0.62389203  0.39109124  0.62983576  1
  O  O364  1  0.64509925  0.88980082  0.13093570  1
  O  O365  1  0.63594117  0.86777974  0.63988027  1
  O  O366  1  0.06812194  0.17467122  0.24721073  1
  O  O367  1  0.11653590  0.25466637  0.75298701  1
  O  O368  1  0.11672422  0.74265634  0.26080807  1
  O  O369  1  0.11888142  0.75582883  0.75835592  1
  O  O370  1  0.61569404  0.27104122  0.25276520  1
  O  O371  1  0.63231771  0.25511827  0.76059096  1
  O  O372  1  0.61590846  0.73573858  0.24957872  1
  O  O373  1  0.62367616  0.76303648  0.75921776  1
  O  O374  1  0.38990779  0.26542541  0.24054788  1
  O  O375  1  0.38181251  0.24421536  0.72843206  1
  O  O376  1  0.35981264  0.73609654  0.24029755  1
  O  O377  1  0.38261320  0.75042871  0.74693741  1
  O  O378  1  0.87299527  0.26370510  0.22733906  1
  O  O379  1  0.87486058  0.24309890  0.74966288  1
  O  O380  1  0.88194106  0.72789849  0.24610850  1
  O  O381  1  0.88979724  0.75561922  0.75204643  1
  O  O382  1  0.39001394  0.49487648  0.50978956  1
  O  O383  1  0.38034460  0.49593068  0.98648038  1
  O  O384  1  0.37144094  0.98462729  0.49021105  1
  O  O385  1  0.36919279  0.99120098  0.99092506  1
  O  O386  1  0.86770265  0.49073833  0.49739929  1
  O  O387  1  0.88517544  0.49967386  0.99052809  1
  O  O388  1  0.89129238  1.00850020  0.51281274  1
  O  O389  1  0.88543700  0.99584818  0.99637117  1
  O  O390  1  0.11038728  0.01404070  -0.01147030  1
  O  O391  1  0.12101343  0.00651368  0.51332090  1
  O  O392  1  0.11711342  0.50267777  0.00465090  1
  O  O393  1  0.12534861  0.50531754  0.50291642  1
  O  O394  1  0.63791498  0.00779008  0.02494228  1
  O  O395  1  0.65793207  -0.03774242  0.49618003  1
  O  O396  1  0.62313431  0.49303990  0.00525756  1
  O  O397  1  0.61671571  0.50865175  0.50957478  1
  O  O398  1  0.37263547  0.37242232  0.11800530  1
  O  O399  1  0.37189598  0.36946335  0.61668418  1
  O  O400  1  0.36185329  0.88392374  0.11776005  1
  O  O401  1  0.36869999  0.87412312  0.61949429  1
  O  O402  1  0.86198190  0.37297655  0.11652822  1
  O  O403  1  0.86555293  0.37325829  0.62481547  1
  O  O404  1  0.86966696  0.86944883  0.12072074  1
  O  O405  1  0.87689801  0.85757958  0.62194697  1
  O  O406  1  0.12327630  0.12773692  0.39668718  1
  O  O407  1  0.12113602  0.13716630  0.87796211  1
  O  O408  1  0.12464825  0.63473117  0.38936179  1
  O  O409  1  0.13856556  0.63574890  0.87818038  1
  O  O410  1  0.64318819  0.15347706  0.35617794  1
  O  O411  1  0.63890709  0.12342852  0.87397562  1
  O  O412  1  0.62436714  0.63430873  0.38244994  1
  O  O413  1  0.63403400  0.62380726  0.87889851  1
