# generated using pymatgen
data_V79Zn79O256
_symmetry_space_group_name_H-M   'P 1'
_cell_length_a   16.90622028
_cell_length_b   16.92182480
_cell_length_c   16.90894835
_cell_angle_alpha   90.01886078
_cell_angle_beta   90.13875040
_cell_angle_gamma   90.03187381
_symmetry_Int_Tables_number   1
_chemical_formula_structural   V79Zn79O256
_chemical_formula_sum   'V79 Zn79 O256'
_cell_volume   4837.36603363
_cell_formula_units_Z   1
loop_
 _symmetry_equiv_pos_site_id
 _symmetry_equiv_pos_as_xyz
  1  'x, y, z'
loop_
 _atom_site_type_symbol
 _atom_site_label
 _atom_site_symmetry_multiplicity
 _atom_site_fract_x
 _atom_site_fract_y
 _atom_site_fract_z
 _atom_site_occupancy
  V  V0  1  0.25484718  0.62655485  0.36941022  1
  V  V1  1  0.00602044  0.86629724  0.87701588  1
  V  V2  1  0.75536619  0.50692344  0.75201192  1
  V  V3  1  0.12268473  0.62080213  -0.00511521  1
  V  V4  1  0.38152955  0.88932073  0.49706215  1
  V  V5  1  0.50249287  0.87853890  0.87561945  1
  V  V6  1  0.12393630  0.37056799  0.74973161  1
  V  V7  1  0.24680454  0.37614247  0.12568112  1
  V  V8  1  0.38037861  0.88078353  0.00320390  1
  V  V9  1  0.37660759  0.50493367  0.36889559  1
  V  V10  1  0.49524343  0.37524119  0.88790191  1
  V  V11  1  0.37324743  0.74860798  0.62448399  1
  V  V12  1  0.25095732  0.74809591  -0.00691262  1
  V  V13  1  0.75300311  0.37636151  0.11510443  1
  V  V14  1  0.74830270  0.00636239  0.74570534  1
  V  V15  1  0.63170343  0.23360448  0.38283035  1
  V  V16  1  0.11647710  0.74920741  0.37417340  1
  V  V17  1  0.37193019  0.62589698  0.76316400  1
  V  V18  1  0.87624351  0.38846544  0.49306587  1
  V  V19  1  0.62340998  0.50249962  0.62358281  1
  V  V20  1  0.47989577  0.61242474  0.13630096  1
  V  V21  1  0.86890259  -0.00188936  0.88051474  1
  V  V22  1  0.63606751  0.11743301  -0.00756084  1
  V  V23  1  0.00462675  0.75285052  0.72980614  1
  V  V24  1  0.25213761  0.37765671  0.62108124  1
  V  V25  1  0.24236634  0.49945019  0.24800667  1
  V  V26  1  0.11946235  0.87321430  0.25264368  1
  V  V27  1  0.63523946  0.37102410  0.25375732  1
  V  V28  1  0.87790744  0.88495848  0.50433556  1
  V  V29  1  0.37472226  0.24921198  0.62141305  1
  V  V30  1  0.23898808  0.24104623  0.48760210  1
  V  V31  1  0.00785967  0.62322262  0.13586216  1
  V  V32  1  -0.00740927  0.88715301  0.37584116  1
  V  V33  1  0.37995263  0.25209426  0.12718288  1
  V  V34  1  0.75419239  0.61387693  0.37267241  1
  V  V35  1  0.49882881  0.62577564  0.62487817  1
  V  V36  1  0.86740512  0.62342641  0.25182839  1
  V  V37  1  -0.00122427  -0.00457979  0.00083510  1
  V  V38  1  0.63011246  0.74839269  0.37749971  1
  V  V39  1  0.74996591  0.87010262  0.62663575  1
  V  V40  1  0.26366870  0.01061510  0.26415852  1
  V  V41  1  0.63081603  0.50499989  0.13140808  1
  V  V42  1  0.49366089  0.74513287  0.25254613  1
  V  V43  1  0.88417957  0.13438050  0.74805134  1
  V  V44  1  0.25073635  0.50497805  0.75213270  1
  V  V45  1  0.11308204  0.61988145  0.50356179  1
  V  V46  1  0.50041482  0.88175608  0.37745171  1
  V  V47  1  0.37090930  0.12057854  0.75038892  1
  V  V48  1  0.25704905  0.25516983  -0.00037555  1
  V  V49  1  0.50053615  0.75486159  0.75060384  1
  V  V50  1  0.75786174  0.74711770  0.50448426  1
  V  V51  1  0.63483737  0.87863540  0.25035561  1
  V  V52  1  0.75609762  0.23844572  0.50150339  1
  V  V53  1  0.25037343  0.75016270  0.49995547  1
  V  V54  1  0.25123892  0.87664887  0.12759092  1
  V  V55  1  0.12024990  0.24951641  0.87033244  1
  V  V56  1  0.49826055  0.11165727  0.11586432  1
  V  V57  1  0.85753739  0.11730516  0.26068883  1
  V  V58  1  0.00474084  0.14897119  0.61867542  1
  V  V59  1  0.24933378  0.12150199  0.87375152  1
  V  V60  1  0.51043758  0.11423905  0.61796802  1
  V  V61  1  0.24182866  0.89018795  0.63404246  1
  V  V62  1  0.48977644  0.22736306  0.26696550  1
  V  V63  1  0.12364692  0.00299111  0.12593339  1
  V  V64  1  0.62492348  0.37489854  0.75410185  1
  V  V65  1  0.87893156  0.25281472  0.11930624  1
  V  V66  1  0.75341059  0.86957928  0.10347073  1
  V  V67  1  0.50508253  0.37805434  0.37517651  1
  V  V68  1  0.00109531  0.39389639  0.37714495  1
  V  V69  1  0.75660124  0.37155840  0.62273422  1
  V  V70  1  0.89132491  0.63246359  0.74352640  1
  V  V71  1  0.00265827  0.24520697  0.26542709  1
  V  V72  1  0.49868983  0.50156522  0.50070763  1
  V  V73  1  0.37494960  0.00174007  0.87892971  1
  V  V74  1  0.10526094  0.50156557  0.62352352  1
  V  V75  1  0.62334745  0.88072188  0.74444911  1
  V  V76  1  0.37260243  0.49465143  0.88422084  1
  V  V77  1  0.87936201  0.75080146  0.11472208  1
  V  V78  1  0.50048031  0.25050255  0.75099335  1
  Zn  Zn79  1  0.13293009  0.75205410  0.86481435  1
  Zn  Zn80  1  0.62868922  0.62678372  0.50126360  1
  Zn  Zn81  1  0.75611163  0.24735103  -0.00776698  1
  Zn  Zn82  1  -0.00380026  0.37351066  0.88564538  1
  Zn  Zn83  1  -0.01060496  0.49126556  0.00828439  1
  Zn  Zn84  1  0.68147486  0.68526849  -0.06556964  1
  Zn  Zn85  1  0.37320266  0.74723999  0.13168135  1
  Zn  Zn86  1  0.12556323  0.37019861  0.25632137  1
  Zn  Zn87  1  -0.00436750  0.12320813  0.12787744  1
  Zn  Zn88  1  0.63349314  0.00007758  0.12451822  1
  Zn  Zn89  1  0.87993410  0.49716649  0.88085306  1
  Zn  Zn90  1  0.12443502  0.12532596  -0.00031569  1
  Zn  Zn91  1  0.37579089  0.37403631  0.49634442  1
  Zn  Zn92  1  0.54213491  0.55031590  -0.03158986  1
  Zn  Zn93  1  0.63465278  0.24526603  0.87624084  1
  Zn  Zn94  1  0.18893427  0.18850282  0.19172978  1
  Zn  Zn95  1  0.18545717  0.18524978  0.68217924  1
  Zn  Zn96  1  0.18823787  0.69025373  0.18780054  1
  Zn  Zn97  1  0.18545289  0.68565217  0.68533381  1
  Zn  Zn98  1  0.68165149  0.18853049  0.18468601  1
  Zn  Zn99  1  0.69027096  0.18854183  0.68731142  1
  Zn  Zn100  1  0.69044914  0.68771208  0.17828146  1
  Zn  Zn101  1  0.71165526  0.71509185  0.73479389  1
  Zn  Zn102  1  0.31541285  0.31387914  0.31108126  1
  Zn  Zn103  1  0.31045621  0.31274435  0.81140567  1
  Zn  Zn104  1  0.31056458  0.81936792  0.31437409  1
  Zn  Zn105  1  0.31382913  0.81686358  0.81162895  1
  Zn  Zn106  1  0.81753274  0.30611116  0.31523882  1
  Zn  Zn107  1  0.81452313  0.31647621  0.82004851  1
  Zn  Zn108  1  0.81747683  0.80456636  0.30875139  1
  Zn  Zn109  1  0.81754356  0.80912636  0.83593721  1
  Zn  Zn110  1  0.18601266  0.43745197  0.43956865  1
  Zn  Zn111  1  0.18446418  0.43534265  0.93854584  1
  Zn  Zn112  1  0.19100495  0.93652545  0.43840784  1
  Zn  Zn113  1  0.18725453  0.93692759  0.93712819  1
  Zn  Zn114  1  0.68885869  0.43586418  0.44070210  1
  Zn  Zn115  1  0.68041408  0.46901641  0.93425536  1
  Zn  Zn116  1  0.70257637  0.95031914  0.42706113  1
  Zn  Zn117  1  0.68346266  0.93730504  0.93524776  1
  Zn  Zn118  1  0.31214385  0.06549088  0.06539079  1
  Zn  Zn119  1  0.31020640  0.06629105  0.56187146  1
  Zn  Zn120  1  0.30815225  0.56429151  0.06657477  1
  Zn  Zn121  1  0.31086054  0.56342098  0.56012905  1
  Zn  Zn122  1  0.81199417  0.06112659  0.07159770  1
  Zn  Zn123  1  0.81916721  0.06013459  0.56720146  1
  Zn  Zn124  1  0.81189542  0.57947620  0.04657680  1
  Zn  Zn125  1  0.81625092  0.56551603  0.56850818  1
  Zn  Zn126  1  0.43533949  0.42638689  0.19304636  1
  Zn  Zn127  1  0.43561001  0.43767082  0.69124211  1
  Zn  Zn128  1  0.44158749  0.93567992  0.19301288  1
  Zn  Zn129  1  0.42740832  0.93921759  0.68737261  1
  Zn  Zn130  1  0.93677201  0.44039962  0.19031427  1
  Zn  Zn131  1  0.92509587  0.41637161  0.70997482  1
  Zn  Zn132  1  0.93174479  0.93363200  0.18807766  1
  Zn  Zn133  1  0.93088454  0.93051294  0.69678538  1
  Zn  Zn134  1  0.05687004  0.05760369  0.31032848  1
  Zn  Zn135  1  0.05525762  0.06535392  0.81125226  1
  Zn  Zn136  1  0.06413671  0.56605512  0.31308982  1
  Zn  Zn137  1  0.06334608  0.56067785  0.81491994  1
  Zn  Zn138  1  0.55352091  0.06423016  0.31206648  1
  Zn  Zn139  1  0.55946600  0.06220160  0.81213894  1
  Zn  Zn140  1  0.56886406  0.56217187  0.30964678  1
  Zn  Zn141  1  0.56274383  0.56377402  0.80645965  1
  Zn  Zn142  1  0.43876361  0.18505833  0.43975225  1
  Zn  Zn143  1  0.44168475  0.18884181  0.94049115  1
  Zn  Zn144  1  0.44041248  0.69093831  0.43860545  1
  Zn  Zn145  1  0.47150380  0.71252053  0.95995909  1
  Zn  Zn146  1  0.93104527  0.18339440  0.44195529  1
  Zn  Zn147  1  0.93715742  0.18005591  0.93717653  1
  Zn  Zn148  1  0.93392823  0.68923342  0.43749455  1
  Zn  Zn149  1  0.93265844  0.67347354  0.93466364  1
  Zn  Zn150  1  0.06783131  0.31030758  0.06274238  1
  Zn  Zn151  1  0.06297487  0.31688081  0.55799461  1
  Zn  Zn152  1  0.06184646  0.80998294  0.06218613  1
  Zn  Zn153  1  0.06558981  0.81793631  0.55530220  1
  Zn  Zn154  1  0.56861596  0.30210955  0.06566340  1
  Zn  Zn155  1  0.56500238  0.30988357  0.56199361  1
  Zn  Zn156  1  0.57353474  0.79781276  0.06660573  1
  Zn  Zn157  1  0.56762264  0.94595369  0.55507749  1
  O  O158  1  0.12179712  0.11177515  0.12634708  1
  O  O159  1  0.10519218  0.12836583  0.63022123  1
  O  O160  1  0.11314183  0.63711351  0.11934067  1
  O  O161  1  0.12982620  0.61347314  0.61506935  1
  O  O162  1  0.62087921  0.12139156  0.11012938  1
  O  O163  1  0.60840047  0.12808091  0.63418272  1
  O  O164  1  0.61498733  0.60649133  0.13971355  1
  O  O165  1  0.61651573  0.61014577  0.62659482  1
  O  O166  1  0.38935046  0.38403048  0.37574024  1
  O  O167  1  0.38363788  0.38299175  0.86588650  1
  O  O168  1  0.38398788  0.86557973  0.39131674  1
  O  O169  1  0.37710019  0.88588715  0.88172761  1
  O  O170  1  0.88051002  0.37654609  0.38537791  1
  O  O171  1  0.89754428  0.38847458  0.82645348  1
  O  O172  1  0.88970700  0.86202077  0.38276134  1
  O  O173  1  0.88853189  0.88880045  0.87366874  1
  O  O174  1  0.25243675  -0.00555967  0.36318733  1
  O  O175  1  0.25784882  0.01145695  0.87944394  1
  O  O176  1  0.25684329  0.50690204  0.37078610  1
  O  O177  1  0.25568374  0.48928881  0.85752382  1
  O  O178  1  0.77720671  -0.04473644  0.34945573  1
  O  O179  1  0.76361960  -0.00912214  0.86647814  1
  O  O180  1  0.74613059  0.51483648  0.38079738  1
  O  O181  1  0.75864937  0.48408891  0.85321925  1
  O  O182  1  0.25940552  0.48933466  0.13789598  1
  O  O183  1  0.25525309  0.49091663  0.63337980  1
  O  O184  1  0.24160516  0.99170261  0.12802028  1
  O  O185  1  0.25554324  0.98978289  0.62503980  1
  O  O186  1  0.73604512  0.48674711  0.13216559  1
  O  O187  1  0.74046147  0.49052241  0.62911992  1
  O  O188  1  0.75235484  0.97515309  0.11994342  1
  O  O189  1  0.75803387  0.98853095  0.64076008  1
  O  O190  1  -0.00520240  0.36704547  0.26414756  1
  O  O191  1  0.02523667  0.36878385  0.73953856  1
  O  O192  1  0.00846697  0.87843992  0.26227711  1
  O  O193  1  -0.00528567  0.85753002  0.76310579  1
  O  O194  1  0.50639298  0.36004003  0.26292509  1
  O  O195  1  0.50675974  0.36711011  0.75220587  1
  O  O196  1  0.50977615  0.86383713  0.25581404  1
  O  O197  1  0.50198159  0.87467008  0.75312517  1
  O  O198  1  0.52707217  0.13060187  0.21987494  1
  O  O199  1  0.49077155  0.13282971  0.74492552  1
  O  O200  1  0.50104944  0.63313477  0.24733100  1
  O  O201  1  0.49297625  0.63449415  0.74539676  1
  O  O202  1  0.99674899  0.13611765  0.25077292  1
  O  O203  1  0.99014274  0.13397561  0.74546802  1
  O  O204  1  0.99759243  0.62862549  0.24074277  1
  O  O205  1  0.99776248  0.63495722  0.74422863  1
  O  O206  1  0.36559519  0.24550219  0.00920850  1
  O  O207  1  0.37268500  0.25169913  0.51057661  1
  O  O208  1  0.36446726  0.75994615  0.00572092  1
  O  O209  1  0.36700101  0.75158876  0.50833463  1
  O  O210  1  0.87826467  0.24536872  0.01528082  1
  O  O211  1  0.85849312  0.26302747  0.49423942  1
  O  O212  1  0.87397029  0.73635412  0.01428584  1
  O  O213  1  0.86320949  0.75614117  0.49898471  1
  O  O214  1  0.14030241  0.25560308  0.50053577  1
  O  O215  1  0.13891074  0.24425145  0.99112223  1
  O  O216  1  0.13450740  0.74299823  0.49339174  1
  O  O217  1  0.13991136  0.74973334  0.99945840  1
  O  O218  1  0.63656452  0.25465244  0.48963955  1
  O  O219  1  0.63172305  0.23551873  0.99790371  1
  O  O220  1  0.64008817  0.74914629  0.48558531  1
  O  O221  1  0.58542761  0.73951762  0.97425683  1
  O  O222  1  0.49194134  0.24623641  0.13594149  1
  O  O223  1  0.49322127  0.24526442  0.63328525  1
  O  O224  1  0.49760478  0.73437744  0.13685196  1
  O  O225  1  0.48320139  0.74611158  0.63508218  1
  O  O226  1  0.98793329  0.25406269  0.13481673  1
  O  O227  1  0.99718200  0.24930922  0.62187463  1
  O  O228  1  0.98927802  0.74367895  0.12200012  1
  O  O229  1  1.00115302  0.76120365  0.63192530  1
  O  O230  1  -0.00540276  0.25255391  0.36653141  1
  O  O231  1  0.01775668  0.24631390  0.88270483  1
  O  O232  1  0.01428628  0.75468365  0.37909860  1
  O  O233  1  -0.00142084  0.76353945  0.88610155  1
  O  O234  1  0.51821269  0.26554007  0.38340389  1
  O  O235  1  0.49839400  0.25631090  0.86170310  1
  O  O236  1  0.51006258  0.75498651  0.37194813  1
  O  O237  1  0.47816187  0.76772961  0.85648101  1
  O  O238  1  0.25506984  0.14172299  0.50188159  1
  O  O239  1  0.24942713  0.13256898  0.99018187  1
  O  O240  1  0.24436935  0.63403007  0.49080908  1
  O  O241  1  0.24139928  0.64355374  1.01248783  1
  O  O242  1  0.76029632  0.13992023  0.51042364  1
  O  O243  1  0.74038686  0.12338054  1.00375295  1
  O  O244  1  0.75183774  0.63162630  0.49422456  1
  O  O245  1  0.72507408  0.64193269  1.03122166  1
  O  O246  1  0.24562408  0.36384929  0.00898243  1
  O  O247  1  0.25440286  0.36959539  0.50953730  1
  O  O248  1  0.25590565  0.86833591  0.00834427  1
  O  O249  1  0.26105497  0.86617453  0.50224084  1
  O  O250  1  0.74596325  0.37960975  0.01564067  1
  O  O251  1  0.75959076  0.37185957  0.50486060  1
  O  O252  1  0.74170084  0.86444221  0.00402248  1
  O  O253  1  0.76101299  0.86594481  0.50826085  1
  O  O254  1  0.13860251  0.49626890  0.25615372  1
  O  O255  1  0.13453410  0.49595916  0.74158423  1
  O  O256  1  0.12991232  0.99056145  0.24432412  1
  O  O257  1  0.08345870  0.99112971  0.71857574  1
  O  O258  1  0.61704305  0.48151391  0.24104561  1
  O  O259  1  0.63084064  0.49105480  0.74068016  1
  O  O260  1  0.61937567  0.98094632  0.24586112  1
  O  O261  1  0.64117236  0.99676455  0.75906600  1
  O  O262  1  0.36230974  -0.00336360  0.24677524  1
  O  O263  1  0.37552187  0.01177553  0.76196519  1
  O  O264  1  0.36645111  0.49471832  0.26457187  1
  O  O265  1  0.36967235  0.50846819  0.75582955  1
  O  O266  1  0.88194054  0.02106741  0.23760642  1
  O  O267  1  0.86572683  0.00234868  0.76106293  1
  O  O268  1  0.87730719  0.52360686  0.24248054  1
  O  O269  1  0.86099995  0.51284397  0.73542246  1
  O  O270  1  0.10572216  0.37974195  0.37807153  1
  O  O271  1  0.12992253  0.36491706  0.86480951  1
  O  O272  1  0.11451225  0.87028349  0.37426115  1
  O  O273  1  0.11171264  0.87481871  0.87457363  1
  O  O274  1  0.61985577  0.37773354  0.36909392  1
  O  O275  1  0.61384079  0.38314201  0.86201861  1
  O  O276  1  0.62037987  0.86542995  0.36420186  1
  O  O277  1  0.61007747  0.88340158  0.86235966  1
  O  O278  1  0.39104171  0.13194396  0.11948830  1
  O  O279  1  0.38114427  0.13167993  0.63436510  1
  O  O280  1  0.37670079  0.62351246  0.14177997  1
  O  O281  1  0.37885784  0.63139554  0.63138789  1
  O  O282  1  0.87489482  0.14029421  0.13319693  1
  O  O283  1  0.89131071  0.10962023  0.64210360  1
  O  O284  1  0.88499010  0.63469663  0.13295494  1
  O  O285  1  0.86693359  0.63248984  0.64353098  1
  O  O286  1  0.25879827  0.25191769  0.12040761  1
  O  O287  1  0.25879405  0.25816239  0.62006898  1
  O  O288  1  0.25190354  0.76396209  0.12197521  1
  O  O289  1  0.25709581  0.75190281  0.61579587  1
  O  O290  1  0.75994625  0.26124982  0.12265665  1
  O  O291  1  0.73827334  0.26140978  0.61099764  1
  O  O292  1  0.76103643  0.76194108  0.12727626  1
  O  O293  1  0.74260277  0.76291578  0.62390423  1
  O  O294  1  0.25804721  0.25754207  0.38920168  1
  O  O295  1  0.24854116  0.24236259  0.88264151  1
  O  O296  1  0.24391049  0.74590702  0.38201287  1
  O  O297  1  0.25148312  0.75705805  0.88916130  1
  O  O298  1  0.73891138  0.25193128  0.38637778  1
  O  O299  1  0.74783526  0.25590130  0.88000552  1
  O  O300  1  0.74692955  0.74182894  0.38212237  1
  O  O301  1  0.73586295  0.73784638  0.84665200  1
  O  O302  1  0.00425804  0.10924498  0.00407264  1
  O  O303  1  -0.01472713  0.12553492  0.52061580  1
  O  O304  1  0.01425255  0.62621223  0.01038941  1
  O  O305  1  0.01400892  0.62978228  0.49398256  1
  O  O306  1  0.51142683  0.13015289  0.01077616  1
  O  O307  1  0.49519594  0.12722087  0.51961962  1
  O  O308  1  0.48012866  0.62030721  0.02920938  1
  O  O309  1  0.50341215  0.62005014  0.50750154  1
  O  O310  1  0.50174419  0.38306668  0.49215807  1
  O  O311  1  0.50450589  0.36098098  0.98585045  1
  O  O312  1  0.48829124  0.87721145  0.49758014  1
  O  O313  1  0.48574249  0.86743484  0.99166462  1
  O  O314  1  0.98637411  0.37227580  0.48842641  1
  O  O315  1  1.01303832  0.38077854  0.99870459  1
  O  O316  1  0.98817409  0.87341572  0.49124595  1
  O  O317  1  1.00325406  0.88547946  0.99140431  1
  O  O318  1  0.49601570  0.49738846  0.37823841  1
  O  O319  1  0.48861639  0.49129910  0.87698861  1
  O  O320  1  0.50310287  0.98068740  0.36951214  1
  O  O321  1  0.48661453  0.99066941  0.87163128  1
  O  O322  1  0.99536500  0.49254011  0.36995266  1
  O  O323  1  1.00297930  0.49591184  0.88335142  1
  O  O324  1  0.99425912  0.98586939  0.37609399  1
  O  O325  1  0.99457844  0.99012288  0.88045760  1
  O  O326  1  0.00773036  -0.00555947  0.11814771  1
  O  O327  1  0.02857241  -0.00744216  0.66312562  1
  O  O328  1  -0.00118826  0.51878886  0.12618855  1
  O  O329  1  0.00846975  0.48985917  0.63310875  1
  O  O330  1  0.50104252  0.00936304  0.12377715  1
  O  O331  1  0.49853428  0.00872342  0.62873318  1
  O  O332  1  0.49879554  0.50864712  0.14110008  1
  O  O333  1  0.50364748  0.50388008  0.62221145  1
  O  O334  1  0.24813655  0.38188860  0.24641961  1
  O  O335  1  0.24660336  0.38198562  0.73814587  1
  O  O336  1  0.24188383  0.88455893  0.24428927  1
  O  O337  1  0.25242669  0.87047032  0.73333678  1
  O  O338  1  0.73918658  0.36359871  0.24921373  1
  O  O339  1  0.74072093  0.37987091  0.73784675  1
  O  O340  1  0.73620399  0.86617647  0.24819357  1
  O  O341  1  0.74259890  0.88033309  0.74494166  1
  O  O342  1  0.24553510  0.10947609  0.24952678  1
  O  O343  1  0.26233769  0.13411333  0.75981899  1
  O  O344  1  0.24388942  0.61914242  0.26200933  1
  O  O345  1  0.25918987  0.61631100  0.74513621  1
  O  O346  1  0.75767947  0.12919288  0.24501075  1
  O  O347  1  0.75808436  0.11035053  0.74231499  1
  O  O348  1  0.75896424  0.62939237  0.25627049  1
  O  O349  1  0.74194537  0.60610954  0.74472431  1
  O  O350  1  0.45014225  0.15115164  0.33358159  1
  O  O351  1  0.37093713  0.12048362  0.87110641  1
  O  O352  1  0.36496972  0.61914411  0.38099519  1
  O  O353  1  0.38242289  0.61729722  0.86349432  1
  O  O354  1  0.87241212  0.12941511  0.36022773  1
  O  O355  1  0.88402041  0.10807804  0.86181190  1
  O  O356  1  0.86911560  0.63388942  0.36094414  1
  O  O357  1  0.87914038  0.61549507  0.85110167  1
  O  O358  1  0.14285316  0.36564028  0.13338047  1
  O  O359  1  0.13639556  0.38380030  0.62715680  1
  O  O360  1  0.13052181  0.88080426  0.13330001  1
  O  O361  1  0.14457179  0.87625366  0.60948146  1
  O  O362  1  0.63644329  0.36878719  0.13669977  1
  O  O363  1  0.62748901  0.38321590  0.63228368  1
  O  O364  1  0.63570053  0.86729087  0.13324913  1
  O  O365  1  0.63178590  0.88565381  0.63842818  1
  O  O366  1  0.10670192  0.25005649  0.24756393  1
  O  O367  1  0.14172277  0.25869415  0.76129184  1
  O  O368  1  0.13494422  0.76427124  0.26161731  1
  O  O369  1  0.10950745  0.74191100  0.75111145  1
  O  O370  1  0.61607758  0.25272961  0.26738505  1
  O  O371  1  0.61737313  0.25859196  0.75070818  1
  O  O372  1  0.61751971  0.75451801  0.25772174  1
  O  O373  1  0.60631645  0.76416100  0.74352322  1
  O  O374  1  0.38256746  0.25217376  0.23981709  1
  O  O375  1  0.38176484  0.24377512  0.74179043  1
  O  O376  1  0.38810405  0.75992458  0.25270308  1
  O  O377  1  0.37465295  0.74352605  0.74144616  1
  O  O378  1  0.88436154  0.24153571  0.24376589  1
  O  O379  1  0.86085358  0.23005394  0.74948451  1
  O  O380  1  0.87505173  0.73747387  0.23476340  1
  O  O381  1  0.89167927  0.74088650  0.75665283  1
  O  O382  1  0.38054351  0.49898525  0.48886362  1
  O  O383  1  0.35776719  0.50600823  0.98215815  1
  O  O384  1  0.37040571  0.98721178  0.49958686  1
  O  O385  1  0.36874466  0.99171510  0.99217027  1
  O  O386  1  0.87145322  0.48744788  0.50348115  1
  O  O387  1  0.87486986  0.50762462  0.99564685  1
  O  O388  1  0.86648977  0.98304789  0.49455942  1
  O  O389  1  0.88158077  1.00734787  0.98750579  1
  O  O390  1  0.11934712  -0.00073840  0.01001620  1
  O  O391  1  0.12304817  0.03505797  0.46958853  1
  O  O392  1  0.13979748  0.52148965  0.00059453  1
  O  O393  1  0.12989425  0.50840937  0.51075579  1
  O  O394  1  0.62678463  0.01126205  0.00183944  1
  O  O395  1  0.64186128  0.00169419  0.49781470  1
  O  O396  1  0.61338889  0.48193933  0.02980875  1
  O  O397  1  0.61820608  0.50049109  0.50944682  1
  O  O398  1  0.36426566  0.36248250  0.12814554  1
  O  O399  1  0.36966788  0.36571701  0.62586528  1
  O  O400  1  0.36748595  0.87773814  0.11864485  1
  O  O401  1  0.36705272  0.86814081  0.61397938  1
  O  O402  1  0.86212743  0.36624172  0.13565883  1
  O  O403  1  0.86331581  0.37634291  0.61629689  1
  O  O404  1  0.86640377  0.86283494  0.12388050  1
  O  O405  1  0.86963020  0.87839490  0.61320466  1
  O  O406  1  0.11793582  0.08855741  0.41562072  1
  O  O407  1  0.13513058  0.12874252  0.86957017  1
  O  O408  1  0.13401277  0.63142833  0.38203188  1
  O  O409  1  0.11950849  0.63492360  0.89099187  1
  O  O410  1  0.62200266  0.13580412  0.37612525  1
  O  O411  1  0.61762689  0.12469118  0.88770015  1
  O  O412  1  0.63492921  0.63247989  0.37425498  1
  O  O413  1  0.62817851  0.58089233  0.89677974  1
