# generated using pymatgen
data_V79Zn79O256
_symmetry_space_group_name_H-M   'P 1'
_cell_length_a   16.93033593
_cell_length_b   16.93261385
_cell_length_c   16.88956004
_cell_angle_alpha   89.86758477
_cell_angle_beta   89.70177478
_cell_angle_gamma   89.97810027
_symmetry_Int_Tables_number   1
_chemical_formula_structural   V79Zn79O256
_chemical_formula_sum   'V79 Zn79 O256'
_cell_volume   4841.73308155
_cell_formula_units_Z   1
loop_
 _symmetry_equiv_pos_site_id
 _symmetry_equiv_pos_as_xyz
  1  'x, y, z'
loop_
 _atom_site_type_symbol
 _atom_site_label
 _atom_site_symmetry_multiplicity
 _atom_site_fract_x
 _atom_site_fract_y
 _atom_site_fract_z
 _atom_site_occupancy
  V  V0  1  -0.00889407  0.38454748  0.88642854  1
  V  V1  1  0.50215903  0.88025223  0.38687653  1
  V  V2  1  0.24283741  0.50722889  0.23831381  1
  V  V3  1  0.01354963  0.50633282  0.50470661  1
  V  V4  1  0.36969144  0.25226636  0.61776875  1
  V  V5  1  0.12457339  0.61519244  0.00841594  1
  V  V6  1  0.74854856  0.00220297  0.25071690  1
  V  V7  1  0.74488283  0.13116591  0.38154333  1
  V  V8  1  0.25618096  0.12881531  0.87959229  1
  V  V9  1  0.00302127  0.12491865  0.12962371  1
  V  V10  1  0.71884315  0.46614551  0.24250130  1
  V  V11  1  0.76394601  0.51075143  0.74802192  1
  V  V12  1  0.87675089  0.73722264  0.62850276  1
  V  V13  1  0.01342443  0.00304817  0.50075194  1
  V  V14  1  0.87897775  0.25554272  0.10709429  1
  V  V15  1  0.37077048  0.62045372  0.75157914  1
  V  V16  1  0.36179309  0.23807994  0.12377503  1
  V  V17  1  0.24689310  0.38453044  0.62166844  1
  V  V18  1  0.61879470  0.87356792  0.75411678  1
  V  V19  1  0.75240186  0.12862118  0.87891401  1
  V  V20  1  0.12998326  0.12204571  0.00634027  1
  V  V21  1  0.74778443  0.74853377  0.00127302  1
  V  V22  1  0.11547337  0.88029746  0.74624688  1
  V  V23  1  0.02243676  0.12053438  0.62329631  1
  V  V24  1  0.88130062  -0.00487201  0.87440909  1
  V  V25  1  0.50042388  -0.01435034  0.00236541  1
  V  V26  1  0.49843458  0.49801952  0.00416871  1
  V  V27  1  0.87994515  -0.00184860  0.37591300  1
  V  V28  1  0.63309763  0.37925684  0.73779864  1
  V  V29  1  0.25256330  0.74310530  0.49631054  1
  V  V30  1  0.25277048  0.76560083  0.00344540  1
  V  V31  1  0.75065174  0.24981327  0.50784656  1
  V  V32  1  0.75249465  -0.00170392  0.74882068  1
  V  V33  1  0.48807542  0.62439085  0.12826397  1
  V  V34  1  0.38531561  -0.01564562  0.87432436  1
  V  V35  1  0.38396431  0.12899431  0.74749564  1
  V  V36  1  0.36758211  0.49858600  0.87243661  1
  V  V37  1  0.36772452  0.76567077  0.13010537  1
  V  V38  1  0.36079969  0.37016732  0.00750470  1
  V  V39  1  0.87890418  0.87452625  -0.00196497  1
  V  V40  1  0.12403563  0.24782087  0.39022169  1
  V  V41  1  0.50231508  0.75246543  0.25358537  1
  V  V42  1  0.87893616  0.13673201  0.25186785  1
  V  V43  1  0.10664213  0.75029243  0.38310923  1
  V  V44  1  0.62144948  0.50797149  0.62170962  1
  V  V45  1  0.37405157  0.50966723  0.37527244  1
  V  V46  1  -0.00062085  0.60901024  0.12605938  1
  V  V47  1  0.88390161  0.87522677  0.49658360  1
  V  V48  1  0.13141994  0.24941815  0.88025299  1
  V  V49  1  0.70088419  0.30584635  0.04820802  1
  V  V50  1  0.37360261  -0.00437789  0.38945069  1
  V  V51  1  0.13354899  0.36889687  0.24115299  1
  V  V52  1  0.62092622  0.62201368  0.00608199  1
  V  V53  1  -0.00477656  0.73290340  0.75027390  1
  V  V54  1  0.61423236  0.00580575  0.61801707  1
  V  V55  1  0.75153221  0.87294529  0.62449896  1
  V  V56  1  0.24976384  0.87722692  0.61838642  1
  V  V57  1  0.62829685  0.25313613  0.86888964  1
  V  V58  1  0.74592107  0.88025709  0.12466412  1
  V  V59  1  0.25075060  -0.00150815  0.74679732  1
  V  V60  1  0.11755890  0.75812339  0.88082325  1
  V  V61  1  0.87501773  0.38093063  0.50757435  1
  V  V62  1  0.00475262  -0.00265269  0.00205589  1
  V  V63  1  0.50408841  0.25167916  0.73420419  1
  V  V64  1  0.00520739  0.24989309  0.75021865  1
  V  V65  1  0.37701044  0.75442669  0.62498925  1
  V  V66  1  0.86642701  0.61229067  0.26146434  1
  V  V67  1  0.13279194  0.38361183  0.75220169  1
  V  V68  1  0.37672415  0.38038733  0.49367681  1
  V  V69  1  0.88034708  0.12367625  0.74616827  1
  V  V70  1  0.61895327  0.12504980  0.00221067  1
  V  V71  1  0.50829904  0.23940406  0.24683958  1
  V  V72  1  -0.00199502  0.76034669  0.24381212  1
  V  V73  1  0.74850925  0.74456417  0.48582135  1
  V  V74  1  0.25023182  0.13067647  0.38819888  1
  V  V75  1  0.24644079  -0.00363816  0.24060299  1
  V  V76  1  0.61532978  0.75310175  0.87697043  1
  V  V77  1  0.62209245  0.62734863  0.48523901  1
  V  V78  1  -0.00155606  0.37736545  0.37021756  1
  Zn  Zn79  1  0.88160326  0.25116250  0.62494171  1
  Zn  Zn80  1  0.53108452  0.38176061  0.34229727  1
  Zn  Zn81  1  0.61055046  0.00965111  0.13335600  1
  Zn  Zn82  1  0.50100977  0.37540862  0.87505916  1
  Zn  Zn83  1  0.12768072  0.51990579  0.63295168  1
  Zn  Zn84  1  0.49593536  0.75113591  0.75505555  1
  Zn  Zn85  1  0.75285448  0.62160175  0.87362861  1
  Zn  Zn86  1  0.62729082  0.87246355  0.25593922  1
  Zn  Zn87  1  0.87065887  0.74560747  0.12765867  1
  Zn  Zn88  1  0.37528067  0.12113235  0.24749625  1
  Zn  Zn89  1  0.24530800  0.62322603  0.87719039  1
  Zn  Zn90  1  0.24112111  0.62330825  0.37453129  1
  Zn  Zn91  1  0.49639132  0.62575326  0.62321958  1
  Zn  Zn92  1  0.59804814  0.13540338  0.50551685  1
  Zn  Zn93  1  0.13018149  0.87818875  0.24285876  1
  Zn  Zn94  1  0.18939545  0.18499728  0.19677167  1
  Zn  Zn95  1  0.19529078  0.19158731  0.69118235  1
  Zn  Zn96  1  0.18418342  0.68889055  0.18835531  1
  Zn  Zn97  1  0.19247627  0.69407529  0.69452752  1
  Zn  Zn98  1  0.69233111  0.18828997  0.18906332  1
  Zn  Zn99  1  0.69222414  0.18640837  0.68456192  1
  Zn  Zn100  1  0.68269568  0.68314972  0.18817110  1
  Zn  Zn101  1  0.68962399  0.68626183  0.68833859  1
  Zn  Zn102  1  0.31177322  0.31201773  0.30876098  1
  Zn  Zn103  1  0.31603329  0.31650780  0.81199635  1
  Zn  Zn104  1  0.31590742  0.81709969  0.31417001  1
  Zn  Zn105  1  0.30659235  0.80785128  0.81172985  1
  Zn  Zn106  1  0.80852058  0.31706884  0.31784361  1
  Zn  Zn107  1  0.81284985  0.31796493  0.81086163  1
  Zn  Zn108  1  0.81848370  0.81237477  0.30893065  1
  Zn  Zn109  1  0.80999226  0.80961181  0.81377155  1
  Zn  Zn110  1  0.18923391  0.43592739  0.43317886  1
  Zn  Zn111  1  0.18439859  0.43487066  0.93957274  1
  Zn  Zn112  1  0.18802907  0.92834854  0.42745274  1
  Zn  Zn113  1  0.18974576  0.94058270  0.93246531  1
  Zn  Zn114  1  0.69533221  0.44640719  0.42277381  1
  Zn  Zn115  1  0.68637908  0.44399710  0.92978061  1
  Zn  Zn116  1  0.68914493  0.93719521  0.43748147  1
  Zn  Zn117  1  0.68824186  0.94017051  0.93640984  1
  Zn  Zn118  1  0.31799642  0.05526337  0.05980415  1
  Zn  Zn119  1  0.31720611  0.06713575  0.56336081  1
  Zn  Zn120  1  0.31184684  0.56774381  0.06034030  1
  Zn  Zn121  1  0.31027405  0.56461551  0.56413020  1
  Zn  Zn122  1  0.81487017  0.06575525  0.06357569  1
  Zn  Zn123  1  0.81533410  0.06167585  0.56350220  1
  Zn  Zn124  1  0.80775716  0.55879636  0.07443887  1
  Zn  Zn125  1  0.80665759  0.55723763  0.55900522  1
  Zn  Zn126  1  0.42254145  0.44004271  0.19343416  1
  Zn  Zn127  1  0.44212978  0.43743412  0.68463126  1
  Zn  Zn128  1  0.43140356  0.93918375  0.19314899  1
  Zn  Zn129  1  0.43624048  0.93629145  0.68506367  1
  Zn  Zn130  1  0.93749626  0.43340861  0.18911086  1
  Zn  Zn131  1  0.94513237  0.43847375  0.68818464  1
  Zn  Zn132  1  0.93427582  0.94080466  0.18367980  1
  Zn  Zn133  1  0.94011540  0.93545850  0.67870363  1
  Zn  Zn134  1  0.06613933  0.06563176  0.31507447  1
  Zn  Zn135  1  0.06589098  0.06292917  0.81665322  1
  Zn  Zn136  1  0.06266098  0.56238550  0.31198139  1
  Zn  Zn137  1  0.06265296  0.56283033  0.82212904  1
  Zn  Zn138  1  0.56104512  0.06574977  0.32276666  1
  Zn  Zn139  1  0.56506248  0.06263180  0.81081339  1
  Zn  Zn140  1  0.55740561  0.56083420  0.30636376  1
  Zn  Zn141  1  0.55868673  0.56533496  0.81454634  1
  Zn  Zn142  1  0.43975510  0.19647423  0.42846077  1
  Zn  Zn143  1  0.44219592  0.19038543  0.93743295  1
  Zn  Zn144  1  0.43813778  0.69067810  0.43860964  1
  Zn  Zn145  1  0.43252701  0.68727362  0.93990130  1
  Zn  Zn146  1  0.93911118  0.18817259  0.43881396  1
  Zn  Zn147  1  0.94432778  0.18559826  0.93542412  1
  Zn  Zn148  1  0.92990234  0.68265653  0.43664098  1
  Zn  Zn149  1  0.94186380  0.68759011  0.94245002  1
  Zn  Zn150  1  0.06316865  0.30882887  0.06331794  1
  Zn  Zn151  1  0.06276983  0.31585265  0.56349888  1
  Zn  Zn152  1  0.06667146  0.81339800  0.06908256  1
  Zn  Zn153  1  0.06187780  0.68723562  0.56410171  1
  Zn  Zn154  1  0.52895865  0.34725999  0.11469570  1
  Zn  Zn155  1  0.58203307  0.34252397  0.52553165  1
  Zn  Zn156  1  0.56155235  0.81291526  0.06821410  1
  Zn  Zn157  1  0.56622878  0.81131780  0.56402291  1
  O  O158  1  0.11767913  0.13253669  0.11564917  1
  O  O159  1  0.12159686  0.12488933  0.63297869  1
  O  O160  1  0.11403596  0.62826446  0.11738782  1
  O  O161  1  0.12793916  0.63064160  0.63265833  1
  O  O162  1  0.63902559  0.12196624  0.10693247  1
  O  O163  1  0.63035239  0.10910836  0.62629458  1
  O  O164  1  0.60581057  0.63569039  0.11377780  1
  O  O165  1  0.62145585  0.61967659  0.62285259  1
  O  O166  1  0.36166657  0.38048807  0.38976210  1
  O  O167  1  0.38000788  0.37961877  0.88598937  1
  O  O168  1  0.38438899  0.88804974  0.37549960  1
  O  O169  1  0.37529198  0.88653275  0.86609229  1
  O  O170  1  0.89406012  0.36639700  0.38164206  1
  O  O171  1  0.89307991  0.36505425  0.87187379  1
  O  O172  1  0.86956861  0.88755001  0.38279539  1
  O  O173  1  0.86600422  0.88592768  0.88454771  1
  O  O174  1  0.26077856  0.00501086  0.37450450  1
  O  O175  1  0.26624731  0.00644747  0.86737928  1
  O  O176  1  0.25564358  0.50571261  0.37174477  1
  O  O177  1  0.26316435  0.50136007  0.88115903  1
  O  O178  1  0.75974495  0.00707956  0.36931044  1
  O  O179  1  0.76075838  0.00800703  0.86840081  1
  O  O180  1  0.74913814  0.49558003  0.33851679  1
  O  O181  1  0.74318214  0.50419756  0.85386007  1
  O  O182  1  0.25488257  0.50433471  0.13858459  1
  O  O183  1  0.24660359  0.48838026  0.62713948  1
  O  O184  1  0.25425364  1.00734806  0.14063363  1
  O  O185  1  0.26136944  0.99412587  0.63944884  1
  O  O186  1  0.75413911  0.49507803  0.14777055  1
  O  O187  1  0.73652608  0.50807760  0.63887836  1
  O  O188  1  0.75489357  0.99522773  0.13530612  1
  O  O189  1  0.75012425  0.98821498  0.62999958  1
  O  O190  1  0.01287046  0.38237909  0.26565739  1
  O  O191  1  0.01081259  0.36357381  0.75491209  1
  O  O192  1  -0.01131069  0.86163924  0.24814475  1
  O  O193  1  0.01321987  0.87791704  0.74671198  1
  O  O194  1  0.49981525  0.36473381  0.23214949  1
  O  O195  1  0.51245912  0.36755509  0.75009559  1
  O  O196  1  0.50174720  0.86566916  0.25221377  1
  O  O197  1  0.51527829  0.87229454  0.74586885  1
  O  O198  1  0.49379710  0.13333045  0.25833553  1
  O  O199  1  0.49226011  0.13554030  0.75390830  1
  O  O200  1  0.49967308  0.64144177  0.24222715  1
  O  O201  1  0.48645540  0.63124759  0.74911455  1
  O  O202  1  0.99106892  0.11491995  0.24050485  1
  O  O203  1  0.99965983  0.12865766  0.74524773  1
  O  O204  1  0.99444613  0.62899253  0.23930851  1
  O  O205  1  0.99856537  0.63466752  0.75589276  1
  O  O206  1  0.38251899  0.26258072  0.00675270  1
  O  O207  1  0.37175603  0.26428103  0.51027812  1
  O  O208  1  0.35878252  0.74956466  0.00604087  1
  O  O209  1  0.36187733  0.74691350  0.51054778  1
  O  O210  1  0.87769713  0.24431731  0.00713432  1
  O  O211  1  0.87450026  0.25948725  0.50320428  1
  O  O212  1  0.86554357  0.75890302  -0.00050655  1
  O  O213  1  0.86707724  0.75587710  0.50571183  1
  O  O214  1  0.12869688  0.25536169  0.48990909  1
  O  O215  1  0.12264668  0.23637931  0.98885991  1
  O  O216  1  0.12912629  0.75003032  0.48790425  1
  O  O217  1  0.13163504  0.74876527  0.99660987  1
  O  O218  1  0.64711633  0.24561082  0.51463724  1
  O  O219  1  0.63644749  0.24402179  0.98721536  1
  O  O220  1  0.64063905  0.74173425  0.50442681  1
  O  O221  1  0.63007845  0.74805196  0.99556731  1
  O  O222  1  0.48355248  0.24493176  0.13888982  1
  O  O223  1  0.49004096  0.25697261  0.63318733  1
  O  O224  1  0.48659477  0.74877142  0.13128098  1
  O  O225  1  0.48646452  0.75319211  0.62552147  1
  O  O226  1  0.99008661  0.23385067  0.11945143  1
  O  O227  1  1.00494708  0.24002291  0.63545775  1
  O  O228  1  0.99613213  0.74463081  0.13670906  1
  O  O229  1  0.99228198  0.74686411  0.64026363  1
  O  O230  1  0.01455784  0.25907098  0.38055388  1
  O  O231  1  0.01352212  0.24868758  0.86528734  1
  O  O232  1  0.00271761  0.74861279  0.36833825  1
  O  O233  1  0.00441065  0.74817518  0.86487285  1
  O  O234  1  0.48201307  0.26656662  0.34889930  1
  O  O235  1  0.51660620  0.25057574  0.86418117  1
  O  O236  1  0.48644047  0.76383434  0.36035150  1
  O  O237  1  0.51179571  0.74979256  0.87984989  1
  O  O238  1  0.24702208  0.11872345  0.48795303  1
  O  O239  1  0.24331442  0.11223744  0.98769315  1
  O  O240  1  0.24551358  0.64076679  0.50294541  1
  O  O241  1  0.23507569  0.63658107  1.00326352  1
  O  O242  1  0.76271937  0.13747249  0.49539590  1
  O  O243  1  0.74468663  0.11566999  0.98370173  1
  O  O244  1  0.74527929  0.63900262  0.49874428  1
  O  O245  1  0.73596827  0.63641360  1.01206097  1
  O  O246  1  0.26181756  0.37400492  -0.00182198  1
  O  O247  1  0.25322436  0.37635980  0.51676962  1
  O  O248  1  0.24493760  0.86479260  -0.00070449  1
  O  O249  1  0.24090730  0.86423246  0.51160924  1
  O  O250  1  0.75089852  0.36938108  -0.01076500  1
  O  O251  1  0.76839780  0.36317804  0.49118068  1
  O  O252  1  0.75581416  0.87099391  0.00583174  1
  O  O253  1  0.75638645  0.86480034  0.50704769  1
  O  O254  1  0.13533755  0.48739756  0.25702174  1
  O  O255  1  0.11809346  0.48692419  0.75071113  1
  O  O256  1  0.14123935  0.99797239  0.26436863  1
  O  O257  1  0.13736629  0.98862588  0.76328394  1
  O  O258  1  0.61756160  0.48788851  0.24466820  1
  O  O259  1  0.62617670  0.49686994  0.74002965  1
  O  O260  1  0.63917499  1.00538554  0.25042328  1
  O  O261  1  0.63271801  0.99267884  0.74309144  1
  O  O262  1  0.36454376  0.00351835  0.26015425  1
  O  O263  1  0.37448271  0.00855120  0.75907545  1
  O  O264  1  0.35366044  0.49394410  0.26519270  1
  O  O265  1  0.38382097  0.50644473  0.76048473  1
  O  O266  1  0.86708178  0.00753756  0.25708903  1
  O  O267  1  0.87560141  0.00360655  0.75610810  1
  O  O268  1  0.88180556  0.51268873  0.24770645  1
  O  O269  1  0.86208765  0.49487175  0.74054328  1
  O  O270  1  0.11984341  0.36351878  0.37270563  1
  O  O271  1  0.12236137  0.36591054  0.86948881  1
  O  O272  1  0.13165431  0.85196686  0.36261073  1
  O  O273  1  0.12981731  0.86518758  0.86466215  1
  O  O274  1  0.60995223  0.37714076  0.41911601  1
  O  O275  1  0.62458923  0.36628132  0.86240074  1
  O  O276  1  0.60871512  0.88590506  0.37184818  1
  O  O277  1  0.63674493  0.86589233  0.86445864  1
  O  O278  1  0.37546674  0.13531613  0.11863837  1
  O  O279  1  0.36596518  0.13733675  0.63952958  1
  O  O280  1  0.38366684  0.64039829  0.11788423  1
  O  O281  1  0.37430612  0.63333023  0.63236499  1
  O  O282  1  0.88056749  0.13377298  0.13166740  1
  O  O283  1  0.88593573  0.12051323  0.63915448  1
  O  O284  1  0.88955610  0.62714126  0.12761165  1
  O  O285  1  0.86747094  0.63922730  0.61803685  1
  O  O286  1  0.26103859  0.24270978  0.12266581  1
  O  O287  1  0.26268578  0.26337350  0.63368130  1
  O  O288  1  0.25763618  0.74957601  0.11783285  1
  O  O289  1  0.25652939  0.75890036  0.61762559  1
  O  O290  1  0.76294182  0.24794491  0.11475432  1
  O  O291  1  0.76361701  0.24391359  0.61391581  1
  O  O292  1  0.74762235  0.76164941  0.11634519  1
  O  O293  1  0.75715760  0.75989851  0.62302765  1
  O  O294  1  0.24482405  0.23738910  0.37523391  1
  O  O295  1  0.24343106  0.23963690  0.86729361  1
  O  O296  1  0.25553986  0.74944974  0.38952493  1
  O  O297  1  0.24038717  0.74847585  0.88869729  1
  O  O298  1  0.75833110  0.23925345  0.38958549  1
  O  O299  1  0.74069887  0.23937594  0.86022834  1
  O  O300  1  0.75236327  0.75752208  0.38746509  1
  O  O301  1  0.74462982  0.74445272  0.88749326  1
  O  O302  1  0.01005482  0.11652739  0.00601887  1
  O  O303  1  -0.00224087  0.11312389  0.50979646  1
  O  O304  1  0.01318971  0.63324407  0.01504054  1
  O  O305  1  -0.00265411  0.61124981  0.49774236  1
  O  O306  1  0.51434521  0.11810318  -0.00949302  1
  O  O307  1  0.48922433  0.12955369  0.49881100  1
  O  O308  1  0.50181097  0.61926427  0.00705852  1
  O  O309  1  0.51854192  0.63849841  0.50304782  1
  O  O310  1  0.47442352  0.37937591  0.50938630  1
  O  O311  1  0.49336829  0.38901782  1.00595491  1
  O  O312  1  0.50210200  0.86598109  0.48542829  1
  O  O313  1  0.50852950  0.88693860  0.99526990  1
  O  O314  1  0.99426314  0.38264853  0.49321601  1
  O  O315  1  1.00838327  0.36838847  0.98484781  1
  O  O316  1  0.98555042  0.89094457  0.50337412  1
  O  O317  1  0.98692233  0.88203821  1.00593518  1
  O  O318  1  0.47643600  0.49218088  0.36019868  1
  O  O319  1  0.48987102  0.49902439  0.88739448  1
  O  O320  1  0.48680680  0.98995179  0.37098756  1
  O  O321  1  0.49053102  1.00091513  0.87749155  1
  O  O322  1  1.00900732  0.48516556  0.38795194  1
  O  O323  1  1.00115188  0.48376433  0.87348747  1
  O  O324  1  0.98842997  1.01109130  0.38750737  1
  O  O325  1  0.98941016  1.00656925  0.88570860  1
  O  O326  1  -0.00975499  0.01263506  0.11177680  1
  O  O327  1  0.00179663  0.00645001  0.61109762  1
  O  O328  1  0.00001546  0.51049495  0.12529884  1
  O  O329  1  0.00789717  0.49353461  0.60961803  1
  O  O330  1  0.49534523  -0.00403895  0.10795267  1
  O  O331  1  0.51506345  -0.00488596  0.62758283  1
  O  O332  1  0.48418587  0.51191321  0.11682050  1
  O  O333  1  0.51544364  0.50542230  0.62333157  1
  O  O334  1  0.23843153  0.38486427  0.25316094  1
  O  O335  1  0.24155142  0.37268088  0.74309897  1
  O  O336  1  0.25347201  0.89102364  0.25412577  1
  O  O337  1  0.24445706  0.88235392  0.74599585  1
  O  O338  1  0.73553286  0.36442622  0.24830830  1
  O  O339  1  0.73897009  0.38479985  0.74934926  1
  O  O340  1  0.75099898  0.88371026  0.24333368  1
  O  O341  1  0.74502184  0.87754820  0.74175881  1
  O  O342  1  0.25035613  0.11256959  0.26434933  1
  O  O343  1  0.25880971  0.11699795  0.76012156  1
  O  O344  1  0.24038757  0.61205100  0.25257718  1
  O  O345  1  0.26520660  0.63146691  0.75766823  1
  O  O346  1  0.75858620  0.11989548  0.25940286  1
  O  O347  1  0.76243364  0.11901590  0.75608920  1
  O  O348  1  0.76787705  0.63289383  0.23984696  1
  O  O349  1  0.75550253  0.61761056  0.75296718  1
  O  O350  1  0.36133267  0.11726257  0.37565327  1
  O  O351  1  0.37024053  0.12682040  0.86612997  1
  O  O352  1  0.37245732  0.61240487  0.38324414  1
  O  O353  1  0.37292626  0.61637910  0.87089266  1
  O  O354  1  0.87004423  0.11844493  0.36889554  1
  O  O355  1  0.87263459  0.11750152  0.86611030  1
  O  O356  1  0.87490949  0.62271491  0.36131306  1
  O  O357  1  0.86645470  0.59971259  0.91848975  1
  O  O358  1  0.11801443  0.36705233  0.14215410  1
  O  O359  1  0.13733509  0.37139776  0.63442537  1
  O  O360  1  0.11411596  0.88710164  0.13297135  1
  O  O361  1  0.13890977  0.87412190  0.64535746  1
  O  O362  1  0.64065871  0.36143399  0.10394338  1
  O  O363  1  0.62311261  0.39334026  0.62601752  1
  O  O364  1  0.63676384  0.88423775  0.12670667  1
  O  O365  1  0.63523585  0.88079765  0.63182457  1
  O  O366  1  0.13326758  0.26375803  0.26306157  1
  O  O367  1  0.12124227  0.25519658  0.75973472  1
  O  O368  1  0.10725833  0.75044770  0.25364611  1
  O  O369  1  0.11292252  0.75984116  0.75902934  1
  O  O370  1  0.60919930  0.24009494  0.24487011  1
  O  O371  1  0.62278140  0.25700567  0.74770550  1
  O  O372  1  0.60721851  0.75302126  0.24427524  1
  O  O373  1  0.62589699  0.75607860  0.75964375  1
  O  O374  1  0.36952294  0.24497224  0.23486257  1
  O  O375  1  0.38536554  0.24759903  0.74511461  1
  O  O376  1  0.37971220  0.75523456  0.23658223  1
  O  O377  1  0.37477973  0.74356557  0.74292051  1
  O  O378  1  0.86963030  0.23800228  0.24570287  1
  O  O379  1  0.88847187  0.23988423  0.75125631  1
  O  O380  1  0.88661779  0.73943249  0.25058575  1
  O  O381  1  0.88852886  0.75605167  0.74657677  1
  O  O382  1  0.36452803  0.49197040  0.48954308  1
  O  O383  1  0.37795874  0.49136767  0.99474292  1
  O  O384  1  0.37271934  0.99938494  0.48925844  1
  O  O385  1  0.38811360  1.00204423  0.98382723  1
  O  O386  1  0.88010860  0.48622353  0.50236439  1
  O  O387  1  0.86815598  0.53830988  0.97183303  1
  O  O388  1  0.87571350  0.99275958  0.49234572  1
  O  O389  1  0.88148659  0.99501004  0.99277977  1
  O  O390  1  0.11540187  0.00940533  -0.01094760  1
  O  O391  1  0.11023486  -0.00697473  0.48664660  1
  O  O392  1  0.12870711  0.51683005  -0.00300724  1
  O  O393  1  0.11595019  0.49788338  0.50222747  1
  O  O394  1  0.61273952  0.00672229  -0.00545918  1
  O  O395  1  0.63299958  -0.00077454  0.51684805  1
  O  O396  1  0.61326014  0.51254242  -0.00684965  1
  O  O397  1  0.64242760  0.51963756  0.51227957  1
  O  O398  1  0.37292941  0.36789175  0.11193308  1
  O  O399  1  0.36317978  0.37461680  0.62161978  1
  O  O400  1  0.37643629  0.86392286  0.12051513  1
  O  O401  1  0.36279435  0.86608971  0.63267698  1
  O  O402  1  0.88901216  0.35314140  0.12693797  1
  O  O403  1  0.88472432  0.37116929  0.61126411  1
  O  O404  1  0.86273945  0.87447748  0.11480253  1
  O  O405  1  0.86775346  0.86731012  0.61719432  1
  O  O406  1  0.13321469  0.13968777  0.37372922  1
  O  O407  1  0.13585794  0.13061803  0.88132234  1
  O  O408  1  0.12487629  0.64578345  0.36724829  1
  O  O409  1  0.12294003  0.63736399  0.88907024  1
  O  O410  1  0.64169071  0.11562995  0.38943673  1
  O  O411  1  0.63444412  0.13237019  0.87664629  1
  O  O412  1  0.61976798  0.61906915  0.38634107  1
  O  O413  1  0.62553119  0.63564837  0.88769806  1
