# generated using pymatgen
data_V79Zn79O256
_symmetry_space_group_name_H-M   'P 1'
_cell_length_a   16.92474203
_cell_length_b   16.89655046
_cell_length_c   16.90072470
_cell_angle_alpha   90.02387953
_cell_angle_beta   90.13015099
_cell_angle_gamma   89.93642647
_symmetry_Int_Tables_number   1
_chemical_formula_structural   V79Zn79O256
_chemical_formula_sum   'V79 Zn79 O256'
_cell_volume   4833.08028595
_cell_formula_units_Z   1
loop_
 _symmetry_equiv_pos_site_id
 _symmetry_equiv_pos_as_xyz
  1  'x, y, z'
loop_
 _atom_site_type_symbol
 _atom_site_label
 _atom_site_symmetry_multiplicity
 _atom_site_fract_x
 _atom_site_fract_y
 _atom_site_fract_z
 _atom_site_occupancy
  V  V0  1  0.62523748  0.24418706  0.37996063  1
  V  V1  1  0.75417110  0.50358266  0.25094051  1
  V  V2  1  0.63982574  0.75582486  0.37655109  1
  V  V3  1  0.62023378  0.86336869  0.76002298  1
  V  V4  1  0.75158934  0.00649445  0.76141957  1
  V  V5  1  0.74888769  0.12253318  0.38101331  1
  V  V6  1  0.88283901  0.25560053  0.62693822  1
  V  V7  1  0.24746913  0.50033591  0.75138860  1
  V  V8  1  0.38370426  0.12044884  0.75240338  1
  V  V9  1  0.50893078  0.49955998  0.00060669  1
  V  V10  1  0.24722787  0.12410430  0.37280483  1
  V  V11  1  0.12203520  0.12603999  -0.00056959  1
  V  V12  1  0.49838130  0.37590180  0.37507059  1
  V  V13  1  0.65393198  0.63230141  0.49996858  1
  V  V14  1  0.57085562  0.55377754  0.18401506  1
  V  V15  1  0.87098445  0.50665815  0.87328123  1
  V  V16  1  0.11747371  0.62341397  0.50694574  1
  V  V17  1  0.75396345  0.25528384  0.50248261  1
  V  V18  1  0.88064548  0.25132620  0.13230652  1
  V  V19  1  -0.00077947  0.49017408  0.50125628  1
  V  V20  1  0.87552667  0.49958911  0.37807951  1
  V  V21  1  0.24950258  0.12232549  0.87474429  1
  V  V22  1  0.74481733  0.62935225  0.87394466  1
  V  V23  1  0.49645683  0.61366886  0.59099432  1
  V  V24  1  0.38136814  0.12709192  0.24471974  1
  V  V25  1  0.62316052  0.62816396  -0.00174346  1
  V  V26  1  0.50218043  0.36779955  0.86902546  1
  V  V27  1  0.75656944  0.87845002  0.13259085  1
  V  V28  1  -0.00244282  0.87415017  0.37878334  1
  V  V29  1  0.24780567  0.64032478  0.88621874  1
  V  V30  1  0.37632464  0.50074414  0.87463599  1
  V  V31  1  0.24186980  0.00241257  0.74861564  1
  V  V32  1  0.24631724  0.25105192  0.50019062  1
  V  V33  1  0.38771622  0.62694522  0.74575711  1
  V  V34  1  0.12415593  0.50178049  0.62895183  1
  V  V35  1  0.25930308  0.86717588  0.11351781  1
  V  V36  1  0.00198775  0.12703840  0.12992440  1
  V  V37  1  0.38255466  0.87631383  0.49981607  1
  V  V38  1  0.37555390  -0.00065559  0.37399775  1
  V  V39  1  0.24513526  0.61706760  0.35913385  1
  V  V40  1  -0.00836677  0.74895539  0.23889710  1
  V  V41  1  0.87404952  0.87744624  -0.01038738  1
  V  V42  1  0.63573042  0.24593641  0.87220461  1
  V  V43  1  0.62187320  0.00611271  0.12855807  1
  V  V44  1  0.12734079  0.86329803  0.74733882  1
  V  V45  1  0.12179260  0.25095721  0.36365269  1
  V  V46  1  0.74991749  0.86308340  0.62528317  1
  V  V47  1  0.38255885  0.74999473  0.62420556  1
  V  V48  1  0.87036678  -0.00022484  0.37585500  1
  V  V49  1  0.00328954  0.00239035  0.51190044  1
  V  V50  1  0.87088504  0.86193134  0.50834142  1
  V  V51  1  0.24277410  0.38522317  0.13436781  1
  V  V52  1  0.24761739  0.74879277  0.49899141  1
  V  V53  1  0.11963492  0.74913192  0.37427248  1
  V  V54  1  0.00903655  0.51618547  0.00544568  1
  V  V55  1  0.87594977  0.12510486  0.25338217  1
  V  V56  1  0.11914029  0.25741091  0.85977927  1
  V  V57  1  0.01313802  0.87154995  0.87785956  1
  V  V58  1  0.87525447  0.62709687  0.23843660  1
  V  V59  1  0.24656919  0.37613168  0.62920161  1
  V  V60  1  0.48296569  0.87203379  0.87696951  1
  V  V61  1  0.00196813  0.36930230  0.35832296  1
  V  V62  1  0.74876164  0.37597065  0.12241749  1
  V  V63  1  0.49977603  0.87004394  0.36603020  1
  V  V64  1  0.62470154  0.36983677  0.24455497  1
  V  V65  1  0.49224220  0.00610244  -0.00638974  1
  V  V66  1  0.74167551  0.50495027  0.74151644  1
  V  V67  1  0.24681353  0.88628901  0.62212995  1
  V  V68  1  0.62165041  0.37378441  0.73816824  1
  V  V69  1  0.62159293  0.01331908  0.62396967  1
  V  V70  1  0.38461693  0.25206975  0.63620135  1
  V  V71  1  0.37627067  0.38096681  0.49778794  1
  V  V72  1  0.00075793  0.37778191  0.85884246  1
  V  V73  1  -0.02022946  0.73917246  0.74271348  1
  V  V74  1  0.75498464  0.74844995  0.00424760  1
  V  V75  1  0.36416753  0.49590682  0.35829798  1
  V  V76  1  0.37325274  0.37151549  -0.00060697  1
  V  V77  1  0.87912892  0.37531711  -0.00149927  1
  V  V78  1  0.87760412  0.12489167  0.76217478  1
  Zn  Zn79  1  0.13618365  0.11088864  0.51068349  1
  Zn  Zn80  1  0.44950843  0.69386338  0.21601501  1
  Zn  Zn81  1  0.12508956  0.87593427  0.24315594  1
  Zn  Zn82  1  -0.00841318  0.00732096  -0.00759898  1
  Zn  Zn83  1  0.75166231  0.38198480  0.61617180  1
  Zn  Zn84  1  0.63087027  0.12416114  0.00019788  1
  Zn  Zn85  1  0.11986198  -0.00804036  0.12368731  1
  Zn  Zn86  1  0.24640502  0.25265864  0.00070944  1
  Zn  Zn87  1  0.50979312  0.23791572  0.23762683  1
  Zn  Zn88  1  0.75760539  0.23956057  -0.00727654  1
  Zn  Zn89  1  0.37936156  0.24333342  0.11717901  1
  Zn  Zn90  1  0.51645134  0.02253372  0.49843943  1
  Zn  Zn91  1  0.24163707  -0.00041809  0.24485589  1
  Zn  Zn92  1  0.00701313  0.12859164  0.63592869  1
  Zn  Zn93  1  0.62414375  0.87191455  0.24434840  1
  Zn  Zn94  1  0.19416328  0.19476832  0.18079790  1
  Zn  Zn95  1  0.18880583  0.18701294  0.68374810  1
  Zn  Zn96  1  0.17617580  0.69053292  0.16748082  1
  Zn  Zn97  1  0.19373574  0.68524682  0.69057481  1
  Zn  Zn98  1  0.69695182  0.18582568  0.18855887  1
  Zn  Zn99  1  0.69170337  0.18985674  0.69027397  1
  Zn  Zn100  1  0.69320679  0.69625899  0.19268271  1
  Zn  Zn101  1  0.67569921  0.68433292  0.68400841  1
  Zn  Zn102  1  0.30824719  0.30925843  0.30817060  1
  Zn  Zn103  1  0.30855000  0.31107265  0.81579961  1
  Zn  Zn104  1  0.30495803  0.79469916  0.26622828  1
  Zn  Zn105  1  0.31599385  0.81422080  0.80877501  1
  Zn  Zn106  1  0.81315525  0.31415917  0.31456669  1
  Zn  Zn107  1  0.81439732  0.31769396  0.80446891  1
  Zn  Zn108  1  0.81619627  0.81534622  0.31346225  1
  Zn  Zn109  1  0.80767120  0.81132999  0.81186145  1
  Zn  Zn110  1  0.18376161  0.43454485  0.43527740  1
  Zn  Zn111  1  0.18608727  0.44165081  0.94032674  1
  Zn  Zn112  1  0.18758818  0.93599660  0.43449784  1
  Zn  Zn113  1  0.19225544  0.93764505  0.94146289  1
  Zn  Zn114  1  0.68606994  0.43976503  0.43640325  1
  Zn  Zn115  1  0.68729897  0.43523623  0.93525874  1
  Zn  Zn116  1  0.68827553  0.93714041  0.44398769  1
  Zn  Zn117  1  0.68263342  0.93838817  0.94185427  1
  Zn  Zn118  1  0.30571120  0.05366788  0.06227190  1
  Zn  Zn119  1  0.35228180  0.08388754  0.54672063  1
  Zn  Zn120  1  0.31600940  0.56542958  0.06668405  1
  Zn  Zn121  1  0.30899779  0.56361100  0.55609353  1
  Zn  Zn122  1  0.80954590  0.06034909  0.06044804  1
  Zn  Zn123  1  0.81301186  0.06183122  0.57120630  1
  Zn  Zn124  1  0.81484689  0.56039353  0.06100787  1
  Zn  Zn125  1  0.82867449  0.57018304  0.57129200  1
  Zn  Zn126  1  0.43301447  0.42719903  0.18626365  1
  Zn  Zn127  1  0.43944385  0.44188430  0.68334732  1
  Zn  Zn128  1  0.43773594  0.94226159  0.18236040  1
  Zn  Zn129  1  0.43907147  0.94055246  0.69049225  1
  Zn  Zn130  1  0.94136024  0.44031378  0.18434706  1
  Zn  Zn131  1  0.92608178  0.45719940  0.68108357  1
  Zn  Zn132  1  0.93605204  0.94046955  0.18633543  1
  Zn  Zn133  1  0.93408303  0.93425082  0.69511338  1
  Zn  Zn134  1  0.06193797  0.06322653  0.31554605  1
  Zn  Zn135  1  0.06171283  0.05617032  0.81426357  1
  Zn  Zn136  1  0.05182402  0.56867770  0.31830335  1
  Zn  Zn137  1  0.06360223  0.56808432  0.82278337  1
  Zn  Zn138  1  0.56464673  0.05609113  0.31179003  1
  Zn  Zn139  1  0.56610808  0.05595259  0.81192957  1
  Zn  Zn140  1  0.55047173  0.56955840  0.38681732  1
  Zn  Zn141  1  0.56417336  0.56169098  0.81228877  1
  Zn  Zn142  1  0.43860613  0.19325428  0.43303313  1
  Zn  Zn143  1  0.44284748  0.18426408  0.93399328  1
  Zn  Zn144  1  0.41947381  0.70149760  0.40624836  1
  Zn  Zn145  1  0.44242917  0.68249813  0.93477760  1
  Zn  Zn146  1  0.93743999  0.18977356  0.44329224  1
  Zn  Zn147  1  0.94069990  0.19400419  0.93762739  1
  Zn  Zn148  1  0.93147723  0.68063433  0.43646694  1
  Zn  Zn149  1  0.93591601  0.69310793  0.93080625  1
  Zn  Zn150  1  0.06332817  0.31545890  0.05792433  1
  Zn  Zn151  1  0.06373007  0.31400993  0.56162061  1
  Zn  Zn152  1  0.07080516  0.79805445  0.06018418  1
  Zn  Zn153  1  0.05879403  0.81183082  0.56734849  1
  Zn  Zn154  1  0.56045417  0.30476760  0.05825848  1
  Zn  Zn155  1  0.56195468  0.30707431  0.55794394  1
  Zn  Zn156  1  0.56319509  0.81899767  0.05395778  1
  Zn  Zn157  1  0.56787730  0.81263540  0.56329227  1
  O  O158  1  0.11591186  0.13213226  0.11643820  1
  O  O159  1  0.11854787  0.13079643  0.61960672  1
  O  O160  1  0.12878175  0.55652671  0.16893827  1
  O  O161  1  0.13357908  0.61566594  0.61662467  1
  O  O162  1  0.63136383  0.10979953  0.13158472  1
  O  O163  1  0.62599121  0.11291073  0.63594091  1
  O  O164  1  0.62556535  0.61876859  0.12556603  1
  O  O165  1  0.60732389  0.63179333  0.60310032  1
  O  O166  1  0.37693026  0.37579537  0.37822187  1
  O  O167  1  0.38225974  0.38291519  0.87671125  1
  O  O168  1  0.38797733  0.88184812  0.38162604  1
  O  O169  1  0.38459400  0.88701079  0.86316469  1
  O  O170  1  0.89026743  0.38382697  0.36764658  1
  O  O171  1  0.88027075  0.38014507  0.88152917  1
  O  O172  1  0.87952287  0.88125855  0.38563813  1
  O  O173  1  0.87731195  0.87346458  0.88664390  1
  O  O174  1  0.25652063  0.00917147  0.37630641  1
  O  O175  1  0.24462320  0.01237058  0.86564914  1
  O  O176  1  0.24449528  0.50913555  0.37003722  1
  O  O177  1  0.26244581  0.50306853  0.86851202  1
  O  O178  1  0.76066391  0.00749332  0.38505262  1
  O  O179  1  0.74291189  -0.00418376  0.86016216  1
  O  O180  1  0.76181061  0.48768655  0.35937681  1
  O  O181  1  0.75186563  0.50966314  0.87295493  1
  O  O182  1  0.25988154  0.48634399  0.12088113  1
  O  O183  1  0.24637800  0.49531856  0.63081877  1
  O  O184  1  0.23949828  0.98767345  0.12521403  1
  O  O185  1  0.25586635  0.98891546  0.63007741  1
  O  O186  1  0.75925098  0.48654141  0.13659179  1
  O  O187  1  0.74883795  0.50150029  0.63905804  1
  O  O188  1  0.73801908  0.98514597  0.11906235  1
  O  O189  1  0.73928170  0.99324353  0.63498392  1
  O  O190  1  0.00307314  0.37701868  0.25877812  1
  O  O191  1  -0.00859179  0.39141828  0.76105373  1
  O  O192  1  -0.01154609  0.86310793  0.26431631  1
  O  O193  1  0.00785917  0.86879970  0.75878182  1
  O  O194  1  0.51124838  0.37314233  0.25598898  1
  O  O195  1  0.51239875  0.38683900  0.75549682  1
  O  O196  1  0.49798748  0.87754904  0.26353719  1
  O  O197  1  0.51125994  0.88351518  0.76327588  1
  O  O198  1  0.48528333  0.12079322  0.25650351  1
  O  O199  1  0.48183887  0.11786616  0.75746103  1
  O  O200  1  0.51949500  0.60682139  0.25373389  1
  O  O201  1  0.49051704  0.61718345  0.74062109  1
  O  O202  1  0.98836118  0.12437917  0.24323674  1
  O  O203  1  0.98292247  0.11076205  0.75017337  1
  O  O204  1  0.98837340  0.63675390  0.24980105  1
  O  O205  1  1.00269529  0.64245430  0.76281758  1
  O  O206  1  0.37710539  0.26241197  -0.00914182  1
  O  O207  1  0.36319395  0.26112681  0.50752222  1
  O  O208  1  0.41302576  0.71497471  0.06901744  1
  O  O209  1  0.36460055  0.75798489  0.49965320  1
  O  O210  1  0.87530241  0.26144477  0.00806566  1
  O  O211  1  0.86627011  0.24844057  0.51408215  1
  O  O212  1  0.86402074  0.75959870  -0.00086347  1
  O  O213  1  0.88029426  0.76225813  0.49776764  1
  O  O214  1  0.13874981  0.25289130  0.49307122  1
  O  O215  1  0.12372387  0.23837769  0.98875321  1
  O  O216  1  0.12721797  0.74360683  0.49523766  1
  O  O217  1  0.11971663  0.69858981  1.07149480  1
  O  O218  1  0.63200458  0.24986433  0.48639761  1
  O  O219  1  0.62873989  0.25121715  0.98243819  1
  O  O220  1  0.62747106  0.74205511  0.49258655  1
  O  O221  1  0.63247553  0.73453220  1.00697304  1
  O  O222  1  0.49224935  0.25183880  0.12727287  1
  O  O223  1  0.48275655  0.25546645  0.62306292  1
  O  O224  1  0.47835040  0.75037925  0.11290803  1
  O  O225  1  0.48670200  0.73771630  0.61053284  1
  O  O226  1  0.98961375  0.24211254  0.11910229  1
  O  O227  1  0.98622918  0.25282840  0.61940107  1
  O  O228  1  0.98661438  0.76231305  0.14287145  1
  O  O229  1  1.00046926  0.75419329  0.64333679  1
  O  O230  1  0.00501055  0.26212313  0.38150408  1
  O  O231  1  0.01114650  0.26106802  0.87338811  1
  O  O232  1  0.00467964  0.75594717  0.37750368  1
  O  O233  1  -0.00617104  0.76565196  0.86197544  1
  O  O234  1  0.50902324  0.25661098  0.36767869  1
  O  O235  1  0.50971768  0.26351094  0.87413070  1
  O  O236  1  0.51472890  0.76790600  0.38446083  1
  O  O237  1  0.48882656  0.76976898  0.88567060  1
  O  O238  1  0.25765119  0.13497091  0.49039445  1
  O  O239  1  0.24208507  0.12512352  0.98976190  1
  O  O240  1  0.23773862  0.63305752  0.49402632  1
  O  O241  1  0.26905046  0.62641829  0.98445314  1
  O  O242  1  0.75696020  0.13528215  0.48786322  1
  O  O243  1  0.74479009  0.12829999  1.00225098  1
  O  O244  1  0.75175571  0.63109384  0.51655350  1
  O  O245  1  0.74323254  0.62862530  0.99699313  1
  O  O246  1  0.26369395  0.37681464  -0.00355206  1
  O  O247  1  0.25579418  0.36946331  0.50668839  1
  O  O248  1  0.24497601  0.86734621  0.01190249  1
  O  O249  1  0.25421536  0.86592058  0.50328414  1
  O  O250  1  0.76073369  0.37778396  0.00790738  1
  O  O251  1  0.74336950  0.36365123  0.49981921  1
  O  O252  1  0.75932276  0.86768281  0.00155692  1
  O  O253  1  0.75601910  0.87765271  0.51720918  1
  O  O254  1  0.11481281  0.51341461  0.22863135  1
  O  O255  1  0.13850426  0.50964903  0.74289730  1
  O  O256  1  0.12053603  0.99578332  0.24699457  1
  O  O257  1  0.13585317  0.98741081  0.75162833  1
  O  O258  1  0.63325542  0.49206383  0.24401283  1
  O  O259  1  0.63341573  0.48835511  0.75497667  1
  O  O260  1  0.61848042  0.99069684  0.23440092  1
  O  O261  1  0.63501909  0.99199952  0.74234938  1
  O  O262  1  0.37409897  0.00803153  0.26275761  1
  O  O263  1  0.36243326  0.01505808  0.74268979  1
  O  O264  1  0.37333348  0.49567127  0.25861860  1
  O  O265  1  0.37058321  0.50636822  0.75596834  1
  O  O266  1  0.88041185  0.00788687  0.26611594  1
  O  O267  1  0.86082400  0.00866339  0.74794868  1
  O  O268  1  0.87291428  0.50933637  0.25358600  1
  O  O269  1  0.84966941  0.48845982  0.76753225  1
  O  O270  1  0.11273986  0.36690800  0.37528859  1
  O  O271  1  0.11885253  0.36422313  0.87749331  1
  O  O272  1  0.11350084  0.86362709  0.37666396  1
  O  O273  1  0.11790132  0.87302151  0.87049023  1
  O  O274  1  0.61752659  0.36885584  0.36624549  1
  O  O275  1  0.61824917  0.36960671  0.86639299  1
  O  O276  1  0.61376502  0.87542850  0.37852205  1
  O  O277  1  0.62625891  0.87298378  0.86242605  1
  O  O278  1  0.36443863  0.11908770  0.14314640  1
  O  O279  1  0.36280404  0.14363296  0.64341573  1
  O  O280  1  0.38964930  0.64810907  0.11701436  1
  O  O281  1  0.38296178  0.62932480  0.62220621  1
  O  O282  1  0.88012112  0.13086407  0.13321994  1
  O  O283  1  0.87962068  0.13590383  0.63339494  1
  O  O284  1  0.87250568  0.62409199  0.13886818  1
  O  O285  1  0.90501383  0.56654838  0.64747165  1
  O  O286  1  0.26154633  0.26143842  0.11694190  1
  O  O287  1  0.25722417  0.26070214  0.61967085  1
  O  O288  1  0.26047251  0.76689610  0.15071944  1
  O  O289  1  0.25913643  0.75412483  0.61307941  1
  O  O290  1  0.76209028  0.26122323  0.12425190  1
  O  O291  1  0.75446590  0.25086698  0.61468033  1
  O  O292  1  0.74603053  0.76320027  0.11468996  1
  O  O293  1  0.74501458  0.76389400  0.63327716  1
  O  O294  1  0.24307857  0.24443535  0.38133954  1
  O  O295  1  0.23585676  0.24356180  0.87625017  1
  O  O296  1  0.23538867  0.73882507  0.38337305  1
  O  O297  1  0.26216845  0.73932023  0.87191850  1
  O  O298  1  0.74556897  0.24529654  0.38205452  1
  O  O299  1  0.73898551  0.26088922  0.87356123  1
  O  O300  1  0.73796784  0.77249665  0.38333962  1
  O  O301  1  0.75216586  0.73763598  0.88561271  1
  O  O302  1  0.00375633  0.12615975  0.00753834  1
  O  O303  1  -0.00289555  0.10732435  0.50043572  1
  O  O304  1  -0.00885426  0.61487475  -0.00917730  1
  O  O305  1  0.01188939  0.61219084  0.49224013  1
  O  O306  1  0.51248962  0.11243693  -0.01142471  1
  O  O307  1  0.45826088  0.11646808  0.50956354  1
  O  O308  1  0.51061413  0.61145002  -0.00660029  1
  O  O309  1  0.49048253  0.62353074  0.48921753  1
  O  O310  1  0.48902892  0.36514125  0.48638739  1
  O  O311  1  0.49571692  0.38315859  0.99055050  1
  O  O312  1  0.48907512  0.87726192  0.49845481  1
  O  O313  1  0.50239860  0.88791720  0.98546572  1
  O  O314  1  1.00490210  0.38650440  0.49038370  1
  O  O315  1  0.98951371  0.38268842  0.99064785  1
  O  O316  1  0.99237391  0.88035268  0.49577218  1
  O  O317  1  0.99298884  0.86258760  0.99002730  1
  O  O318  1  0.48266888  0.48308358  0.37280041  1
  O  O319  1  0.49407284  0.49218589  0.88051412  1
  O  O320  1  0.49411314  0.99083200  0.38175258  1
  O  O321  1  0.50793913  0.99056328  0.88580227  1
  O  O322  1  0.99798730  0.48744257  0.37914284  1
  O  O323  1  0.98940331  0.49644937  0.88082537  1
  O  O324  1  0.99101578  0.98956319  0.38422074  1
  O  O325  1  1.00000691  0.97820448  0.87669381  1
  O  O326  1  -0.00156145  0.01447416  0.11971001  1
  O  O327  1  -0.00625024  -0.00652905  0.61293671  1
  O  O328  1  -0.00848396  0.49963072  0.10448319  1
  O  O329  1  0.02178398  0.48306966  0.61620879  1
  O  O330  1  0.51361409  -0.00793320  0.11064812  1
  O  O331  1  0.51743530  -0.00655850  0.62578926  1
  O  O332  1  0.50511998  0.49957951  0.12266687  1
  O  O333  1  0.49040475  0.51513112  0.60989422  1
  O  O334  1  0.25257884  0.37306494  0.23490934  1
  O  O335  1  0.25975433  0.38873051  0.74147353  1
  O  O336  1  0.24229881  0.88270980  0.24914220  1
  O  O337  1  0.24638785  0.88211155  0.74201828  1
  O  O338  1  0.74261341  0.38053740  0.24403300  1
  O  O339  1  0.73530238  0.38634788  0.74715983  1
  O  O340  1  0.75370122  0.87206720  0.23518780  1
  O  O341  1  0.74217885  0.88271513  0.74395430  1
  O  O342  1  0.25628608  0.12419042  0.26114912  1
  O  O343  1  0.24993195  0.11835554  0.75720426  1
  O  O344  1  0.23546583  0.63400879  0.26206391  1
  O  O345  1  0.26585112  0.61598588  0.75368446  1
  O  O346  1  0.76572566  0.12859327  0.26489322  1
  O  O347  1  0.75815143  0.11338852  0.74938292  1
  O  O348  1  0.76108979  0.61585160  0.24711041  1
  O  O349  1  0.73239613  0.61296587  0.75739382  1
  O  O350  1  0.36535006  0.11821892  0.36716982  1
  O  O351  1  0.36128647  0.13923135  0.86028889  1
  O  O352  1  0.35127004  0.60883230  0.38243608  1
  O  O353  1  0.37559195  0.61698005  0.86530550  1
  O  O354  1  0.87175413  0.11974113  0.37226873  1
  O  O355  1  0.87606768  0.13587802  0.86184966  1
  O  O356  1  0.88110694  0.60751637  0.36394777  1
  O  O357  1  0.85950179  0.61557411  0.87920166  1
  O  O358  1  0.14382592  0.37172906  0.11331032  1
  O  O359  1  0.14097359  0.38245621  0.62053672  1
  O  O360  1  0.13058211  0.87296770  0.12440747  1
  O  O361  1  0.13834802  0.86965559  0.63131929  1
  O  O362  1  0.63547359  0.36528938  0.13364077  1
  O  O363  1  0.62195703  0.37094385  0.63507426  1
  O  O364  1  0.63588047  0.87863935  0.12318292  1
  O  O365  1  0.63434817  0.87973064  0.63473515  1
  O  O366  1  0.12777288  0.23996479  0.26489531  1
  O  O367  1  0.12741637  0.25050095  0.76118842  1
  O  O368  1  0.10422473  0.74718314  0.25968088  1
  O  O369  1  0.12989290  0.76119755  0.74952560  1
  O  O370  1  0.63042724  0.25666039  0.25957094  1
  O  O371  1  0.63077035  0.26686581  0.75697361  1
  O  O372  1  0.62832280  0.75524917  0.26749217  1
  O  O373  1  0.62181060  0.76402341  0.74650550  1
  O  O374  1  0.37733874  0.23294352  0.25456346  1
  O  O375  1  0.37374520  0.24884074  0.74142433  1
  O  O376  1  0.38957808  0.73554519  0.29694082  1
  O  O377  1  0.36995122  0.73995449  0.73312784  1
  O  O378  1  0.87279793  0.24331701  0.24115412  1
  O  O379  1  0.86485100  0.23627274  0.73797004  1
  O  O380  1  0.88025371  0.73568779  0.26151671  1
  O  O381  1  0.87958248  0.74937889  0.74960758  1
  O  O382  1  0.36237718  0.48459952  0.48876282  1
  O  O383  1  0.38831718  0.49422916  0.99116059  1
  O  O384  1  0.36443401  0.98468317  0.48869686  1
  O  O385  1  0.39268467  1.01094289  1.00197720  1
  O  O386  1  0.88662933  0.50466359  0.48864013  1
  O  O387  1  0.87666816  0.49203116  0.98959645  1
  O  O388  1  0.88344144  0.99080497  0.49406276  1
  O  O389  1  0.87596117  0.98175009  1.00320616  1
  O  O390  1  0.11954196  0.01650233  -0.00340173  1
  O  O391  1  0.10788895  -0.00590427  0.49508344  1
  O  O392  1  0.10836482  0.50267195  -0.00771976  1
  O  O393  1  0.12204148  0.50602897  0.50712070  1
  O  O394  1  0.61954106  0.00199230  0.01164818  1
  O  O395  1  0.62860921  0.00212800  0.51683745  1
  O  O396  1  0.61705651  0.50527976  0.00022890  1
  O  O397  1  0.62908753  0.53047738  0.47655733  1
  O  O398  1  0.36832015  0.37403248  0.11057195  1
  O  O399  1  0.36872976  0.36966711  0.61917162  1
  O  O400  1  0.35890505  0.88525225  0.12710607  1
  O  O401  1  0.36945566  0.86832645  0.61933724  1
  O  O402  1  0.87123460  0.36865099  0.11964523  1
  O  O403  1  0.86892165  0.35991127  0.63820221  1
  O  O404  1  0.86202414  0.87941963  0.11704298  1
  O  O405  1  0.85921537  0.87951243  0.62275350  1
  O  O406  1  0.13263040  0.13079103  0.38501106  1
  O  O407  1  0.12733505  0.13470851  0.87757549  1
  O  O408  1  0.12899315  0.62924520  0.38345121  1
  O  O409  1  0.14973512  0.62332543  0.87297768  1
  O  O410  1  0.63538714  0.13268669  0.36566574  1
  O  O411  1  0.62199954  0.14584036  0.86114294  1
  O  O412  1  0.63516272  0.64677977  0.38472089  1
  O  O413  1  0.63243050  0.62021323  0.88627207  1
