# generated using pymatgen
data_V79Zn79O256
_symmetry_space_group_name_H-M   'P 1'
_cell_length_a   16.93689316
_cell_length_b   16.95512159
_cell_length_c   16.93000614
_cell_angle_alpha   90.23002625
_cell_angle_beta   90.03416361
_cell_angle_gamma   89.80319950
_symmetry_Int_Tables_number   1
_chemical_formula_structural   V79Zn79O256
_chemical_formula_sum   'V79 Zn79 O256'
_cell_volume   4861.67179315
_cell_formula_units_Z   1
loop_
 _symmetry_equiv_pos_site_id
 _symmetry_equiv_pos_as_xyz
  1  'x, y, z'
loop_
 _atom_site_type_symbol
 _atom_site_label
 _atom_site_symmetry_multiplicity
 _atom_site_fract_x
 _atom_site_fract_y
 _atom_site_fract_z
 _atom_site_occupancy
  V  V0  1  0.11677845  0.88043598  0.75752928  1
  V  V1  1  0.87888822  0.24739319  0.12201279  1
  V  V2  1  0.24353058  0.38499735  0.13015073  1
  V  V3  1  0.87902867  0.12764104  0.24447576  1
  V  V4  1  0.74934321  0.50516405  0.25764494  1
  V  V5  1  0.36290062  0.61877706  0.25097745  1
  V  V6  1  0.01222016  0.62953707  0.60886882  1
  V  V7  1  0.11788305  -0.00044637  0.12588489  1
  V  V8  1  0.50461390  0.62236812  0.12250569  1
  V  V9  1  0.49664296  0.24507087  0.24568266  1
  V  V10  1  0.62356563  0.49771641  0.11957959  1
  V  V11  1  0.25818170  0.25838944  0.49858537  1
  V  V12  1  0.74828389  0.12954574  0.88452442  1
  V  V13  1  0.37562634  0.12180043  0.24729463  1
  V  V14  1  0.62895348  0.37336542  0.73638658  1
  V  V15  1  0.62214181  0.24859247  0.37420317  1
  V  V16  1  0.49543151  0.12278667  0.62711464  1
  V  V17  1  0.24334497  0.61797438  0.87616154  1
  V  V18  1  0.62598338  0.12380446  0.50162927  1
  V  V19  1  0.25398464  0.86650649  0.63160341  1
  V  V20  1  0.74623717  -0.00401429  0.75164976  1
  V  V21  1  0.25195378  0.12366881  0.88529282  1
  V  V22  1  0.50477238  0.86915105  0.87780398  1
  V  V23  1  0.37496518  -0.00699244  0.37905704  1
  V  V24  1  0.49313246  0.37787835  0.37988685  1
  V  V25  1  0.74873091  0.25939163  0.50383046  1
  V  V26  1  0.87439315  0.12176463  0.74217501  1
  V  V27  1  0.24168051  0.74801862  0.48889929  1
  V  V28  1  0.00125069  0.37109952  0.87519537  1
  V  V29  1  0.73883894  0.87133585  0.11463126  1
  V  V30  1  0.36328189  0.50040834  0.37740598  1
  V  V31  1  0.08509334  0.76620527  0.32961104  1
  V  V32  1  0.00123243  0.25361754  0.25203733  1
  V  V33  1  0.49045524  0.62914130  0.61612779  1
  V  V34  1  0.48268651  0.74952557  0.74955643  1
  V  V35  1  0.50291664  -0.00450610  0.49910579  1
  V  V36  1  0.88165041  0.87151880  -0.00286809  1
  V  V37  1  0.24955708  0.25110362  0.00624314  1
  V  V38  1  0.87368211  0.37140435  -0.00073996  1
  V  V39  1  0.00646041  0.50165841  0.01236740  1
  V  V40  1  0.48809502  0.49179998  -0.00724189  1
  V  V41  1  0.88867201  0.37716654  0.49275319  1
  V  V42  1  0.51419639  0.86728976  0.37408928  1
  V  V43  1  0.37194282  0.74848477  0.12201142  1
  V  V44  1  0.37997704  0.12703668  0.74894485  1
  V  V45  1  0.87606778  0.74812701  0.62286411  1
  V  V46  1  0.12586958  0.62662872  0.01608453  1
  V  V47  1  0.37945903  0.26013028  0.62028691  1
  V  V48  1  0.38351934  0.00105139  0.88146105  1
  V  V49  1  0.10940295  0.11738968  0.00348072  1
  V  V50  1  0.89057303  -0.00472573  0.87749603  1
  V  V51  1  0.24999376  -0.00017070  0.74754177  1
  V  V52  1  0.87405967  0.25731329  0.62548966  1
  V  V53  1  0.87606875  0.50980068  0.86734572  1
  V  V54  1  0.37942729  0.87522053  0.00154839  1
  V  V55  1  0.62696304  -0.00182330  0.62646832  1
  V  V56  1  0.62250624  0.37221367  0.24876426  1
  V  V57  1  0.12165022  0.24565366  0.87795995  1
  V  V58  1  0.24666503  0.11859069  0.38403422  1
  V  V59  1  0.64374174  0.62708683  0.49055712  1
  V  V60  1  0.90439774  0.61352699  0.24189228  1
  V  V61  1  0.73925201  -0.00252655  0.23908806  1
  V  V62  1  0.37053160  0.25243504  0.12745596  1
  V  V63  1  0.25129200  0.87561299  0.12240603  1
  V  V64  1  0.00173136  0.74215031  0.76274677  1
  V  V65  1  0.60155938  0.12805868  0.00266441  1
  V  V66  1  0.12210005  0.24755455  0.37467149  1
  V  V67  1  0.36959937  0.60327341  0.75816039  1
  V  V68  1  0.74949310  0.12571195  0.37297980  1
  V  V69  1  0.62080167  0.25756933  0.87224119  1
  V  V70  1  0.62495602  0.86047911  0.75151922  1
  V  V71  1  0.88466748  0.87527585  0.49785508  1
  V  V72  1  0.74958191  0.36741094  0.12091206  1
  V  V73  1  0.12307651  0.38700014  0.25359114  1
  V  V74  1  0.51575861  0.74705468  0.25420238  1
  V  V75  1  -0.00271698  0.24297781  0.74958690  1
  V  V76  1  0.24813539  -0.00845165  0.24902071  1
  V  V77  1  0.37700347  0.86815182  0.50872791  1
  V  V78  1  0.88533550  -0.00402781  0.37436551  1
  Zn  Zn79  1  0.13516488  0.51348700  0.63970739  1
  Zn  Zn80  1  0.01968417  0.00872135  0.52258758  1
  Zn  Zn81  1  0.71787693  0.77692477  0.43464828  1
  Zn  Zn82  1  0.06424105  0.17816635  0.56448095  1
  Zn  Zn83  1  0.85760691  0.50569631  0.39206317  1
  Zn  Zn84  1  0.12997742  0.75795121  0.89321494  1
  Zn  Zn85  1  0.49945871  0.49722194  0.50234154  1
  Zn  Zn86  1  0.63355185  0.50706335  0.62761283  1
  Zn  Zn87  1  0.74553703  0.86471709  0.61373788  1
  Zn  Zn88  1  0.14894707  0.39183918  0.73998705  1
  Zn  Zn89  1  0.48141445  0.38344522  0.86545503  1
  Zn  Zn90  1  0.76248899  0.49349643  0.75054923  1
  Zn  Zn91  1  0.74730486  0.73745294  -0.00193188  1
  Zn  Zn92  1  0.60388873  0.00309558  0.11823899  1
  Zn  Zn93  1  0.63182270  0.62759979  -0.01293643  1
  Zn  Zn94  1  0.18791308  0.18064956  0.18896750  1
  Zn  Zn95  1  0.20255790  0.21059723  0.69944030  1
  Zn  Zn96  1  0.18445030  0.69283869  0.19126988  1
  Zn  Zn97  1  0.18918244  0.69210946  0.69356528  1
  Zn  Zn98  1  0.68752414  0.18506657  0.18193451  1
  Zn  Zn99  1  0.68999706  0.18737624  0.68888981  1
  Zn  Zn100  1  0.73561118  0.72143382  0.24328056  1
  Zn  Zn101  1  0.69395833  0.67037997  0.67284518  1
  Zn  Zn102  1  0.30651137  0.31541753  0.31382758  1
  Zn  Zn103  1  0.31112974  0.31915570  0.80832354  1
  Zn  Zn104  1  0.31976084  0.80915000  0.31006833  1
  Zn  Zn105  1  0.30673258  0.80823656  0.82259946  1
  Zn  Zn106  1  0.81191697  0.31536453  0.31356380  1
  Zn  Zn107  1  0.80859720  0.31434439  0.81165333  1
  Zn  Zn108  1  0.88061800  0.79381097  0.31056376  1
  Zn  Zn109  1  0.81556980  0.80974543  0.80979623  1
  Zn  Zn110  1  0.21076849  0.46665497  0.47203917  1
  Zn  Zn111  1  0.18914045  0.43752169  0.93875567  1
  Zn  Zn112  1  0.17781339  0.91782637  0.43647933  1
  Zn  Zn113  1  0.19098066  0.94004526  0.93964903  1
  Zn  Zn114  1  0.67737495  0.43938712  0.44097460  1
  Zn  Zn115  1  0.69172578  0.44313648  0.93532111  1
  Zn  Zn116  1  0.69608484  0.94331283  0.43560231  1
  Zn  Zn117  1  0.68241398  0.94280125  0.93887507  1
  Zn  Zn118  1  0.43298684  0.06753138  0.06269938  1
  Zn  Zn119  1  0.19692460  0.05876261  0.56536198  1
  Zn  Zn120  1  0.31007752  0.56451805  0.05929361  1
  Zn  Zn121  1  0.31179724  0.56761667  0.56690536  1
  Zn  Zn122  1  0.81515231  0.05916035  0.05926939  1
  Zn  Zn123  1  0.81651040  0.06234531  0.56191421  1
  Zn  Zn124  1  0.81212276  0.56161379  0.06540846  1
  Zn  Zn125  1  0.81739004  0.56224644  0.57448250  1
  Zn  Zn126  1  0.43380759  0.43578740  0.18641376  1
  Zn  Zn127  1  0.44873541  0.43842868  0.68800326  1
  Zn  Zn128  1  0.44105813  0.93037356  0.19315458  1
  Zn  Zn129  1  0.43810094  0.93983439  0.69080485  1
  Zn  Zn130  1  0.93526434  0.43957848  0.18985052  1
  Zn  Zn131  1  0.96881141  0.43324801  0.67836070  1
  Zn  Zn132  1  0.92356116  0.94666920  0.17566515  1
  Zn  Zn133  1  0.93393551  0.93219545  0.68605743  1
  Zn  Zn134  1  0.06448128  0.06577072  0.30969106  1
  Zn  Zn135  1  0.06610826  0.06418682  0.70285370  1
  Zn  Zn136  1  0.08510522  0.58089080  0.31842459  1
  Zn  Zn137  1  0.06130243  0.56198593  0.81823238  1
  Zn  Zn138  1  0.55919100  0.05997541  0.31244295  1
  Zn  Zn139  1  0.56460106  0.06116870  0.81472873  1
  Zn  Zn140  1  0.55970180  0.56260645  0.31219166  1
  Zn  Zn141  1  0.56316251  0.55908382  0.80486746  1
  Zn  Zn142  1  0.43713139  0.18345872  0.43605937  1
  Zn  Zn143  1  0.42459915  0.22045386  0.92185388  1
  Zn  Zn144  1  0.42712525  0.68904803  0.43121634  1
  Zn  Zn145  1  0.43875519  0.68347836  0.93615900  1
  Zn  Zn146  1  0.93582862  0.18643209  0.43510452  1
  Zn  Zn147  1  0.93301191  0.18240814  0.93635795  1
  Zn  Zn148  1  0.93703783  0.68228533  0.43040292  1
  Zn  Zn149  1  0.93756350  0.68812727  0.94654119  1
  Zn  Zn150  1  0.06290162  0.31272736  0.06732004  1
  Zn  Zn151  1  0.08709995  0.34672623  0.54478457  1
  Zn  Zn152  1  0.05957992  0.81224275  0.07892816  1
  Zn  Zn153  1  0.06537417  0.81959297  0.57079098  1
  Zn  Zn154  1  0.55992016  0.30897764  0.05702973  1
  Zn  Zn155  1  0.56067199  0.31025442  0.56209748  1
  Zn  Zn156  1  0.56704918  0.80692068  0.06142074  1
  Zn  Zn157  1  0.56470005  0.80458133  0.56460757  1
  O  O158  1  0.13088304  0.11271809  0.11293998  1
  O  O159  1  0.13853372  0.13110904  0.63837292  1
  O  O160  1  0.13673984  0.61935706  0.11386798  1
  O  O161  1  0.11592546  0.63124495  0.62978277  1
  O  O162  1  0.62142820  0.13345468  0.10494413  1
  O  O163  1  0.61643381  0.12092167  0.62213643  1
  O  O164  1  0.61024098  0.60752471  0.13202244  1
  O  O165  1  0.60578815  0.62849108  0.60970695  1
  O  O166  1  0.38204669  0.38920350  0.36068549  1
  O  O167  1  0.38680541  0.32728518  0.88370631  1
  O  O168  1  0.38689408  0.87984808  0.38069394  1
  O  O169  1  0.38089157  0.88141361  0.88297016  1
  O  O170  1  0.86973371  0.37798131  0.38947478  1
  O  O171  1  0.88264858  0.37077216  0.88564931  1
  O  O172  1  0.87646389  0.89265541  0.37695393  1
  O  O173  1  0.86647973  0.88741902  0.88270545  1
  O  O174  1  0.25717465  -0.00032808  0.36862048  1
  O  O175  1  0.26307233  0.00745788  0.87148858  1
  O  O176  1  0.26325275  0.49544885  0.37489241  1
  O  O177  1  0.24802280  0.51540154  0.88055721  1
  O  O178  1  0.75454849  0.01051769  0.36031016  1
  O  O179  1  0.74438574  0.01251445  0.86388368  1
  O  O180  1  0.73966453  0.49165321  0.36048699  1
  O  O181  1  0.77127769  0.49570765  0.87288929  1
  O  O182  1  0.25393463  0.48248285  0.11929568  1
  O  O183  1  0.22819012  0.49553452  0.57882424  1
  O  O184  1  0.24458248  0.98915874  0.13697759  1
  O  O185  1  0.25431636  0.99237944  0.64327350  1
  O  O186  1  0.73958118  0.48353254  0.13667030  1
  O  O187  1  0.74180297  0.56005310  0.66038683  1
  O  O188  1  0.74288280  1.00823636  0.13238623  1
  O  O189  1  0.74591463  1.00138110  0.63695932  1
  O  O190  1  0.01234514  0.36660392  0.24656146  1
  O  O191  1  -0.00552559  0.35709660  0.76708150  1
  O  O192  1  -0.03446971  0.84404522  0.21707654  1
  O  O193  1  0.01464851  0.87417090  0.75257414  1
  O  O194  1  0.50664280  0.36648744  0.25507945  1
  O  O195  1  0.52169170  0.38072641  0.75669290  1
  O  O196  1  0.49824048  0.85591336  0.25880785  1
  O  O197  1  0.50453862  0.86618357  0.75471592  1
  O  O198  1  0.48929070  0.13651428  0.26159099  1
  O  O199  1  0.49243223  0.11678080  0.74105765  1
  O  O200  1  0.49340005  0.63234737  0.24253130  1
  O  O201  1  0.48760772  0.63011303  0.74858266  1
  O  O202  1  0.98511386  0.13378770  0.25106793  1
  O  O203  1  0.98299849  0.13195652  0.76059284  1
  O  O204  1  1.00500638  0.61112800  0.24214576  1
  O  O205  1  1.00477201  0.64165121  0.74726614  1
  O  O206  1  0.36186482  0.24118646  0.01909482  1
  O  O207  1  0.36856206  0.24755529  0.50357886  1
  O  O208  1  0.38334689  0.75517787  0.01457373  1
  O  O209  1  0.37129678  0.76540716  0.49769072  1
  O  O210  1  0.88250044  0.25922243  0.00976903  1
  O  O211  1  0.86807765  0.25963968  0.50414768  1
  O  O212  1  0.86263910  0.76614165  -0.01197317  1
  O  O213  1  0.88246410  0.76095368  0.51195709  1
  O  O214  1  0.13347170  0.25279655  0.49540704  1
  O  O215  1  0.12810733  0.23597111  1.00135791  1
  O  O216  1  0.14265736  0.76573279  0.50594124  1
  O  O217  1  0.10549126  0.73235636  1.00779363  1
  O  O218  1  0.63106396  0.24284519  0.49505470  1
  O  O219  1  0.62234047  0.23921379  0.98568539  1
  O  O220  1  0.63578740  0.73712866  0.50254158  1
  O  O221  1  0.63104280  0.74194251  0.99814445  1
  O  O222  1  0.48799297  0.25967169  0.13816803  1
  O  O223  1  0.48764881  0.23600764  0.61220325  1
  O  O224  1  0.49478926  0.74238898  0.13615208  1
  O  O225  1  0.49826101  0.73728835  0.63541486  1
  O  O226  1  0.98757445  0.25418536  0.13598921  1
  O  O227  1  0.99148395  0.24464264  0.64029052  1
  O  O228  1  0.97249611  0.79256034  0.15676772  1
  O  O229  1  0.99631128  0.74758255  0.63472240  1
  O  O230  1  0.00798555  0.24493646  0.36353308  1
  O  O231  1  0.00286481  0.25244933  0.87523156  1
  O  O232  1  -0.01685387  0.76135840  0.35872148  1
  O  O233  1  0.00060530  0.74696823  0.86541015  1
  O  O234  1  0.50119207  0.25654229  0.36624156  1
  O  O235  1  0.52187981  0.24485557  0.86451798  1
  O  O236  1  0.49637850  0.75240066  0.36221917  1
  O  O237  1  0.49410524  0.76060928  0.86564364  1
  O  O238  1  0.25100637  0.13074261  0.48716799  1
  O  O239  1  0.24826006  0.13346724  0.99135826  1
  O  O240  1  0.26120691  0.65144306  0.50688679  1
  O  O241  1  0.23563856  0.62203671  0.99291385  1
  O  O242  1  0.74681936  0.13079167  0.48950025  1
  O  O243  1  0.74991965  0.12282845  0.98515254  1
  O  O244  1  0.74349730  0.61820682  0.49527075  1
  O  O245  1  0.74702954  0.62176328  1.00345301  1
  O  O246  1  0.23550870  0.36020490  0.01658462  1
  O  O247  1  0.25022316  0.35592777  0.48878174  1
  O  O248  1  0.26824165  0.88049814  0.00904017  1
  O  O249  1  0.26018417  0.87040381  0.51243416  1
  O  O250  1  0.76173068  0.38214426  0.01071499  1
  O  O251  1  0.74667874  0.36104739  0.49540597  1
  O  O252  1  0.74843465  0.87416390  0.00413526  1
  O  O253  1  0.76226731  0.87119898  0.49538947  1
  O  O254  1  0.12201797  0.48460543  0.26423448  1
  O  O255  1  0.12818998  0.49986180  0.75478853  1
  O  O256  1  0.13627557  1.00906326  0.23718918  1
  O  O257  1  0.13738993  0.98944257  0.76105406  1
  O  O258  1  0.62627697  0.48732260  0.24218346  1
  O  O259  1  0.63239923  0.48618581  0.74923388  1
  O  O260  1  0.63688905  1.01241764  0.24445156  1
  O  O261  1  0.63002466  0.99202373  0.74471857  1
  O  O262  1  0.36978802  0.00351527  0.26079771  1
  O  O263  1  0.36958957  0.00805873  0.76032450  1
  O  O264  1  0.37935063  0.51306351  0.25358506  1
  O  O265  1  0.37798970  0.50417624  0.75546598  1
  O  O266  1  0.86472246  0.01014033  0.25494781  1
  O  O267  1  0.86487514  0.00244665  0.76036515  1
  O  O268  1  0.85717053  0.48926973  0.26028776  1
  O  O269  1  0.88651996  0.48880096  0.76565751  1
  O  O270  1  0.13372213  0.35329882  0.35771075  1
  O  O271  1  0.11653819  0.35870223  0.88364098  1
  O  O272  1  0.12362208  0.85482443  0.36235431  1
  O  O273  1  0.13888563  0.87147450  0.86383394  1
  O  O274  1  0.61521290  0.36806308  0.36524441  1
  O  O275  1  0.63121575  0.36141375  0.87666256  1
  O  O276  1  0.61446281  0.87458020  0.38451112  1
  O  O277  1  0.61289395  0.88195693  0.86498607  1
  O  O278  1  0.37203315  0.13485462  0.14119693  1
  O  O279  1  0.38842370  0.12219545  0.63194949  1
  O  O280  1  0.38323690  0.62828883  0.13059045  1
  O  O281  1  0.38362898  0.61851024  0.64290397  1
  O  O282  1  0.86533943  0.13565935  0.13258615  1
  O  O283  1  0.86858313  0.13414816  0.63644995  1
  O  O284  1  0.88560093  0.57851535  0.14581556  1
  O  O285  1  0.88930742  0.64527654  0.61887476  1
  O  O286  1  0.25289456  0.25200489  0.12333204  1
  O  O287  1  0.26788764  0.24135714  0.60464410  1
  O  O288  1  0.26172316  0.76316190  0.13289977  1
  O  O289  1  0.25387994  0.76410678  0.62742068  1
  O  O290  1  0.76033449  0.26074886  0.13118851  1
  O  O291  1  0.75996815  0.24297340  0.61354649  1
  O  O292  1  0.74396037  0.77330427  0.13383998  1
  O  O293  1  0.77127779  0.74787200  0.63993879  1
  O  O294  1  0.24777911  0.23851785  0.38245999  1
  O  O295  1  0.23861283  0.24210180  0.88831629  1
  O  O296  1  0.25773928  0.75971354  0.38902645  1
  O  O297  1  0.24598422  0.73066201  0.87557693  1
  O  O298  1  0.74415540  0.24159644  0.38001592  1
  O  O299  1  0.74448735  0.23398781  0.87043800  1
  O  O300  1  0.77255285  0.76355059  0.34203955  1
  O  O301  1  0.74564632  0.72678672  0.86244174  1
  O  O302  1  0.01066792  0.12407604  -0.00019340  1
  O  O303  1  -0.00562155  0.12012496  0.50109142  1
  O  O304  1  0.00722900  0.60967389  0.00304476  1
  O  O305  1  0.00755039  0.64090634  0.50972137  1
  O  O306  1  0.49871598  0.13691335  -0.00634376  1
  O  O307  1  0.50625088  0.11561586  0.50411986  1
  O  O308  1  0.50522974  0.61475430  0.00736277  1
  O  O309  1  0.48571378  0.63099966  0.51312756  1
  O  O310  1  0.50488161  0.37499253  0.48437641  1
  O  O311  1  0.50209427  0.38854443  0.99779202  1
  O  O312  1  0.49651776  0.87534423  0.49585356  1
  O  O313  1  0.49027818  0.86909588  0.99140225  1
  O  O314  1  0.98686469  0.36949456  0.49238945  1
  O  O315  1  0.99572031  0.37807780  0.99359960  1
  O  O316  1  0.98745127  0.88668923  0.50967378  1
  O  O317  1  0.98038929  0.86835185  1.00824016  1
  O  O318  1  0.49361605  0.48988834  0.37366683  1
  O  O319  1  0.50815701  0.50125938  0.88931133  1
  O  O320  1  0.49520536  0.98875649  0.37743561  1
  O  O321  1  0.48995877  0.98713817  0.86543274  1
  O  O322  1  1.04543879  0.50932197  0.41014114  1
  O  O323  1  0.99394284  0.48601038  0.88395362  1
  O  O324  1  0.98426511  1.00659901  0.36554118  1
  O  O325  1  0.98538601  1.00004490  0.87014617  1
  O  O326  1  0.01893103  -0.00651552  0.13405149  1
  O  O327  1  -0.00448578  0.00852187  0.63525782  1
  O  O328  1  0.00565495  0.48226573  0.10922940  1
  O  O329  1  -0.00843173  0.53120256  0.62488587  1
  O  O330  1  0.49338911  0.00852779  0.13646072  1
  O  O331  1  0.50724118  0.00459063  0.61928824  1
  O  O332  1  0.50412831  0.50140920  0.11692569  1
  O  O333  1  0.50277054  0.51610247  0.62259717  1
  O  O334  1  0.23536233  0.36943938  0.24028407  1
  O  O335  1  0.23065282  0.32005616  0.73699249  1
  O  O336  1  0.26215912  0.88395287  0.24090305  1
  O  O337  1  0.25294855  0.88276127  0.74890224  1
  O  O338  1  0.73674214  0.37495184  0.24364653  1
  O  O339  1  0.73763411  0.37745593  0.74972757  1
  O  O340  1  0.75251507  0.89711921  0.23089884  1
  O  O341  1  0.74061993  0.88304962  0.75341199  1
  O  O342  1  0.25933381  0.11465522  0.25973910  1
  O  O343  1  0.25926931  0.11973128  0.76460449  1
  O  O344  1  0.26423307  0.62694902  0.24142995  1
  O  O345  1  0.26243738  0.62317147  0.75696913  1
  O  O346  1  0.75695823  0.12446314  0.25600681  1
  O  O347  1  0.75594571  0.11610061  0.75719280  1
  O  O348  1  0.74040663  0.60268163  0.24512951  1
  O  O349  1  0.71437577  0.66071729  0.82370648  1
  O  O350  1  0.36868309  0.11255921  0.36925317  1
  O  O351  1  0.37216796  0.12269916  0.86938563  1
  O  O352  1  0.37743915  0.61461148  0.35898971  1
  O  O353  1  0.36596391  0.62538465  0.86498934  1
  O  O354  1  0.86475807  0.11949463  0.36527216  1
  O  O355  1  0.86324778  0.11520618  0.86914845  1
  O  O356  1  0.89330330  0.60542222  0.35686896  1
  O  O357  1  0.88753177  0.60771321  0.87838843  1
  O  O358  1  0.13328937  0.37141357  0.13933948  1
  O  O359  1  0.08450117  0.40115904  0.63915235  1
  O  O360  1  0.13860722  0.89047759  0.11095162  1
  O  O361  1  0.13896850  0.87492128  0.64813262  1
  O  O362  1  0.62886398  0.37579866  0.12964466  1
  O  O363  1  0.62254154  0.37559317  0.63309392  1
  O  O364  1  0.63400447  0.88879845  0.11308121  1
  O  O365  1  0.62780263  0.87957443  0.63270653  1
  O  O366  1  0.11439126  0.24512876  0.25304938  1
  O  O367  1  0.10709641  0.23157298  0.77068202  1
  O  O368  1  0.10588418  0.76310560  0.22800246  1
  O  O369  1  0.11440351  0.76244552  0.75476915  1
  O  O370  1  0.61623781  0.25340238  0.25199891  1
  O  O371  1  0.63437401  0.26194481  0.75803499  1
  O  O372  1  0.61316710  0.73941948  0.24888366  1
  O  O373  1  0.62066110  0.75969798  0.73920154  1
  O  O374  1  0.37731628  0.24144905  0.24897440  1
  O  O375  1  0.36991594  0.23375163  0.72837313  1
  O  O376  1  0.38234678  0.73633316  0.24065559  1
  O  O377  1  0.38150294  0.74723780  0.75164376  1
  O  O378  1  0.88079150  0.24718091  0.24523506  1
  O  O379  1  0.87663138  0.24219861  0.74481909  1
  O  O380  1  0.86797093  0.70843353  0.23157947  1
  O  O381  1  0.89504126  0.76618571  0.73798840  1
  O  O382  1  0.37945982  0.50928120  0.47986288  1
  O  O383  1  0.38931333  0.50377564  1.00192865  1
  O  O384  1  0.38390799  0.98819642  0.48675947  1
  O  O385  1  0.38033835  0.99283624  0.98930024  1
  O  O386  1  0.86286723  0.48032921  0.50822792  1
  O  O387  1  0.88856033  0.48769814  0.99212665  1
  O  O388  1  0.86989577  0.99707897  0.48243638  1
  O  O389  1  0.87229866  0.99471732  0.98378815  1
  O  O390  1  0.12953786  0.01060804  0.00909963  1
  O  O391  1  0.13069984  -0.00267667  0.49805465  1
  O  O392  1  0.11273000  0.50777573  -0.00560359  1
  O  O393  1  0.09169982  0.49262862  0.46947752  1
  O  O394  1  0.61876604  0.02415215  -0.00551732  1
  O  O395  1  0.62358821  0.00475432  0.50578532  1
  O  O396  1  0.62038276  0.50081312  0.01010788  1
  O  O397  1  0.62103461  0.51233243  0.50835854  1
  O  O398  1  0.35653264  0.36227317  0.13961114  1
  O  O399  1  0.38721768  0.35808849  0.62947289  1
  O  O400  1  0.37301363  0.86754981  0.11962808  1
  O  O401  1  0.37034295  0.88335595  0.61719958  1
  O  O402  1  0.86849746  0.36758902  0.11971854  1
  O  O403  1  0.88337342  0.36165479  0.61670898  1
  O  O404  1  0.85289985  0.89495627  0.10161525  1
  O  O405  1  0.86836652  0.86870230  0.61533454  1
  O  O406  1  0.13620304  0.13511005  0.36688941  1
  O  O407  1  0.13356254  0.12957673  0.89352756  1
  O  O408  1  0.12336590  0.67653949  0.36210126  1
  O  O409  1  0.13343991  0.62915904  0.88333502  1
  O  O410  1  0.63133723  0.12847904  0.37966680  1
  O  O411  1  0.63281833  0.13214236  0.87987568  1
  O  O412  1  0.61580485  0.62043341  0.39340888  1
  O  O413  1  0.64338733  0.63367587  0.85954749  1
