# generated using pymatgen
data_V79Zn79O256
_symmetry_space_group_name_H-M   'P 1'
_cell_length_a   16.82982610
_cell_length_b   16.82979842
_cell_length_c   16.82965345
_cell_angle_alpha   90.00926478
_cell_angle_beta   90.02149205
_cell_angle_gamma   89.97729092
_symmetry_Int_Tables_number   1
_chemical_formula_structural   V79Zn79O256
_chemical_formula_sum   'V79 Zn79 O256'
_cell_volume   4766.87370266
_cell_formula_units_Z   1
loop_
 _symmetry_equiv_pos_site_id
 _symmetry_equiv_pos_as_xyz
  1  'x, y, z'
loop_
 _atom_site_type_symbol
 _atom_site_label
 _atom_site_symmetry_multiplicity
 _atom_site_fract_x
 _atom_site_fract_y
 _atom_site_fract_z
 _atom_site_occupancy
  V  V0  1  -0.00547042  0.88678495  0.87109590  1
  V  V1  1  0.01425978  0.87467217  0.37394176  1
  V  V2  1  0.12150669  0.62290332  -0.00108052  1
  V  V3  1  0.25182324  0.00552678  0.77167557  1
  V  V4  1  0.36564424  0.24741947  0.62148012  1
  V  V5  1  0.38142399  0.24895557  0.12652666  1
  V  V6  1  0.61596632  0.74391377  0.38247556  1
  V  V7  1  0.25726804  0.50595241  0.24937651  1
  V  V8  1  0.12385966  0.36484044  0.74105605  1
  V  V9  1  0.37921182  0.87996941  0.48406757  1
  V  V10  1  0.74626603  0.62369526  0.86750134  1
  V  V11  1  0.74799021  0.48287725  0.74858896  1
  V  V12  1  0.62064980  0.61764277  0.00540266  1
  V  V13  1  0.62577803  0.26268637  0.87837185  1
  V  V14  1  0.49313367  0.88019944  0.87623521  1
  V  V15  1  0.24667677  0.88577395  0.62332468  1
  V  V16  1  0.74776307  -0.00722119  0.25176162  1
  V  V17  1  0.00750036  0.13153162  0.62412464  1
  V  V18  1  0.37627298  0.37725229  -0.01616010  1
  V  V19  1  0.74826534  0.75061141  0.00058737  1
  V  V20  1  0.12373861  0.87923938  0.74626058  1
  V  V21  1  -0.00470165  0.38159644  0.37904391  1
  V  V22  1  0.01100923  0.75447453  0.25553938  1
  V  V23  1  0.37428564  0.87424058  -0.00051371  1
  V  V24  1  0.39011645  0.11636443  0.75654000  1
  V  V25  1  0.24504507  0.24473847  -0.01768051  1
  V  V26  1  0.61885107  0.12906124  0.50765530  1
  V  V27  1  0.49503359  0.01079547  0.00342089  1
  V  V28  1  0.62121373  0.75109223  0.87059482  1
  V  V29  1  -0.00205846  0.00141354  0.02044060  1
  V  V30  1  0.62548838  0.47952593  0.63045878  1
  V  V31  1  0.12148100  0.49903622  0.12112045  1
  V  V32  1  0.49079910  0.49969450  -0.01499840  1
  V  V33  1  0.87228164  0.75196453  0.12446936  1
  V  V34  1  0.23308581  0.00171042  0.24354111  1
  V  V35  1  0.74262912  0.13015479  0.37444430  1
  V  V36  1  0.01514576  0.00266932  0.50822826  1
  V  V37  1  0.00768902  0.36274571  0.87328456  1
  V  V38  1  0.88703970  0.63079558  0.74865317  1
  V  V39  1  0.23803317  0.87685701  0.12777456  1
  V  V40  1  0.87419045  0.87144589  0.50289509  1
  V  V41  1  -0.00193885  0.62217383  0.12285485  1
  V  V42  1  0.23436280  0.62907308  0.37417048  1
  V  V43  1  0.03680120  0.61559797  0.58723799  1
  V  V44  1  0.23843723  0.75029093  0.49292615  1
  V  V45  1  0.11729078  0.74962296  0.86952378  1
  V  V46  1  0.75744905  0.00299702  0.76105946  1
  V  V47  1  0.87924966  0.37723743  0.00241542  1
  V  V48  1  0.24170574  0.49667538  0.73174210  1
  V  V49  1  0.38087175  0.11991345  0.24656644  1
  V  V50  1  0.25050430  0.12159050  0.38205711  1
  V  V51  1  0.12475990  0.37074950  0.25023653  1
  V  V52  1  0.37115425  0.61915939  0.75378267  1
  V  V53  1  0.24976010  0.61764092  0.87517435  1
  V  V54  1  0.12634288  0.24084446  0.38882791  1
  V  V55  1  0.61860688  0.00786563  0.12690341  1
  V  V56  1  0.49650247  0.75210329  0.75051922  1
  V  V57  1  0.60189046  0.87027100  0.25754464  1
  V  V58  1  0.86626513  0.62350770  0.26355596  1
  V  V59  1  0.50566866  0.62428689  0.62423716  1
  V  V60  1  0.50065665  0.49958958  0.50309867  1
  V  V61  1  0.37200511  0.75204962  0.62162129  1
  V  V62  1  0.12530474  0.11562823  -0.00091825  1
  V  V63  1  0.25335103  0.37198703  0.12466537  1
  V  V64  1  0.00222111  0.23927403  0.24117305  1
  V  V65  1  0.49723404  0.61862912  0.13872691  1
  V  V66  1  0.88085233  0.13142776  0.75180966  1
  V  V67  1  0.50567172  0.37215338  0.37555643  1
  V  V68  1  0.74582369  0.87581630  0.62324557  1
  V  V69  1  0.74827163  0.38671794  0.12665495  1
  V  V70  1  0.75414266  0.25302871  0.51042452  1
  V  V71  1  0.50643766  0.27300288  0.74841324  1
  V  V72  1  0.50729085  0.25236638  0.25130084  1
  V  V73  1  0.50053714  -0.00412539  0.49379551  1
  V  V74  1  0.88319318  0.49962097  0.87882777  1
  V  V75  1  0.37876620  0.50890130  0.37434483  1
  V  V76  1  0.38226699  0.74716191  0.13834151  1
  V  V77  1  0.87435207  0.00032286  0.37957187  1
  V  V78  1  0.87278809  0.24009510  0.11874216  1
  Zn  Zn79  1  0.87158882  0.38843917  0.49605172  1
  Zn  Zn80  1  0.25011436  0.74912711  0.00081631  1
  Zn  Zn81  1  0.62980128  0.38393495  0.24988430  1
  Zn  Zn82  1  0.75590034  0.13119957  0.88669413  1
  Zn  Zn83  1  0.62352149  0.88136510  0.75196134  1
  Zn  Zn84  1  0.88462173  0.74447056  0.62546111  1
  Zn  Zn85  1  0.63348747  0.13537248  0.00352983  1
  Zn  Zn86  1  0.87904957  0.27336774  0.63148865  1
  Zn  Zn87  1  0.74325280  0.87356525  0.12482973  1
  Zn  Zn88  1  0.35967055  0.37333656  0.51130871  1
  Zn  Zn89  1  0.76097020  0.49905200  0.28246400  1
  Zn  Zn90  1  0.88112846  0.11903884  0.24574228  1
  Zn  Zn91  1  0.86916588  0.88221195  -0.00678102  1
  Zn  Zn92  1  0.75197246  0.71537450  0.47293342  1
  Zn  Zn93  1  0.61445410  0.00726636  0.63484366  1
  Zn  Zn94  1  0.18795964  0.18396963  0.18156742  1
  Zn  Zn95  1  0.18962829  0.18442954  0.69075900  1
  Zn  Zn96  1  0.19099719  0.68954811  0.18627155  1
  Zn  Zn97  1  0.18497508  0.69177623  0.68616522  1
  Zn  Zn98  1  0.69251353  0.18940151  0.18435423  1
  Zn  Zn99  1  0.68708003  0.19092841  0.69357711  1
  Zn  Zn100  1  0.68096623  0.68696997  0.19484800  1
  Zn  Zn101  1  0.71012488  0.66979196  0.65365738  1
  Zn  Zn102  1  0.30193333  0.32554183  0.34042773  1
  Zn  Zn103  1  0.31324751  0.31023807  0.79952428  1
  Zn  Zn104  1  0.30868328  0.81342278  0.30879539  1
  Zn  Zn105  1  0.30671941  0.80979265  0.81241250  1
  Zn  Zn106  1  0.81561398  0.30797350  0.30810682  1
  Zn  Zn107  1  0.81648433  0.30689874  0.81932428  1
  Zn  Zn108  1  0.81435181  0.80950635  0.31460347  1
  Zn  Zn109  1  0.81189461  0.81257392  0.80888087  1
  Zn  Zn110  1  0.18801400  0.43557339  0.44817265  1
  Zn  Zn111  1  0.18966012  0.43550041  0.93535954  1
  Zn  Zn112  1  0.19506737  0.94088404  0.43581821  1
  Zn  Zn113  1  0.18298001  0.93574898  0.94007468  1
  Zn  Zn114  1  0.68187929  0.43903584  0.44255457  1
  Zn  Zn115  1  0.69029259  0.43473739  0.94324552  1
  Zn  Zn116  1  0.68340001  0.93392623  0.43767214  1
  Zn  Zn117  1  0.68150039  0.94110633  0.93953236  1
  Zn  Zn118  1  0.31075332  0.06402404  0.06095811  1
  Zn  Zn119  1  0.32105393  0.06611042  0.56874029  1
  Zn  Zn120  1  0.31391038  0.56314077  0.06209480  1
  Zn  Zn121  1  0.30958361  0.56513102  0.55662652  1
  Zn  Zn122  1  0.80969721  0.05784227  0.06180438  1
  Zn  Zn123  1  0.81388155  0.06282973  0.56885881  1
  Zn  Zn124  1  0.81259563  0.56398440  0.06194059  1
  Zn  Zn125  1  0.81512381  0.55354960  0.56061949  1
  Zn  Zn126  1  0.44154075  0.43646689  0.18583261  1
  Zn  Zn127  1  0.42950334  0.43613236  0.68765399  1
  Zn  Zn128  1  0.43082286  0.93867994  0.18353613  1
  Zn  Zn129  1  0.43611412  0.94137378  0.68291590  1
  Zn  Zn130  1  0.93444985  0.43590868  0.19487818  1
  Zn  Zn131  1  0.94820155  0.44564789  0.68151165  1
  Zn  Zn132  1  0.93509370  0.93392342  0.18984569  1
  Zn  Zn133  1  0.93619093  0.94324786  0.68800619  1
  Zn  Zn134  1  0.06313022  0.05953884  0.31551987  1
  Zn  Zn135  1  0.06624072  0.06888377  0.81605552  1
  Zn  Zn136  1  0.05915202  0.56382047  0.31034865  1
  Zn  Zn137  1  0.06458086  0.55535337  0.80945011  1
  Zn  Zn138  1  0.56016557  0.06034761  0.31544598  1
  Zn  Zn139  1  0.57064110  0.06703474  0.82024214  1
  Zn  Zn140  1  0.57349689  0.56243091  0.31911513  1
  Zn  Zn141  1  0.56298886  0.56006077  0.80819438  1
  Zn  Zn142  1  0.43559421  0.18499671  0.43339268  1
  Zn  Zn143  1  0.43673253  0.19519940  0.93020956  1
  Zn  Zn144  1  0.43891441  0.68904311  0.43454483  1
  Zn  Zn145  1  0.43468380  0.68916262  0.94153493  1
  Zn  Zn146  1  0.93818926  0.18806098  0.43790794  1
  Zn  Zn147  1  0.94198841  0.18194445  0.93904048  1
  Zn  Zn148  1  0.94474217  0.68749419  0.44020348  1
  Zn  Zn149  1  0.93683305  0.68883085  0.93440812  1
  Zn  Zn150  1  0.06079578  0.30924360  0.05793999  1
  Zn  Zn151  1  0.06136776  0.31601928  0.56225126  1
  Zn  Zn152  1  0.05828000  0.80970691  0.05790023  1
  Zn  Zn153  1  0.05808742  0.80663295  0.56680870  1
  Zn  Zn154  1  0.56267651  0.31887040  0.06137003  1
  Zn  Zn155  1  0.55432774  0.30535410  0.56053326  1
  Zn  Zn156  1  0.56148454  0.81354170  0.06653496  1
  Zn  Zn157  1  0.56245583  0.81254467  0.56015237  1
  O  O158  1  0.12536523  0.13615888  0.10167139  1
  O  O159  1  0.10750703  0.12760418  0.63414733  1
  O  O160  1  0.11965655  0.61945545  0.11947331  1
  O  O161  1  0.13679626  0.63109332  0.60477355  1
  O  O162  1  0.62610661  0.11243682  0.12628894  1
  O  O163  1  0.63349665  0.12276984  0.61060393  1
  O  O164  1  0.60898303  0.63491613  0.11561066  1
  O  O165  1  0.60655459  0.61847981  0.64048854  1
  O  O166  1  0.39430195  0.39431272  0.36277044  1
  O  O167  1  0.37114371  0.37078994  0.88487479  1
  O  O168  1  0.36879461  0.87553314  0.38557376  1
  O  O169  1  0.38197831  0.86538522  0.88487344  1
  O  O170  1  0.89132078  0.36417281  0.37399470  1
  O  O171  1  0.88362528  0.37972539  0.88140062  1
  O  O172  1  0.88276379  0.88418977  0.38260226  1
  O  O173  1  0.89084819  0.86762788  0.87533815  1
  O  O174  1  0.24460500  0.01052352  0.35687666  1
  O  O175  1  0.25588443  -0.00586895  0.87088226  1
  O  O176  1  0.25698826  0.51337894  0.36816462  1
  O  O177  1  0.24549565  0.51393603  0.86856976  1
  O  O178  1  0.75654945  0.00465208  0.37157895  1
  O  O179  1  0.74899370  -0.00271821  0.86416000  1
  O  O180  1  0.76885375  0.50716056  0.40888038  1
  O  O181  1  0.75256540  0.50514674  0.86660794  1
  O  O182  1  0.24425298  0.49284945  0.12967776  1
  O  O183  1  0.25258108  0.49905564  0.63220555  1
  O  O184  1  0.25291345  0.98817176  0.13129412  1
  O  O185  1  0.25178015  0.98739564  0.62290274  1
  O  O186  1  0.75564102  0.48859593  0.12666722  1
  O  O187  1  0.73660428  0.49756075  0.63824685  1
  O  O188  1  0.74042983  0.99640111  0.13590372  1
  O  O189  1  0.74985543  0.98987807  0.63639012  1
  O  O190  1  0.00830245  0.36330322  0.25488197  1
  O  O191  1  0.01101287  0.38080591  0.76147800  1
  O  O192  1  -0.00483750  0.86221684  0.25720923  1
  O  O193  1  0.00864474  0.88508760  0.76081412  1
  O  O194  1  0.50751536  0.37029821  0.25383529  1
  O  O195  1  0.49792833  0.37256063  0.75523482  1
  O  O196  1  0.50263036  0.87951154  0.25027550  1
  O  O197  1  0.49762208  0.87139927  0.75899102  1
  O  O198  1  0.48651170  0.13169943  0.25778226  1
  O  O199  1  0.49092899  0.10895115  0.74818876  1
  O  O200  1  0.50443123  0.61577927  0.23736935  1
  O  O201  1  0.48827483  0.63012649  0.74627178  1
  O  O202  1  1.00164566  0.13390628  0.25243363  1
  O  O203  1  0.98982255  0.11485461  0.73945121  1
  O  O204  1  0.99153561  0.63635991  0.24361924  1
  O  O205  1  0.98587031  0.62621173  0.76604623  1
  O  O206  1  0.36750319  0.25652627  0.00574421  1
  O  O207  1  0.38564893  0.24341361  0.51810213  1
  O  O208  1  0.37075402  0.75920960  0.00937314  1
  O  O209  1  0.37060382  0.76120407  0.50447718  1
  O  O210  1  0.88342822  0.25689455  0.01250514  1
  O  O211  1  0.86073564  0.24656945  0.50136009  1
  O  O212  1  0.86396896  0.74748715  0.00615051  1
  O  O213  1  0.87334108  0.76330289  0.49757350  1
  O  O214  1  0.12697187  0.25110469  0.48696967  1
  O  O215  1  0.14192016  0.25267731  0.99837378  1
  O  O216  1  0.14003231  0.76467060  0.49410038  1
  O  O217  1  0.12755312  0.73810581  0.99360795  1
  O  O218  1  0.63229608  0.23561342  0.50179392  1
  O  O219  1  0.60579738  0.24808279  0.98473472  1
  O  O220  1  0.63071848  0.76174143  0.48698918  1
  O  O221  1  0.62903389  0.74211508  0.99216230  1
  O  O222  1  0.48824892  0.26027640  0.13204155  1
  O  O223  1  0.49627862  0.25005626  0.64326264  1
  O  O224  1  0.48886853  0.73948385  0.12103755  1
  O  O225  1  0.49143471  0.74509939  0.62791714  1
  O  O226  1  0.98835940  0.25690506  0.13164823  1
  O  O227  1  0.99360236  0.23472665  0.61256639  1
  O  O228  1  0.99275778  0.74386683  0.13263493  1
  O  O229  1  0.99942710  0.71837692  0.61125442  1
  O  O230  1  0.01356348  0.24917762  0.36630204  1
  O  O231  1  -0.00195208  0.26350791  0.87566467  1
  O  O232  1  -0.00105810  0.75793684  0.36291798  1
  O  O233  1  0.01120483  0.76229600  0.88372303  1
  O  O234  1  0.48995126  0.26034787  0.36393614  1
  O  O235  1  0.50852299  0.24717634  0.85713586  1
  O  O236  1  0.51279937  0.75265096  0.37865092  1
  O  O237  1  0.50394487  0.75666226  0.87241603  1
  O  O238  1  0.26001226  0.11331128  0.48061549  1
  O  O239  1  0.24483809  0.13596765  0.99830700  1
  O  O240  1  0.25633502  0.63558435  0.48303293  1
  O  O241  1  0.24042957  0.62497292  0.99387815  1
  O  O242  1  0.74295281  0.12790929  0.49142106  1
  O  O243  1  0.74748366  0.12253306  0.99935917  1
  O  O244  1  0.74310463  0.63837651  0.54827683  1
  O  O245  1  0.74105153  0.62992229  0.99112980  1
  O  O246  1  0.25642478  0.36833718  0.00570339  1
  O  O247  1  0.26743985  0.36015643  0.44824656  1
  O  O248  1  0.25646032  0.87708918  0.01189364  1
  O  O249  1  0.26126578  0.87206420  0.50287356  1
  O  O250  1  0.76512560  0.37644233  0.01239039  1
  O  O251  1  0.74655726  0.35386235  0.49094938  1
  O  O252  1  0.74809187  0.86288309  -0.00055405  1
  O  O253  1  0.75861315  0.88500529  0.51435407  1
  O  O254  1  0.13386215  0.49163111  0.24101929  1
  O  O255  1  0.13757981  0.49625745  0.74658196  1
  O  O256  1  0.13373093  1.00401802  0.24178152  1
  O  O257  1  0.13929216  0.99022299  0.75868843  1
  O  O258  1  0.64892794  0.49557855  0.27258476  1
  O  O259  1  0.63547232  0.49709010  0.74436743  1
  O  O260  1  0.62679670  0.99216673  0.24631384  1
  O  O261  1  0.63861630  1.00056938  0.75000857  1
  O  O262  1  0.37043279  0.01662431  0.24287567  1
  O  O263  1  0.36259613  0.00611968  0.74648014  1
  O  O264  1  0.36294970  0.49763584  0.25205139  1
  O  O265  1  0.36213766  0.51208867  0.74600195  1
  O  O266  1  0.86759646  -0.00030955  0.25907107  1
  O  O267  1  0.86462422  0.00886382  0.75059887  1
  O  O268  1  0.87603748  0.51755395  0.25224428  1
  O  O269  1  0.86180126  0.50908674  0.75934629  1
  O  O270  1  0.11913653  0.35991670  0.36379097  1
  O  O271  1  0.11162856  0.38212243  0.87154679  1
  O  O272  1  0.11361591  0.88267488  0.37456473  1
  O  O273  1  0.11744654  0.86856283  0.86879283  1
  O  O274  1  0.61011381  0.37509237  0.37847513  1
  O  O275  1  0.62613819  0.36453484  0.88058520  1
  O  O276  1  0.61995940  0.87816019  0.36050736  1
  O  O277  1  0.61291000  0.86585259  0.87717739  1
  O  O278  1  0.36844364  0.13630148  0.13525237  1
  O  O279  1  0.37337799  0.13500447  0.64137231  1
  O  O280  1  0.38206627  0.63695013  0.12258760  1
  O  O281  1  0.37822850  0.63452372  0.63190700  1
  O  O282  1  0.87185012  0.13670878  0.12573678  1
  O  O283  1  0.88505612  0.12357099  0.63643918  1
  O  O284  1  0.88275588  0.63303407  0.12725006  1
  O  O285  1  0.87202011  0.61818821  0.64580075  1
  O  O286  1  0.25899030  0.26114683  0.12128196  1
  O  O287  1  0.26443242  0.24663179  0.63045421  1
  O  O288  1  0.26083485  0.76020846  0.12664992  1
  O  O289  1  0.25744342  0.75814757  0.61458443  1
  O  O290  1  0.76820867  0.26078311  0.13237556  1
  O  O291  1  0.75235088  0.24652296  0.61338720  1
  O  O292  1  0.75340463  0.74636209  0.11574119  1
  O  O293  1  0.76110112  0.77365929  0.63852643  1
  O  O294  1  0.23381715  0.23174722  0.35905610  1
  O  O295  1  0.25496100  0.25357776  0.88419187  1
  O  O296  1  0.25415081  0.73686999  0.37504390  1
  O  O297  1  0.23657101  0.74014479  0.87661157  1
  O  O298  1  0.75456222  0.23284306  0.37753211  1
  O  O299  1  0.73275426  0.24938256  0.86880840  1
  O  O300  1  0.73386311  0.76260384  0.37445680  1
  O  O301  1  0.74203704  0.74365700  0.88085687  1
  O  O302  1  0.00691147  0.10934561  0.00167307  1
  O  O303  1  -0.00474498  0.11109318  0.50839843  1
  O  O304  1  0.00783345  0.62959068  0.01098630  1
  O  O305  1  0.00475822  0.60765188  0.48968972  1
  O  O306  1  0.49194897  0.11101972  -0.00507003  1
  O  O307  1  0.51242772  0.11771862  0.49483344  1
  O  O308  1  0.50224689  0.61598782  0.00330163  1
  O  O309  1  0.48958434  0.61230495  0.51346369  1
  O  O310  1  0.49400027  0.38314763  0.49463031  1
  O  O311  1  0.49112523  0.39295195  1.00568220  1
  O  O312  1  0.48802024  0.88074637  0.49843229  1
  O  O313  1  0.49160180  0.87795445  0.99478782  1
  O  O314  1  1.00215424  0.37209704  0.48191010  1
  O  O315  1  0.99199872  0.37559667  0.98882146  1
  O  O316  1  0.99519397  0.88367070  0.49585735  1
  O  O317  1  1.00354275  0.88652562  0.99082028  1
  O  O318  1  0.49884903  0.49904489  0.38705891  1
  O  O319  1  0.49660125  0.50616140  0.88537749  1
  O  O320  1  0.49781769  1.00253078  0.39226598  1
  O  O321  1  0.50607292  0.98833084  0.89001691  1
  O  O322  1  1.00558537  0.48023277  0.36327636  1
  O  O323  1  0.98720877  0.49325752  0.87198312  1
  O  O324  1  0.99343343  0.99541179  0.38434507  1
  O  O325  1  1.00317116  0.98864877  0.88189825  1
  O  O326  1  0.00572626  -0.00928937  0.11982841  1
  O  O327  1  0.00071908  0.00458845  0.61277775  1
  O  O328  1  0.01037681  0.50982285  0.13591226  1
  O  O329  1  0.00760259  0.53278604  0.63843607  1
  O  O330  1  0.50465185  -0.00299186  0.11329126  1
  O  O331  1  0.50214276  -0.00578706  0.60758263  1
  O  O332  1  0.49189432  0.51498660  0.11470048  1
  O  O333  1  0.50624043  0.50241966  0.62498686  1
  O  O334  1  0.24300889  0.38144183  0.24423407  1
  O  O335  1  0.24022640  0.38989223  0.75648177  1
  O  O336  1  0.25389249  0.88897038  0.23941624  1
  O  O337  1  0.24633725  0.88491727  0.74371744  1
  O  O338  1  0.75637638  0.37817069  0.23992457  1
  O  O339  1  0.75774772  0.38533058  0.75300134  1
  O  O340  1  0.74691671  0.88650412  0.25061205  1
  O  O341  1  0.75233630  0.88789652  0.74396717  1
  O  O342  1  0.25481891  0.11326625  0.24759446  1
  O  O343  1  0.25076978  0.10747638  0.75226267  1
  O  O344  1  0.24484972  0.61764506  0.25929467  1
  O  O345  1  0.25157111  0.61704587  0.75307698  1
  O  O346  1  0.74824659  0.11397155  0.26228961  1
  O  O347  1  0.76045984  0.11424766  0.74765529  1
  O  O348  1  0.76423541  0.62704284  0.24522411  1
  O  O349  1  0.75056623  0.62114081  0.76033700  1
  O  O350  1  0.35913562  0.13413530  0.35743291  1
  O  O351  1  0.37562131  0.12986804  0.85591784  1
  O  O352  1  0.37674956  0.61291409  0.37290184  1
  O  O353  1  0.36303262  0.63748692  0.86373338  1
  O  O354  1  0.86586148  0.11325783  0.37619719  1
  O  O355  1  0.87572256  0.13131327  0.85844557  1
  O  O356  1  0.87414088  0.63804966  0.36199311  1
  O  O357  1  0.86479807  0.61922828  0.87172371  1
  O  O358  1  0.13172434  0.38037075  0.12888968  1
  O  O359  1  0.11708099  0.37373674  0.64088460  1
  O  O360  1  0.13966238  0.86590916  0.12105470  1
  O  O361  1  0.13249146  0.86683648  0.63584676  1
  O  O362  1  0.64499034  0.37027770  0.12378173  1
  O  O363  1  0.62103553  0.38114590  0.62744081  1
  O  O364  1  0.62322983  0.88268147  0.13850837  1
  O  O365  1  0.63753621  0.87507466  0.62806874  1
  O  O366  1  0.11964368  0.25752452  0.24455068  1
  O  O367  1  0.13662704  0.26628394  0.75463881  1
  O  O368  1  0.10973458  0.74690832  0.24498097  1
  O  O369  1  0.13014914  0.76286070  0.75903397  1
  O  O370  1  0.61058659  0.24787216  0.24278696  1
  O  O371  1  0.61344116  0.25155123  0.75643890  1
  O  O372  1  0.62310926  0.76560810  0.25648704  1
  O  O373  1  0.61790066  0.75103691  0.76374903  1
  O  O374  1  0.38167662  0.24359746  0.24063607  1
  O  O375  1  0.38854350  0.24092305  0.74449234  1
  O  O376  1  0.37654598  0.75394953  0.23749086  1
  O  O377  1  0.37485905  0.74397851  0.73960956  1
  O  O378  1  0.88599702  0.24429422  0.23943194  1
  O  O379  1  0.86954075  0.23705875  0.74321448  1
  O  O380  1  0.88078474  0.74270845  0.24041164  1
  O  O381  1  0.87215829  0.73466385  0.75156388  1
  O  O382  1  0.38190347  0.49592606  0.49356745  1
  O  O383  1  0.38189644  0.49519506  0.99797488  1
  O  O384  1  0.38331311  0.98785379  0.50397641  1
  O  O385  1  0.38572467  0.98883388  1.00950860  1
  O  O386  1  0.83904418  0.49988421  0.46067988  1
  O  O387  1  0.87060196  0.49348062  0.98934391  1
  O  O388  1  0.88068281  0.99164566  0.49388387  1
  O  O389  1  0.89162511  0.99666358  1.00847636  1
  O  O390  1  0.11836735  0.00784228  0.00199406  1
  O  O391  1  0.11407954  -0.00221546  0.49777371  1
  O  O392  1  0.13023521  0.50804948  0.01155078  1
  O  O393  1  0.12210063  0.49509022  0.51036673  1
  O  O394  1  0.61023218  -0.00148927  0.01034572  1
  O  O395  1  0.61548765  0.00623766  0.50180419  1
  O  O396  1  0.61319553  0.51025321  -0.00454240  1
  O  O397  1  0.61422808  0.49713818  0.52004150  1
  O  O398  1  0.36650114  0.37110722  0.11791059  1
  O  O399  1  0.37425975  0.35812289  0.62688272  1
  O  O400  1  0.37016856  0.86327233  0.11826006  1
  O  O401  1  0.36641252  0.86542909  0.62033799  1
  O  O402  1  0.87220606  0.37128438  0.11933045  1
  O  O403  1  0.88611944  0.38588822  0.61001691  1
  O  O404  1  0.87064462  0.86092365  0.12170080  1
  O  O405  1  0.87312220  0.87472071  0.61737876  1
  O  O406  1  0.13281713  0.13126713  0.37622582  1
  O  O407  1  0.11885954  0.13067786  0.89526629  1
  O  O408  1  0.13524541  0.62270022  0.37441733  1
  O  O409  1  0.12700979  0.62874421  0.88090095  1
  O  O410  1  0.63738094  0.11808425  0.38487592  1
  O  O411  1  0.63202821  0.13654272  0.88147605  1
  O  O412  1  0.62894263  0.64333902  0.37633577  1
  O  O413  1  0.62841834  0.63131333  0.88169407  1
