# generated using pymatgen
data_V79Zn79O256
_symmetry_space_group_name_H-M   'P 1'
_cell_length_a   16.87171091
_cell_length_b   16.86216850
_cell_length_c   16.86780771
_cell_angle_alpha   89.95422194
_cell_angle_beta   89.97176069
_cell_angle_gamma   89.87163716
_symmetry_Int_Tables_number   1
_chemical_formula_structural   V79Zn79O256
_chemical_formula_sum   'V79 Zn79 O256'
_cell_volume   4798.76973356
_cell_formula_units_Z   1
loop_
 _symmetry_equiv_pos_site_id
 _symmetry_equiv_pos_as_xyz
  1  'x, y, z'
loop_
 _atom_site_type_symbol
 _atom_site_label
 _atom_site_symmetry_multiplicity
 _atom_site_fract_x
 _atom_site_fract_y
 _atom_site_fract_z
 _atom_site_occupancy
  V  V0  1  0.87436313  0.62480173  0.25293939  1
  V  V1  1  0.01078711  0.36958097  0.87162727  1
  V  V2  1  0.87585960  0.24855339  0.12467214  1
  V  V3  1  0.13509405  0.24151124  0.87558317  1
  V  V4  1  0.87690418  0.75152924  0.12122002  1
  V  V5  1  0.00349103  0.61592559  0.62361643  1
  V  V6  1  0.49786673  0.49703090  0.49672550  1
  V  V7  1  0.87949524  0.76174513  0.61839266  1
  V  V8  1  0.75161756  0.50426476  0.24844407  1
  V  V9  1  0.87652752  0.37454019  -0.00255296  1
  V  V10  1  0.62472860  0.51293685  0.11653886  1
  V  V11  1  0.47915999  0.75472354  0.74262981  1
  V  V12  1  0.12763713  -0.00658143  0.62200758  1
  V  V13  1  0.74974149  0.50476294  0.75185710  1
  V  V14  1  0.50114126  0.37107920  0.87426936  1
  V  V15  1  0.61988603  0.37065079  0.25759204  1
  V  V16  1  -0.00308147  -0.00153425  0.50266423  1
  V  V17  1  0.87307515  0.13751973  0.75984692  1
  V  V18  1  0.00055251  0.75146316  0.25191076  1
  V  V19  1  0.25096099  0.24625251  0.51128415  1
  V  V20  1  0.37818072  0.74620642  0.11712958  1
  V  V21  1  0.61422103  0.12800865  0.49807282  1
  V  V22  1  0.62611767  0.23947660  0.87265657  1
  V  V23  1  -0.00343634  0.37382991  0.38878652  1
  V  V24  1  0.01384966  0.88192475  0.87098191  1
  V  V25  1  0.24977840  0.75431045  0.51948799  1
  V  V26  1  0.37949324  0.51254436  0.86352684  1
  V  V27  1  0.24349248  0.51524965  0.74907075  1
  V  V28  1  -0.00672718  0.13380498  0.62745131  1
  V  V29  1  0.74990976  0.87960553  0.62159364  1
  V  V30  1  0.37320680  0.13252388  0.24946585  1
  V  V31  1  0.51159410  0.74742042  0.25372361  1
  V  V32  1  0.74009428  -0.00440374  0.25007010  1
  V  V33  1  0.12726515  0.50276582  0.12599831  1
  V  V34  1  0.00009786  0.25120943  0.25207745  1
  V  V35  1  0.49787170  0.24532652  0.73991190  1
  V  V36  1  0.50476617  0.51393723  0.00038213  1
  V  V37  1  0.01216093  0.75671448  0.75565207  1
  V  V38  1  0.00342968  0.50756583  0.00222124  1
  V  V39  1  0.50210167  0.87538674  0.88330025  1
  V  V40  1  0.87121276  0.12426256  0.25150231  1
  V  V41  1  0.74138387  0.73961558  -0.00682613  1
  V  V42  1  0.74481069  0.37396330  0.12144092  1
  V  V43  1  0.62524993  0.49733526  0.62613819  1
  V  V44  1  0.13650788  0.74772644  0.37478487  1
  V  V45  1  0.75628762  0.00203044  0.75872217  1
  V  V46  1  0.37501500  0.62712567  0.25708167  1
  V  V47  1  0.24524661  -0.00243168  0.24818929  1
  V  V48  1  0.48879711  0.62855903  0.62807118  1
  V  V49  1  0.00041783  0.00056660  0.00250637  1
  V  V50  1  0.62182259  0.11409062  0.00139709  1
  V  V51  1  0.74632273  0.74465696  0.49112414  1
  V  V52  1  0.75249526  0.26425505  0.50140280  1
  V  V53  1  0.25583169  0.87110522  0.11603005  1
  V  V54  1  0.74140564  0.87657428  0.12515118  1
  V  V55  1  0.50850256  0.87105083  0.37415166  1
  V  V56  1  0.37629715  -0.00445637  0.37885860  1
  V  V57  1  0.37290211  0.87220556  0.50915918  1
  V  V58  1  0.88036116  0.49572263  0.38445304  1
  V  V59  1  0.74367577  0.13131493  0.37676409  1
  V  V60  1  0.36232209  0.12978472  0.74796610  1
  V  V61  1  0.24565137  -0.02169455  0.75084663  1
  V  V62  1  0.24407123  0.12212114  0.38259704  1
  V  V63  1  0.37596313  -0.00536935  0.88271666  1
  V  V64  1  0.37482436  0.36851929  0.50636578  1
  V  V65  1  0.12170876  0.24454031  0.38553247  1
  V  V66  1  0.12678065  0.61428830  0.50157569  1
  V  V67  1  0.86938766  0.50782281  0.87424902  1
  V  V68  1  0.63161787  0.74370332  0.85532951  1
  V  V69  1  0.49151131  0.12436159  0.12126564  1
  V  V70  1  0.37262628  0.49663401  0.37754130  1
  V  V71  1  0.12460371  0.87622543  0.24614859  1
  V  V72  1  0.61759539  -0.00169728  0.62529234  1
  V  V73  1  0.74886144  0.24069198  -0.00602081  1
  V  V74  1  0.37299322  0.36852843  0.00423437  1
  V  V75  1  0.87245992  0.87834053  -0.01329842  1
  V  V76  1  0.87261739  -0.00642812  0.38203332  1
  V  V77  1  0.00697912  0.11882548  0.12633875  1
  V  V78  1  0.24899937  0.50337920  0.25531550  1
  Zn  Zn79  1  0.62296698  0.63027529  0.48537716  1
  Zn  Zn80  1  0.49070115  0.12421244  0.61854350  1
  Zn  Zn81  1  0.24272418  0.38695627  0.62455671  1
  Zn  Zn82  1  0.12893167  0.37388876  0.25289718  1
  Zn  Zn83  1  0.50021491  0.25348769  0.25572210  1
  Zn  Zn84  1  0.00967557  0.63127446  0.11823371  1
  Zn  Zn85  1  0.77615629  0.37244641  0.62602887  1
  Zn  Zn86  1  0.61241937  -0.00860715  0.12545514  1
  Zn  Zn87  1  0.26018533  0.23016883  0.00661903  1
  Zn  Zn88  1  0.87054659  0.63222335  0.75103168  1
  Zn  Zn89  1  0.25829232  0.36812641  0.13292696  1
  Zn  Zn90  1  0.12854534  0.37421165  0.74238414  1
  Zn  Zn91  1  -0.00324741  0.87255584  0.38368187  1
  Zn  Zn92  1  0.13190668  0.12014527  0.00115659  1
  Zn  Zn93  1  0.63027565  0.36859093  0.74678758  1
  Zn  Zn94  1  0.19007311  0.18941817  0.18858723  1
  Zn  Zn95  1  0.17317271  0.18238829  0.69341355  1
  Zn  Zn96  1  0.19291390  0.68669432  0.18364876  1
  Zn  Zn97  1  0.18804900  0.68669558  0.69048383  1
  Zn  Zn98  1  0.68348026  0.18409215  0.18400215  1
  Zn  Zn99  1  0.69164342  0.18507153  0.68182437  1
  Zn  Zn100  1  0.69090559  0.68941473  0.18609372  1
  Zn  Zn101  1  0.68751983  0.68263450  0.67400017  1
  Zn  Zn102  1  0.31185027  0.31422352  0.32119546  1
  Zn  Zn103  1  0.30835784  0.31926274  0.81366110  1
  Zn  Zn104  1  0.31653882  0.81226532  0.31139319  1
  Zn  Zn105  1  0.30525511  0.80836410  0.82557739  1
  Zn  Zn106  1  0.80906154  0.31562123  0.31593204  1
  Zn  Zn107  1  0.81300837  0.31728476  0.81141166  1
  Zn  Zn108  1  0.80901921  0.81447171  0.31168406  1
  Zn  Zn109  1  0.81284255  0.81494093  0.80383981  1
  Zn  Zn110  1  0.18771042  0.43030644  0.43543068  1
  Zn  Zn111  1  0.20990366  0.48324993  0.95393269  1
  Zn  Zn112  1  0.18393317  0.93437212  0.43920552  1
  Zn  Zn113  1  0.18844819  0.94707710  0.93800682  1
  Zn  Zn114  1  0.68048886  0.46398236  0.42575959  1
  Zn  Zn115  1  0.68502193  0.43505047  0.93337289  1
  Zn  Zn116  1  0.68892792  0.93958862  0.44505122  1
  Zn  Zn117  1  0.68325386  0.92793828  0.93364917  1
  Zn  Zn118  1  0.31233082  0.05648451  0.06386060  1
  Zn  Zn119  1  0.31135595  0.05831035  0.56673967  1
  Zn  Zn120  1  0.31576300  0.56740723  0.06709139  1
  Zn  Zn121  1  0.30953390  0.56645509  0.56236131  1
  Zn  Zn122  1  0.81479854  0.05946562  0.06218259  1
  Zn  Zn123  1  0.81031183  0.06933801  0.56403862  1
  Zn  Zn124  1  0.81510050  0.56409923  0.06343463  1
  Zn  Zn125  1  0.81573735  0.56195534  0.56981367  1
  Zn  Zn126  1  0.43965613  0.44295705  0.18474504  1
  Zn  Zn127  1  0.43703481  0.43279425  0.68482351  1
  Zn  Zn128  1  0.43651284  0.93580244  0.19026707  1
  Zn  Zn129  1  0.43537601  0.93776856  0.69416005  1
  Zn  Zn130  1  0.94059561  0.43562161  0.18601194  1
  Zn  Zn131  1  0.93692709  0.42801038  0.68723456  1
  Zn  Zn132  1  0.93061226  0.93785939  0.18784459  1
  Zn  Zn133  1  0.93616819  0.94361983  0.68999835  1
  Zn  Zn134  1  0.06005331  0.06141978  0.31404265  1
  Zn  Zn135  1  0.05952262  0.06357304  0.80784503  1
  Zn  Zn136  1  0.06166581  0.56480623  0.31498953  1
  Zn  Zn137  1  0.04401027  0.54757107  0.79592266  1
  Zn  Zn138  1  0.55671616  0.06249101  0.31428713  1
  Zn  Zn139  1  0.56172569  0.06022145  0.80598374  1
  Zn  Zn140  1  0.56437531  0.56342600  0.31171134  1
  Zn  Zn141  1  0.56334658  0.56661705  0.80922290  1
  Zn  Zn142  1  0.43587613  0.19219779  0.43002193  1
  Zn  Zn143  1  0.43626477  0.18191255  0.93082948  1
  Zn  Zn144  1  0.43427065  0.68714736  0.43832015  1
  Zn  Zn145  1  0.44187868  0.69148766  0.93172046  1
  Zn  Zn146  1  0.93266429  0.18401547  0.44476919  1
  Zn  Zn147  1  0.94138312  0.18615835  0.93582301  1
  Zn  Zn148  1  0.93928838  0.68340550  0.43886437  1
  Zn  Zn149  1  0.93785623  0.69147679  0.93451107  1
  Zn  Zn150  1  0.07418290  0.31263140  0.06378626  1
  Zn  Zn151  1  0.06053170  0.31727514  0.57127728  1
  Zn  Zn152  1  0.06869726  0.81543914  0.05628326  1
  Zn  Zn153  1  0.06602031  0.81604079  0.56560123  1
  Zn  Zn154  1  0.55675053  0.30637938  0.06479600  1
  Zn  Zn155  1  0.56774456  0.31487506  0.55368904  1
  Zn  Zn156  1  0.55889301  0.80443960  0.06217663  1
  Zn  Zn157  1  0.56299271  0.81425591  0.55993240  1
  O  O158  1  0.10902488  0.12527121  0.12940047  1
  O  O159  1  0.10446967  0.10802579  0.63949247  1
  O  O160  1  0.12537072  0.61047955  0.13121424  1
  O  O161  1  0.11398097  0.63515819  0.61369362  1
  O  O162  1  0.61444807  0.11818188  0.11808921  1
  O  O163  1  0.62306088  0.11766782  0.61255918  1
  O  O164  1  0.63211357  0.61220099  0.12358146  1
  O  O165  1  0.61511446  0.61231664  0.61704807  1
  O  O166  1  0.37224097  0.38668395  0.38850993  1
  O  O167  1  0.38841154  0.38257633  0.88121184  1
  O  O168  1  0.37863597  0.88050169  0.38123388  1
  O  O169  1  0.38724272  0.88173270  0.86910506  1
  O  O170  1  0.88318248  0.38578200  0.36957322  1
  O  O171  1  0.88136039  0.38218691  0.88401057  1
  O  O172  1  0.87810618  0.88924708  0.36716250  1
  O  O173  1  0.88044375  0.86832396  0.88395809  1
  O  O174  1  0.25251274  0.00383838  0.36923668  1
  O  O175  1  0.26427531  -0.01077907  0.86312345  1
  O  O176  1  0.25835750  0.49761560  0.36741068  1
  O  O177  1  0.27345131  0.49317803  0.85919724  1
  O  O178  1  0.75449095  0.00443896  0.37031145  1
  O  O179  1  0.74005579  -0.00769669  0.85688625  1
  O  O180  1  0.77230744  0.48959127  0.35529547  1
  O  O181  1  0.75821041  0.49390709  0.86746485  1
  O  O182  1  0.24542975  0.49284398  0.13845040  1
  O  O183  1  0.25712074  0.50701448  0.64360722  1
  O  O184  1  0.25953464  0.98410416  0.14009842  1
  O  O185  1  0.23703230  1.00273613  0.63679823  1
  O  O186  1  0.74627523  0.49256652  0.12627749  1
  O  O187  1  0.74005037  0.49645062  0.62951740  1
  O  O188  1  0.75036533  0.99179368  0.13306371  1
  O  O189  1  0.74467720  0.99374524  0.62646072  1
  O  O190  1  -0.00311196  0.35979377  0.25589934  1
  O  O191  1  0.00659973  0.38924201  0.76849166  1
  O  O192  1  0.00705745  0.86617499  0.24558314  1
  O  O193  1  -0.00473172  0.86962426  0.76218488  1
  O  O194  1  0.51675800  0.37692228  0.23811629  1
  O  O195  1  0.49944128  0.36432034  0.75926908  1
  O  O196  1  0.49507022  0.86227211  0.26355078  1
  O  O197  1  0.49873892  0.85780942  0.74959251  1
  O  O198  1  0.48809015  0.12315409  0.24395868  1
  O  O199  1  0.49244487  0.13216990  0.74486591  1
  O  O200  1  0.49247641  0.63687183  0.25696170  1
  O  O201  1  0.50304554  0.63803473  0.73672311  1
  O  O202  1  0.99241449  0.13122293  0.24649242  1
  O  O203  1  0.98327411  0.11748372  0.74028555  1
  O  O204  1  0.99369385  0.63764952  0.24527140  1
  O  O205  1  1.00230220  0.64058869  0.74230512  1
  O  O206  1  0.37555756  0.26341691  -0.01095795  1
  O  O207  1  0.36412285  0.25727468  0.49483009  1
  O  O208  1  0.38697936  0.74321523  0.01795702  1
  O  O209  1  0.35792532  0.75671810  0.49584387  1
  O  O210  1  0.86827032  0.25594239  0.00219502  1
  O  O211  1  0.85273805  0.25077027  0.49157250  1
  O  O212  1  0.86788016  0.75755122  0.00434125  1
  O  O213  1  0.87349922  0.74815146  0.51319404  1
  O  O214  1  0.13061290  0.25136073  0.48910208  1
  O  O215  1  0.11805739  0.24347369  0.98636560  1
  O  O216  1  0.13621422  0.75400475  0.49439146  1
  O  O217  1  0.14267130  0.73678529  0.99594729  1
  O  O218  1  0.63097779  0.23421300  0.49911455  1
  O  O219  1  0.63071251  0.23970138  0.99381681  1
  O  O220  1  0.63977273  0.74774626  0.50329345  1
  O  O221  1  0.63864050  0.74957501  0.99593190  1
  O  O222  1  0.50447208  0.23118388  0.13650994  1
  O  O223  1  0.50543814  0.25220781  0.63729271  1
  O  O224  1  0.48807503  0.75986297  0.14201622  1
  O  O225  1  0.50377251  0.74176430  0.63267407  1
  O  O226  1  0.99559211  0.24329260  0.13379838  1
  O  O227  1  1.00306656  0.23283056  0.62107935  1
  O  O228  1  0.99377820  0.75313602  0.12894632  1
  O  O229  1  0.99221265  0.75398592  0.63416100  1
  O  O230  1  0.00210632  0.25046498  0.37179526  1
  O  O231  1  0.00182122  0.26625244  0.87736813  1
  O  O232  1  0.00356450  0.75251878  0.36501435  1
  O  O233  1  -0.00154830  0.75937456  0.86298449  1
  O  O234  1  0.50385721  0.24945818  0.36640772  1
  O  O235  1  0.50806741  0.25329273  0.86661638  1
  O  O236  1  0.49726655  0.75751489  0.36585406  1
  O  O237  1  0.50694382  0.75579791  0.85861279  1
  O  O238  1  0.25799763  0.12834639  0.48828582  1
  O  O239  1  0.24511862  0.11688841  1.00078091  1
  O  O240  1  0.23621188  0.64108554  0.50795216  1
  O  O241  1  0.24127609  0.58647900  0.98961400  1
  O  O242  1  0.74094798  0.13371935  0.49267715  1
  O  O243  1  0.74223863  0.13446986  1.00787788  1
  O  O244  1  0.75322651  0.64218849  0.51094846  1
  O  O245  1  0.75765894  0.64115501  0.99975151  1
  O  O246  1  0.27176581  0.38772569  -0.00413298  1
  O  O247  1  0.25539237  0.36328513  0.50216281  1
  O  O248  1  0.24607522  0.88524274  0.01819691  1
  O  O249  1  0.25799125  0.86373261  0.49683900  1
  O  O250  1  0.75728040  0.36735582  0.00426325  1
  O  O251  1  0.73410802  0.36336972  0.48541266  1
  O  O252  1  0.75705632  0.86798630  0.00467654  1
  O  O253  1  0.74880220  0.86298878  0.51201234  1
  O  O254  1  0.13354652  0.50115392  0.24931499  1
  O  O255  1  0.14103669  0.50037188  0.76648852  1
  O  O256  1  0.13259614  0.98901879  0.25621177  1
  O  O257  1  0.14153941  1.00076844  0.75131831  1
  O  O258  1  0.63401420  0.49158102  0.23504486  1
  O  O259  1  0.63205821  0.49915140  0.74518551  1
  O  O260  1  0.63715981  1.00350713  0.25001589  1
  O  O261  1  0.64021579  1.01362117  0.73222865  1
  O  O262  1  0.36309826  0.00419541  0.26086131  1
  O  O263  1  0.35997278  0.00504856  0.75146448  1
  O  O264  1  0.37254492  0.50588556  0.25683267  1
  O  O265  1  0.38220752  0.50192022  0.76022771  1
  O  O266  1  0.86413873  0.00596589  0.25771408  1
  O  O267  1  0.86167160  0.00628047  0.75038146  1
  O  O268  1  0.86974676  0.50957533  0.24236638  1
  O  O269  1  0.86907953  0.50063126  0.76000513  1
  O  O270  1  0.11496922  0.36368219  0.37201214  1
  O  O271  1  0.11276039  0.36983678  0.88309093  1
  O  O272  1  0.12079129  0.86586568  0.36403841  1
  O  O273  1  0.11282763  0.87681012  0.87915952  1
  O  O274  1  0.62930524  0.38507892  0.35508065  1
  O  O275  1  0.61639720  0.36113384  0.87319310  1
  O  O276  1  0.60674242  0.88214867  0.38529850  1
  O  O277  1  0.61078540  0.86103254  0.87296071  1
  O  O278  1  0.38379708  0.11888697  0.13328765  1
  O  O279  1  0.37596429  0.11776609  0.64112805  1
  O  O280  1  0.37453092  0.63701398  0.13768070  1
  O  O281  1  0.38980725  0.62718144  0.62058409  1
  O  O282  1  0.88079261  0.13027875  0.13176446  1
  O  O283  1  0.88564536  0.12105091  0.63338873  1
  O  O284  1  0.87717322  0.63901680  0.13170264  1
  O  O285  1  0.89160023  0.63573078  0.62580381  1
  O  O286  1  0.23170817  0.26024083  0.11411047  1
  O  O287  1  0.23726873  0.23701376  0.61050261  1
  O  O288  1  0.26431809  0.75934873  0.12890807  1
  O  O289  1  0.24649297  0.75655177  0.61837817  1
  O  O290  1  0.75434389  0.25641611  0.11499617  1
  O  O291  1  0.74059315  0.26064598  0.60845335  1
  O  O292  1  0.75609978  0.75667797  0.11404708  1
  O  O293  1  0.76417233  0.75792545  0.62318443  1
  O  O294  1  0.24040184  0.24016726  0.38201416  1
  O  O295  1  0.23795974  0.25591223  0.88500898  1
  O  O296  1  0.23842903  0.74922967  0.37375590  1
  O  O297  1  0.25118269  0.75428079  0.91707828  1
  O  O298  1  0.74717047  0.23707808  0.37631910  1
  O  O299  1  0.73939539  0.25612510  0.88480525  1
  O  O300  1  0.76072780  0.75182993  0.39145217  1
  O  O301  1  0.74101546  0.75816405  0.88167607  1
  O  O302  1  -0.00442807  0.11631667  0.01028880  1
  O  O303  1  -0.00577713  0.11268031  0.51372965  1
  O  O304  1  -0.00709970  0.61335257  0.00028160  1
  O  O305  1  0.01090976  0.62761134  0.51322307  1
  O  O306  1  0.50440250  0.12906271  0.01320254  1
  O  O307  1  0.50930959  0.12818579  0.50022280  1
  O  O308  1  0.50251653  0.61246091  -0.00570231  1
  O  O309  1  0.50047544  0.61942937  0.50884252  1
  O  O310  1  0.48837359  0.38637497  0.50684027  1
  O  O311  1  0.49559361  0.37406887  0.98961585  1
  O  O312  1  0.48252577  0.85991531  0.48609938  1
  O  O313  1  0.49919190  0.86563189  0.98305738  1
  O  O314  1  1.00100159  0.36954321  0.48739778  1
  O  O315  1  0.98904676  0.38153456  0.99578382  1
  O  O316  1  1.00421234  0.89102132  0.50021160  1
  O  O317  1  0.99425880  0.87751352  0.98979265  1
  O  O318  1  0.48693170  0.50493106  0.38791552  1
  O  O319  1  0.50017207  0.49269774  0.88007663  1
  O  O320  1  0.48636459  0.98504353  0.36817034  1
  O  O321  1  0.49384208  0.98240737  0.86189549  1
  O  O322  1  0.98975847  0.48861352  0.36645417  1
  O  O323  1  0.99167394  0.49255787  0.88473473  1
  O  O324  1  0.99060582  1.00263482  0.38376882  1
  O  O325  1  0.99915201  0.98707042  0.87973750  1
  O  O326  1  -0.00830351  0.00739001  0.11874304  1
  O  O327  1  0.00568991  0.00325601  0.61974106  1
  O  O328  1  0.00495850  0.50353211  0.11888055  1
  O  O329  1  0.00401356  0.51932031  0.64171401  1
  O  O330  1  0.49893714  0.01272135  0.13271283  1
  O  O331  1  0.51425461  0.00042737  0.63369169  1
  O  O332  1  0.50899214  0.49887134  0.10814491  1
  O  O333  1  0.50193972  0.51164317  0.62175902  1
  O  O334  1  0.25111625  0.38613368  0.25314941  1
  O  O335  1  0.25087642  0.38803482  0.74466245  1
  O  O336  1  0.24226108  0.87993894  0.24820407  1
  O  O337  1  0.25165972  0.87886913  0.74939960  1
  O  O338  1  0.74684485  0.38289020  0.23709144  1
  O  O339  1  0.74935951  0.38704772  0.74464854  1
  O  O340  1  0.75357156  0.88182294  0.23750740  1
  O  O341  1  0.75454460  0.88882755  0.73492209  1
  O  O342  1  0.25307621  0.11553639  0.25722512  1
  O  O343  1  0.26126221  0.12587316  0.75203189  1
  O  O344  1  0.26089421  0.61413283  0.24769832  1
  O  O345  1  0.24731347  0.61705632  0.75615927  1
  O  O346  1  0.75115541  0.11796672  0.25595128  1
  O  O347  1  0.76190059  0.11454984  0.74276593  1
  O  O348  1  0.76158685  0.61668665  0.24300635  1
  O  O349  1  0.75353168  0.61014163  0.73990284  1
  O  O350  1  0.36494803  0.11404778  0.36881264  1
  O  O351  1  0.38701871  0.10417072  0.85935238  1
  O  O352  1  0.37451533  0.61482424  0.36719094  1
  O  O353  1  0.38348564  0.61183846  0.87522292  1
  O  O354  1  0.86309274  0.11649905  0.37035106  1
  O  O355  1  0.87964140  0.12684469  0.86088176  1
  O  O356  1  0.88633809  0.61121726  0.36124714  1
  O  O357  1  0.88012928  0.61246500  0.87181617  1
  O  O358  1  0.12100809  0.39014650  0.13458285  1
  O  O359  1  0.12742647  0.38206107  0.62813253  1
  O  O360  1  0.14000831  0.86318602  0.13659900  1
  O  O361  1  0.11740019  0.89366923  0.63380381  1
  O  O362  1  0.63617298  0.38087884  0.12153079  1
  O  O363  1  0.61732561  0.38916323  0.62998830  1
  O  O364  1  0.63654452  0.87526344  0.11460932  1
  O  O365  1  0.63109255  0.89015090  0.61819202  1
  O  O366  1  0.11316946  0.24739367  0.26276870  1
  O  O367  1  0.12837343  0.25664977  0.76950009  1
  O  O368  1  0.11888476  0.75283154  0.25541161  1
  O  O369  1  0.11112149  0.75420144  0.74588904  1
  O  O370  1  0.63317193  0.26831475  0.24325964  1
  O  O371  1  0.61945182  0.24469186  0.75739226  1
  O  O372  1  0.61136441  0.74428415  0.24645540  1
  O  O373  1  0.63303368  0.74974289  0.75405275  1
  O  O374  1  0.36695314  0.23501884  0.25548826  1
  O  O375  1  0.38179113  0.23617947  0.76168428  1
  O  O376  1  0.38102968  0.74060606  0.24798515  1
  O  O377  1  0.38068574  0.74962124  0.75557725  1
  O  O378  1  0.87998970  0.24482771  0.24664065  1
  O  O379  1  0.86552367  0.23817127  0.74849081  1
  O  O380  1  0.88038958  0.74592158  0.24273512  1
  O  O381  1  0.88322671  0.74954734  0.73762494  1
  O  O382  1  0.37650172  0.49547849  0.49537208  1
  O  O383  1  0.39419088  0.49145342  0.98964604  1
  O  O384  1  0.36380297  0.98515262  0.49029143  1
  O  O385  1  0.37618058  1.00075436  0.98147529  1
  O  O386  1  0.87115925  0.50857154  0.48150950  1
  O  O387  1  0.87864361  0.49195254  0.99562646  1
  O  O388  1  0.87907234  1.00470150  0.49067783  1
  O  O389  1  0.88391251  0.98818985  1.00240196  1
  O  O390  1  0.10582487  0.00067583  -0.00174485  1
  O  O391  1  0.12143287  0.00036421  0.51401679  1
  O  O392  1  0.10991991  0.48980943  0.01024004  1
  O  O393  1  0.13566651  0.51574536  0.49625532  1
  O  O394  1  0.63149005  0.01100032  -0.00170064  1
  O  O395  1  0.62984376  0.01303448  0.51415133  1
  O  O396  1  0.61436509  0.49430183  0.00148158  1
  O  O397  1  0.60922976  0.49186157  0.51314169  1
  O  O398  1  0.38087735  0.37847379  0.10859432  1
  O  O399  1  0.36772074  0.37861067  0.61073516  1
  O  O400  1  0.36469674  0.86277452  0.13265512  1
  O  O401  1  0.38124227  0.88063494  0.60751741  1
  O  O402  1  0.86676597  0.37043289  0.11592451  1
  O  O403  1  0.88132280  0.39670426  0.60075207  1
  O  O404  1  0.86673498  0.86494091  0.11679880  1
  O  O405  1  0.87144454  0.86666959  0.62547474  1
  O  O406  1  0.13407056  0.13014260  0.37168180  1
  O  O407  1  0.11592482  0.13824491  0.87499219  1
  O  O408  1  0.11320357  0.63601579  0.39274767  1
  O  O409  1  0.17071967  0.74773237  0.92136076  1
  O  O410  1  0.63140545  0.11112941  0.38895187  1
  O  O411  1  0.61387495  0.13264319  0.88459486  1
  O  O412  1  0.64435914  0.57762990  0.38711677  1
  O  O413  1  0.61906514  0.64514512  0.87259196  1
