# generated using pymatgen
data_V79Zn79O256
_symmetry_space_group_name_H-M   'P 1'
_cell_length_a   16.98114620
_cell_length_b   16.90752025
_cell_length_c   16.99326747
_cell_angle_alpha   90.08365097
_cell_angle_beta   89.87580760
_cell_angle_gamma   90.00384256
_symmetry_Int_Tables_number   1
_chemical_formula_structural   V79Zn79O256
_chemical_formula_sum   'V79 Zn79 O256'
_cell_volume   4878.90460332
_cell_formula_units_Z   1
loop_
 _symmetry_equiv_pos_site_id
 _symmetry_equiv_pos_as_xyz
  1  'x, y, z'
loop_
 _atom_site_type_symbol
 _atom_site_label
 _atom_site_symmetry_multiplicity
 _atom_site_fract_x
 _atom_site_fract_y
 _atom_site_fract_z
 _atom_site_occupancy
  V  V0  1  0.26020930  0.62361113  0.87845825  1
  V  V1  1  0.13006766  0.74661503  0.88429564  1
  V  V2  1  0.62541160  0.24568646  0.87340104  1
  V  V3  1  0.25109678  0.01135606  0.74140170  1
  V  V4  1  0.18178399  0.69125999  0.55451355  1
  V  V5  1  0.00202834  0.38066941  0.88053963  1
  V  V6  1  0.76067740  0.24512977  0.50371901  1
  V  V7  1  0.36993643  0.00358667  0.37140792  1
  V  V8  1  -0.01281813  0.75301214  0.25239157  1
  V  V9  1  0.27246837  0.49868797  0.75540566  1
  V  V10  1  0.00714912  0.12758917  0.60598299  1
  V  V11  1  0.87710136  0.11944271  0.74316176  1
  V  V12  1  0.50121424  0.12638390  0.13616356  1
  V  V13  1  0.74372992  0.60704918  0.36698309  1
  V  V14  1  0.50471118  0.74907069  0.75417987  1
  V  V15  1  0.75568410  0.36905480  0.62675433  1
  V  V16  1  0.36582588  0.86365165  0.49640534  1
  V  V17  1  0.87869405  0.39605117  0.50176092  1
  V  V18  1  0.74704339  0.62612288  0.87196412  1
  V  V19  1  0.62784865  0.12072166  0.50219343  1
  V  V20  1  0.74927946  0.87555690  0.13094617  1
  V  V21  1  0.49781505  0.12203360  0.62554891  1
  V  V22  1  0.50064205  0.50312586  -0.00657688  1
  V  V23  1  0.87862744  0.36808113  -0.00086705  1
  V  V24  1  0.50347006  0.62524340  0.12183767  1
  V  V25  1  0.14160538  0.38482072  0.24329054  1
  V  V26  1  -0.00305234  0.38764400  0.37516282  1
  V  V27  1  0.49762461  0.86847152  0.37225585  1
  V  V28  1  0.81732665  0.30729386  0.17141927  1
  V  V29  1  0.25098056  0.23565928  0.49082734  1
  V  V30  1  0.87185098  0.11707709  0.24417568  1
  V  V31  1  0.12625859  0.87649824  0.74403093  1
  V  V32  1  0.23915580  0.87776743  0.61821488  1
  V  V33  1  0.37252206  0.37404837  0.00148199  1
  V  V34  1  0.12213787  0.87364541  0.25090007  1
  V  V35  1  0.50907343  0.50449581  0.49927092  1
  V  V36  1  0.49659137  0.24496918  0.74885896  1
  V  V37  1  0.22735342  0.39022613  0.59717265  1
  V  V38  1  0.87980273  0.62428942  0.73812731  1
  V  V39  1  0.75225907  0.11708390  0.37389342  1
  V  V40  1  -0.00017468  0.74823990  0.73239276  1
  V  V41  1  0.74665122  0.25166499  -0.00358493  1
  V  V42  1  0.62543099  0.87907696  0.25089012  1
  V  V43  1  0.24563617  0.62673315  0.37090993  1
  V  V44  1  -0.00595143  0.25147365  0.74378312  1
  V  V45  1  0.62592105  0.37814476  0.74370673  1
  V  V46  1  0.62024107  0.25968360  0.37190303  1
  V  V47  1  0.13015571  0.24135839  0.37762925  1
  V  V48  1  0.00147909  0.25427876  0.24292958  1
  V  V49  1  0.37382453  0.49916300  0.37194515  1
  V  V50  1  -0.00323760  0.00075922  -0.00409069  1
  V  V51  1  0.88181205  -0.01085969  0.37660098  1
  V  V52  1  0.74348333  0.75427844  -0.00853293  1
  V  V53  1  0.37202901  0.25034465  0.62389014  1
  V  V54  1  0.37018461  0.62433359  0.24728781  1
  V  V55  1  0.75925052  0.11954414  0.87268514  1
  V  V56  1  0.87252843  0.87992040  -0.00656243  1
  V  V57  1  0.12951741  0.12779805  -0.00324292  1
  V  V58  1  0.12561270  0.74822741  0.36931264  1
  V  V59  1  0.87763898  0.50347505  0.88581205  1
  V  V60  1  0.63249616  0.74798691  0.37983700  1
  V  V61  1  0.36695068  0.75403375  0.11577490  1
  V  V62  1  0.50005232  -0.00384506  0.50255933  1
  V  V63  1  0.62384098  0.63196408  -0.00257603  1
  V  V64  1  0.13355045  0.50682923  0.11116987  1
  V  V65  1  0.13034140  0.24971745  0.87742857  1
  V  V66  1  0.36515007  0.73497890  0.62853389  1
  V  V67  1  0.12557188  0.38690616  0.75303779  1
  V  V68  1  0.24829117  0.00677581  0.25205320  1
  V  V69  1  0.49974613  0.38304343  0.86978427  1
  V  V70  1  0.00106652  0.87601285  0.87490815  1
  V  V71  1  0.38643964  0.37102771  0.49124567  1
  V  V72  1  0.87060347  0.60701957  0.25146821  1
  V  V73  1  0.74984095  0.49963228  0.74486009  1
  V  V74  1  0.12272297  0.00126684  0.12347991  1
  V  V75  1  0.51156028  0.61751175  0.62796967  1
  V  V76  1  0.01140250  -0.02041615  0.49512514  1
  V  V77  1  0.48420370  0.00601522  0.00182738  1
  V  V78  1  0.62898696  -0.00023582  0.11259665  1
  Zn  Zn79  1  0.69617733  0.67498330  0.55673485  1
  Zn  Zn80  1  0.49426596  0.87126392  0.87031044  1
  Zn  Zn81  1  0.25620318  0.13132511  0.86811280  1
  Zn  Zn82  1  0.50098598  0.74893211  0.24579941  1
  Zn  Zn83  1  0.50451933  0.26881811  0.25211895  1
  Zn  Zn84  1  0.24542553  0.87416217  0.11397894  1
  Zn  Zn85  1  0.35235841  0.26526045  0.13118173  1
  Zn  Zn86  1  -0.00060180  0.62083979  0.11021962  1
  Zn  Zn87  1  0.87542281  0.74881859  0.12183195  1
  Zn  Zn88  1  -0.00802987  0.13289351  0.11641438  1
  Zn  Zn89  1  0.36497199  0.87323234  -0.01390364  1
  Zn  Zn90  1  0.77248316  -0.03801145  0.71959150  1
  Zn  Zn91  1  0.37047898  0.13744613  0.25612055  1
  Zn  Zn92  1  0.37366920  0.00709892  0.86042431  1
  Zn  Zn93  1  0.81981651  0.80630692  0.59015200  1
  Zn  Zn94  1  0.18319004  0.19078528  0.18619285  1
  Zn  Zn95  1  0.17942655  0.20178476  0.67811265  1
  Zn  Zn96  1  0.18780747  0.68363536  0.18507880  1
  Zn  Zn97  1  0.12010741  0.60903471  0.74217339  1
  Zn  Zn98  1  0.68184393  0.18275282  0.19080534  1
  Zn  Zn99  1  0.68919537  0.17970986  0.68483541  1
  Zn  Zn100  1  0.68900870  0.69226610  0.18673279  1
  Zn  Zn101  1  0.67834892  0.81082779  0.69709620  1
  Zn  Zn102  1  0.31659552  0.31110873  0.31197344  1
  Zn  Zn103  1  0.31501157  0.31506924  0.81253258  1
  Zn  Zn104  1  0.30749237  0.81263963  0.30316643  1
  Zn  Zn105  1  0.31125569  0.81629644  0.80976233  1
  Zn  Zn106  1  0.81037031  0.31177486  0.33316540  1
  Zn  Zn107  1  0.81345717  0.31239144  0.81659094  1
  Zn  Zn108  1  0.80504650  0.82456387  0.42794660  1
  Zn  Zn109  1  0.82052073  0.81071259  0.80750697  1
  Zn  Zn110  1  0.19474522  0.42866909  0.42229479  1
  Zn  Zn111  1  0.19709671  0.43592146  0.93494530  1
  Zn  Zn112  1  0.18596718  0.93713794  0.43354234  1
  Zn  Zn113  1  0.19089258  0.94115630  0.93271512  1
  Zn  Zn114  1  0.69042661  0.43708343  0.44299436  1
  Zn  Zn115  1  0.70877107  0.46072888  0.98073556  1
  Zn  Zn116  1  0.67281291  0.93876433  0.56892900  1
  Zn  Zn117  1  0.68572952  0.93672072  0.92708612  1
  Zn  Zn118  1  0.30007492  0.09392464  0.07789002  1
  Zn  Zn119  1  0.31500041  0.05710719  0.56331896  1
  Zn  Zn120  1  0.31298570  0.55943319  0.05903371  1
  Zn  Zn121  1  0.30914425  0.55298581  0.55649470  1
  Zn  Zn122  1  0.80957177  0.06453730  0.05738590  1
  Zn  Zn123  1  0.82181604  -0.02179270  0.56381487  1
  Zn  Zn124  1  0.80853163  0.56316058  0.07759017  1
  Zn  Zn125  1  0.87410565  0.64184534  0.47826926  1
  Zn  Zn126  1  0.43219335  0.44718944  0.17931893  1
  Zn  Zn127  1  0.43672078  0.43241307  0.68003946  1
  Zn  Zn128  1  0.43707632  0.93928361  0.18711524  1
  Zn  Zn129  1  0.43055808  0.92937391  0.68127225  1
  Zn  Zn130  1  0.95129033  0.44194891  0.18168611  1
  Zn  Zn131  1  0.93377091  0.44004564  0.69230130  1
  Zn  Zn132  1  0.93644420  0.93479778  0.18396308  1
  Zn  Zn133  1  0.95206462  0.94372548  0.68388482  1
  Zn  Zn134  1  0.05710668  0.06328103  0.31078559  1
  Zn  Zn135  1  0.06612529  0.06270642  0.80936289  1
  Zn  Zn136  1  0.06022899  0.56645840  0.30428988  1
  Zn  Zn137  1  0.06405563  0.56752787  0.94045907  1
  Zn  Zn138  1  0.56659429  0.05659673  0.31654874  1
  Zn  Zn139  1  0.56081183  0.06626522  0.81831334  1
  Zn  Zn140  1  0.55587069  0.56006743  0.31042313  1
  Zn  Zn141  1  0.56489736  0.56718990  0.80870152  1
  Zn  Zn142  1  0.44176835  0.18502816  0.43581640  1
  Zn  Zn143  1  0.43012913  0.18174769  0.94045783  1
  Zn  Zn144  1  0.43842152  0.68341247  0.43776824  1
  Zn  Zn145  1  0.43166100  0.68589730  0.93416406  1
  Zn  Zn146  1  0.94069046  0.19297470  0.42786924  1
  Zn  Zn147  1  0.93983430  0.19053119  0.93195974  1
  Zn  Zn148  1  0.98950850  0.76423299  0.50810349  1
  Zn  Zn149  1  0.93235282  0.69635235  0.93254487  1
  Zn  Zn150  1  0.06991525  0.31674704  0.06249225  1
  Zn  Zn151  1  0.06097180  0.41829521  0.56525860  1
  Zn  Zn152  1  0.06038652  0.80888317  0.06562634  1
  Zn  Zn153  1  0.00823691  0.59316710  0.58770621  1
  Zn  Zn154  1  0.53236115  0.28744243  0.03830275  1
  Zn  Zn155  1  0.56647351  0.31047565  0.56156871  1
  Zn  Zn156  1  0.55524879  0.81623559  0.05794964  1
  Zn  Zn157  1  0.55181617  0.80191351  0.55861087  1
  O  O158  1  0.11505705  0.11620496  0.11555878  1
  O  O159  1  0.10430148  0.13044857  0.62896454  1
  O  O160  1  0.12418329  0.61140165  0.12763169  1
  O  O161  1  0.12538851  0.63708059  0.61925017  1
  O  O162  1  0.62256242  0.10410748  0.13157667  1
  O  O163  1  0.61002301  0.13254773  0.61288920  1
  O  O164  1  0.61424526  0.63819058  0.11071034  1
  O  O165  1  0.60873724  0.62307855  0.61773217  1
  O  O166  1  0.37553026  0.38512200  0.38033304  1
  O  O167  1  0.39399253  0.36386526  0.88379058  1
  O  O168  1  0.37935668  0.87647829  0.37729687  1
  O  O169  1  0.37731162  0.88786642  0.87051045  1
  O  O170  1  0.88642448  0.37423783  0.38735287  1
  O  O171  1  0.88353573  0.38176171  0.88098323  1
  O  O172  1  0.87222100  0.89209896  0.36231201  1
  O  O173  1  0.88834261  0.87155540  0.88466883  1
  O  O174  1  0.26055589  -0.00865441  0.36490314  1
  O  O175  1  0.24464695  0.00408511  0.85003141  1
  O  O176  1  0.26329086  0.51270935  0.38151888  1
  O  O177  1  0.25132597  0.50913915  0.86416542  1
  O  O178  1  0.77128321  0.01543782  0.37909534  1
  O  O179  1  0.74844642  0.02053385  0.87814337  1
  O  O180  1  0.73382997  0.50805136  0.36464496  1
  O  O181  1  0.75864334  0.50824912  0.87598502  1
  O  O182  1  0.23557952  0.50196519  0.12014254  1
  O  O183  1  0.26440466  0.48294262  0.63864249  1
  O  O184  1  0.23373779  1.00480779  0.13307860  1
  O  O185  1  0.24890829  0.98916952  0.62871582  1
  O  O186  1  0.73271609  0.48695773  0.08830434  1
  O  O187  1  0.75246021  0.48480652  0.64346548  1
  O  O188  1  0.73677717  0.99076567  0.11237334  1
  O  O189  1  0.73566360  1.01814027  0.62888097  1
  O  O190  1  -0.00088475  0.36959883  0.26064371  1
  O  O191  1  0.00410853  0.36640982  0.75926996  1
  O  O192  1  0.00970765  0.86441910  0.24322456  1
  O  O193  1  0.00549772  0.87167247  0.75701839  1
  O  O194  1  0.51533441  0.39087547  0.24282078  1
  O  O195  1  0.50699367  0.36822488  0.75005934  1
  O  O196  1  0.50465290  0.87438487  0.25892090  1
  O  O197  1  0.48581805  0.85150289  0.74208901  1
  O  O198  1  0.50504729  0.11715989  0.24136617  1
  O  O199  1  0.50712323  0.13400299  0.73852616  1
  O  O200  1  0.49172082  0.62532940  0.23782448  1
  O  O201  1  0.49780295  0.62743496  0.73496451  1
  O  O202  1  0.98575633  0.13801255  0.24957410  1
  O  O203  1  0.99156310  0.13746643  0.76073197  1
  O  O204  1  0.98238717  0.63491092  0.25303186  1
  O  O205  1  1.00232965  0.64084237  0.74272509  1
  O  O206  1  0.40941608  0.26854603  0.01261118  1
  O  O207  1  0.37455955  0.25392013  0.50067830  1
  O  O208  1  0.37774722  0.75104408  0.01301803  1
  O  O209  1  0.37954131  0.75804682  0.50654532  1
  O  O210  1  0.86748741  0.25856774  -0.00441628  1
  O  O211  1  0.86135883  0.25128436  0.49174090  1
  O  O212  1  0.86424375  0.76440367  0.00127036  1
  O  O213  1  0.87182037  0.76051021  0.49669827  1
  O  O214  1  0.13685438  0.25506847  0.47952413  1
  O  O215  1  0.11804553  0.23990337  0.99058859  1
  O  O216  1  0.12428090  0.74562262  0.48974979  1
  O  O217  1  0.12377872  0.75638478  0.98285217  1
  O  O218  1  0.63110464  0.24041511  0.49182602  1
  O  O219  1  0.63196569  0.25685749  0.98446506  1
  O  O220  1  0.61757195  0.74080111  0.48226683  1
  O  O221  1  0.63224784  0.74818194  0.99588899  1
  O  O222  1  0.52345970  0.23136972  0.13559027  1
  O  O223  1  0.49316726  0.24436195  0.62945044  1
  O  O224  1  0.48937464  0.74087039  0.12298232  1
  O  O225  1  0.48306535  0.73246320  0.62884730  1
  O  O226  1  1.00708988  0.25142034  0.13814557  1
  O  O227  1  1.00074936  0.24225803  0.64407350  1
  O  O228  1  0.99927763  0.74392607  0.13908117  1
  O  O229  1  0.99909337  0.76279281  0.63591761  1
  O  O230  1  0.01126388  0.26068421  0.36322279  1
  O  O231  1  0.00931426  0.26211249  0.86930536  1
  O  O232  1  0.01799495  0.74909456  0.35776257  1
  O  O233  1  0.01047012  0.76300727  0.87125716  1
  O  O234  1  0.51543743  0.24755074  0.37468057  1
  O  O235  1  0.50776892  0.25054636  0.86413112  1
  O  O236  1  0.50324076  0.75511828  0.37176405  1
  O  O237  1  0.48698223  0.74839275  0.85778541  1
  O  O238  1  0.25815771  0.13668611  0.50288608  1
  O  O239  1  0.22910636  0.10579227  0.98637711  1
  O  O240  1  0.23930690  0.62659127  0.49530037  1
  O  O241  1  0.25334193  0.61768419  0.97802261  1
  O  O242  1  0.73874221  0.13130080  0.49312310  1
  O  O243  1  0.75860625  0.13916387  0.98500460  1
  O  O244  1  0.75539597  0.62511427  0.47142892  1
  O  O245  1  0.74161925  0.63551539  0.99351659  1
  O  O246  1  0.27483698  0.36850847  -0.01382668  1
  O  O247  1  0.26921071  0.35885556  0.49447372  1
  O  O248  1  0.25400561  0.88330971  0.00262911  1
  O  O249  1  0.25802500  0.88086143  0.50361228  1
  O  O250  1  0.76285607  0.35926711  -0.00935372  1
  O  O251  1  0.76192631  0.37005986  0.50594718  1
  O  O252  1  0.75371253  0.87208303  -0.00381750  1
  O  O253  1  0.75990308  0.88608179  0.51337365  1
  O  O254  1  0.12578113  0.48755725  0.24675396  1
  O  O255  1  0.12266368  0.48723365  0.75259853  1
  O  O256  1  0.12539016  0.99443125  0.24436987  1
  O  O257  1  0.12876393  0.98489191  0.74825826  1
  O  O258  1  0.61955218  0.48168370  0.24610334  1
  O  O259  1  0.63671395  0.48766535  0.75888905  1
  O  O260  1  0.62230945  0.98458840  0.24177100  1
  O  O261  1  0.60833216  0.96613288  0.78545508  1
  O  O262  1  0.36431471  -0.00358957  0.25629012  1
  O  O263  1  0.35531188  -0.00077489  0.73925568  1
  O  O264  1  0.38288181  0.51152914  0.26048338  1
  O  O265  1  0.37144597  0.49371533  0.75360848  1
  O  O266  1  0.88704190  0.01258390  0.25945208  1
  O  O267  1  0.88122643  0.01782448  0.75352540  1
  O  O268  1  0.87750417  0.50860414  0.24368257  1
  O  O269  1  0.86842236  0.50385073  0.76452630  1
  O  O270  1  0.11589088  0.36925136  0.36086450  1
  O  O271  1  0.11911581  0.37055579  0.87253833  1
  O  O272  1  0.13437415  0.86321064  0.35938462  1
  O  O273  1  0.12199911  0.86521017  0.86529100  1
  O  O274  1  0.63316194  0.35804622  0.38241399  1
  O  O275  1  0.61369399  0.36180748  0.85881109  1
  O  O276  1  0.61172189  0.86119600  0.36722608  1
  O  O277  1  0.60359394  0.91253245  0.84913761  1
  O  O278  1  0.39702736  0.12098591  0.13754574  1
  O  O279  1  0.38543534  0.13935627  0.61571589  1
  O  O280  1  0.37941166  0.63177286  0.12858532  1
  O  O281  1  0.36757127  0.63397789  0.61523159  1
  O  O282  1  0.87387839  0.11766399  0.13879333  1
  O  O283  1  0.89474297  0.12991728  0.64326267  1
  O  O284  1  0.87385602  0.63081713  0.13916237  1
  O  O285  1  0.87814248  0.61603751  0.64137301  1
  O  O286  1  0.26325464  0.20319720  0.11100098  1
  O  O287  1  0.25600973  0.26113756  0.61198042  1
  O  O288  1  0.26417630  0.74826469  0.12785762  1
  O  O289  1  0.25188213  0.75143837  0.60889868  1
  O  O290  1  0.74876636  0.24860886  0.11712352  1
  O  O291  1  0.74638280  0.25901828  0.61665488  1
  O  O292  1  0.74956276  0.76072180  0.10914308  1
  O  O293  1  0.74288279  0.73825091  0.63526084  1
  O  O294  1  0.24026830  0.25135902  0.37549723  1
  O  O295  1  0.23450800  0.24987583  0.86389750  1
  O  O296  1  0.24162679  0.73930352  0.36947254  1
  O  O297  1  0.23594320  0.73930528  0.86140478  1
  O  O298  1  0.74059711  0.23864366  0.38537160  1
  O  O299  1  0.74283445  0.24537948  0.87871673  1
  O  O300  1  0.73248809  0.75433320  0.37085026  1
  O  O301  1  0.76087462  0.73816730  0.88460700  1
  O  O302  1  0.00323674  0.11621218  -0.00350687  1
  O  O303  1  0.00035844  0.13759496  0.50696407  1
  O  O304  1  -0.00720986  0.63061368  -0.00232379  1
  O  O305  1  -0.01502397  0.64846980  0.49740786  1
  O  O306  1  0.50089772  0.11517490  0.02039051  1
  O  O307  1  0.50637132  0.11624094  0.50509569  1
  O  O308  1  0.50402345  0.62398952  -0.00032839  1
  O  O309  1  0.49172964  0.61282369  0.51237633  1
  O  O310  1  0.49360157  0.38728496  0.50782362  1
  O  O311  1  0.50568308  0.38835864  0.98784940  1
  O  O312  1  0.48735505  0.87840240  0.49102242  1
  O  O313  1  0.49238164  0.88970572  0.99429102  1
  O  O314  1  0.98785352  0.37410398  0.48824218  1
  O  O315  1  0.99084110  0.36609585  0.99102171  1
  O  O316  1  1.00547139  0.88098709  0.50112869  1
  O  O317  1  0.99278086  0.88045287  0.99512983  1
  O  O318  1  0.48747499  0.51237246  0.39100991  1
  O  O319  1  0.50382700  0.49199013  0.87613702  1
  O  O320  1  0.49200939  0.98709744  0.38199375  1
  O  O321  1  0.49148041  1.01664166  0.89707455  1
  O  O322  1  1.00780768  0.48621958  0.37203812  1
  O  O323  1  0.99327486  0.48831389  0.87664055  1
  O  O324  1  0.99188761  1.00302001  0.38243844  1
  O  O325  1  1.01170839  0.98672642  0.88489878  1
  O  O326  1  0.00683574  0.00036116  0.11439459  1
  O  O327  1  -0.00275977  0.01432142  0.60261758  1
  O  O328  1  0.02125172  0.50416920  0.12441694  1
  O  O329  1  0.00838641  0.49264185  0.62976672  1
  O  O330  1  0.51078214  0.00266606  0.12014910  1
  O  O331  1  0.48379764  0.00874339  0.61235158  1
  O  O332  1  0.49510034  0.51759858  0.10946200  1
  O  O333  1  0.49159737  0.51000566  0.61478364  1
  O  O334  1  0.23987791  0.37464432  0.25202863  1
  O  O335  1  0.24304375  0.38839817  0.75741655  1
  O  O336  1  0.23863356  0.88451910  0.23893287  1
  O  O337  1  0.24207071  0.88057992  0.73737973  1
  O  O338  1  0.76601141  0.36061358  0.23691790  1
  O  O339  1  0.74628908  0.37632570  0.74618046  1
  O  O340  1  0.74124187  0.87173962  0.23144716  1
  O  O341  1  0.73661398  0.87229985  0.77460981  1
  O  O342  1  0.24933600  0.11017211  0.25093765  1
  O  O343  1  0.23602915  0.11285197  0.73634313  1
  O  O344  1  0.26184225  0.62533416  0.25723161  1
  O  O345  1  0.24042806  0.59951122  0.75107830  1
  O  O346  1  0.76473056  0.13028463  0.25693560  1
  O  O347  1  0.76682734  0.13550186  0.75746364  1
  O  O348  1  0.76069663  0.62910851  0.25235022  1
  O  O349  1  0.76154308  0.61342380  0.76216387  1
  O  O350  1  0.38470241  0.10803279  0.37104331  1
  O  O351  1  0.36791545  0.12193221  0.87345248  1
  O  O352  1  0.36695700  0.62205223  0.36786857  1
  O  O353  1  0.35801916  0.63478678  0.86396332  1
  O  O354  1  0.87040053  0.12895109  0.36028753  1
  O  O355  1  0.86459748  0.13265606  0.86559522  1
  O  O356  1  0.85570101  0.62026407  0.35819472  1
  O  O357  1  0.86933980  0.61675965  0.87067719  1
  O  O358  1  0.12459320  0.38381649  0.13707957  1
  O  O359  1  0.13401047  0.35903765  0.64309095  1
  O  O360  1  0.12268207  0.88499340  0.13131914  1
  O  O361  1  0.13688732  0.86506399  0.63151916  1
  O  O362  1  0.59420156  0.41517312  0.21580499  1
  O  O363  1  0.63603583  0.36985805  0.63548754  1
  O  O364  1  0.62779164  0.88169906  0.12923248  1
  O  O365  1  0.60850645  0.86832731  0.62614479  1
  O  O366  1  0.12043080  0.26238346  0.25374978  1
  O  O367  1  0.11368667  0.25870223  0.76062087  1
  O  O368  1  0.12283036  0.75680106  0.25071395  1
  O  O369  1  0.10901644  0.76020100  0.75761985  1
  O  O370  1  0.62749207  0.24582464  0.26834035  1
  O  O371  1  0.61581727  0.25624478  0.75109447  1
  O  O372  1  0.62071046  0.76195093  0.25356683  1
  O  O373  1  0.60254616  0.74228670  0.75290743  1
  O  O374  1  0.38780407  0.25417858  0.24479933  1
  O  O375  1  0.38637787  0.25979432  0.73711556  1
  O  O376  1  0.37836844  0.73923354  0.24073545  1
  O  O377  1  0.36616129  0.74681569  0.72909853  1
  O  O378  1  0.87763310  0.24890257  0.23987054  1
  O  O379  1  0.89002406  0.24891327  0.75763780  1
  O  O380  1  0.88814588  0.75524605  0.25173235  1
  O  O381  1  0.89349401  0.73877237  0.75839889  1
  O  O382  1  0.38031136  0.48900449  0.49127111  1
  O  O383  1  0.38848228  0.48757371  0.99838808  1
  O  O384  1  0.38033924  0.98896324  0.49017894  1
  O  O385  1  0.38424963  1.00487517  1.01705932  1
  O  O386  1  0.87306951  0.49175799  0.49670191  1
  O  O387  1  0.86999643  0.48701921  0.99024072  1
  O  O388  1  0.89374524  1.00450484  0.48212492  1
  O  O389  1  0.88463959  0.99173434  1.00368513  1
  O  O390  1  0.11313437  0.00418417  0.00565895  1
  O  O391  1  0.10933358  0.00078694  0.48507546  1
  O  O392  1  0.12726188  0.49424986  0.00484843  1
  O  O393  1  0.16261667  0.45198964  0.52802874  1
  O  O394  1  0.61490211  -0.00736944  0.01090051  1
  O  O395  1  0.60762521  0.00743704  0.49676143  1
  O  O396  1  0.60935369  0.51926867  -0.00830887  1
  O  O397  1  0.60774420  0.49744874  0.49566007  1
  O  O398  1  0.37788233  0.37772808  0.10916309  1
  O  O399  1  0.37391439  0.36228005  0.61002386  1
  O  O400  1  0.37634818  0.85861185  0.12926642  1
  O  O401  1  0.35994872  0.86030534  0.61397277  1
  O  O402  1  0.87860908  0.37227192  0.11717584  1
  O  O403  1  0.86773290  0.37820614  0.61224645  1
  O  O404  1  0.86473291  0.87587483  0.11336597  1
  O  O405  1  0.85738871  0.89813274  0.64694296  1
  O  O406  1  0.11914775  0.14318323  0.36452775  1
  O  O407  1  0.12261578  0.13493375  0.87997807  1
  O  O408  1  0.13669152  0.63139782  0.36172208  1
  O  O409  1  0.12727728  0.63733442  0.86640331  1
  O  O410  1  0.63329481  0.12483691  0.38391492  1
  O  O411  1  0.64168466  0.13821271  0.86077963  1
  O  O412  1  0.63425691  0.63713687  0.35482307  1
  O  O413  1  0.63733815  0.62472540  0.88166991  1
