# generated using pymatgen
data_V79Zn79O256
_symmetry_space_group_name_H-M   'P 1'
_cell_length_a   16.95278068
_cell_length_b   16.94863472
_cell_length_c   16.94856528
_cell_angle_alpha   90.03965620
_cell_angle_beta   89.84635297
_cell_angle_gamma   90.26144910
_symmetry_Int_Tables_number   1
_chemical_formula_structural   V79Zn79O256
_chemical_formula_sum   'V79 Zn79 O256'
_cell_volume   4869.70239009
_cell_formula_units_Z   1
loop_
 _symmetry_equiv_pos_site_id
 _symmetry_equiv_pos_as_xyz
  1  'x, y, z'
loop_
 _atom_site_type_symbol
 _atom_site_label
 _atom_site_symmetry_multiplicity
 _atom_site_fract_x
 _atom_site_fract_y
 _atom_site_fract_z
 _atom_site_occupancy
  V  V0  1  0.03370554  0.83809380  0.86992065  1
  V  V1  1  0.49753291  0.49879891  0.49605621  1
  V  V2  1  0.37479511  0.25272833  0.13199385  1
  V  V3  1  0.75248418  0.26071291  0.00046093  1
  V  V4  1  -0.00234420  0.37883626  0.87673375  1
  V  V5  1  0.63097237  0.63197056  0.00074741  1
  V  V6  1  0.00000474  0.11724243  0.12304328  1
  V  V7  1  0.75574813  0.86744939  0.11130087  1
  V  V8  1  0.49852222  0.37319177  0.36896064  1
  V  V9  1  0.37740424  0.50146795  0.87472442  1
  V  V10  1  0.87617143  0.00527114  0.37554545  1
  V  V11  1  0.24184062  0.24404725  0.50138252  1
  V  V12  1  0.74932853  0.50878780  0.25456417  1
  V  V13  1  0.62633950  -0.00346247  0.62525441  1
  V  V14  1  0.50136968  0.50127391  0.00088999  1
  V  V15  1  0.24068593  0.12206508  0.37996375  1
  V  V16  1  0.50116439  0.62314159  0.62239163  1
  V  V17  1  -0.00298383  0.86842324  0.37218103  1
  V  V18  1  0.23586998  0.37393727  0.62924982  1
  V  V19  1  0.75147187  0.24886808  0.49088517  1
  V  V20  1  0.87521875  0.51132908  0.37600289  1
  V  V21  1  0.23866029  0.49327129  0.74855513  1
  V  V22  1  0.23825525  -0.00383978  0.74909362  1
  V  V23  1  0.88065116  0.88062799  0.50205592  1
  V  V24  1  0.62929184  0.12633947  0.49196555  1
  V  V25  1  0.24236538  0.00254362  0.24226626  1
  V  V26  1  0.89987226  0.72600383  0.13336701  1
  V  V27  1  0.50197145  0.12689216  0.62382832  1
  V  V28  1  0.37589500  -0.00607991  0.37758762  1
  V  V29  1  0.37248761  0.75063260  0.11671888  1
  V  V30  1  0.00748466  0.10687737  0.61707620  1
  V  V31  1  0.61774905  0.12341637  0.00271322  1
  V  V32  1  0.12123398  0.11602599  0.00195910  1
  V  V33  1  0.76086234  0.50577877  0.75001531  1
  V  V34  1  0.74939882  0.37586549  0.13301444  1
  V  V35  1  0.49691524  -0.00468175  0.49715170  1
  V  V36  1  0.50136271  0.25243666  0.74994625  1
  V  V37  1  0.74703229  0.00080439  0.75030101  1
  V  V38  1  0.11696631  0.86494802  0.24729566  1
  V  V39  1  0.62311598  0.49505554  0.13380792  1
  V  V40  1  0.74676872  0.74861321  0.49586334  1
  V  V41  1  0.87646098  0.37915695  0.49739466  1
  V  V42  1  0.49888836  0.63258704  0.12956170  1
  V  V43  1  0.24727445  0.25360768  0.00218897  1
  V  V44  1  0.62628649  0.50512861  0.62031460  1
  V  V45  1  0.24757866  0.50084765  0.27128903  1
  V  V46  1  0.88345676  0.75094747  0.63780385  1
  V  V47  1  0.24796178  0.12495661  0.87541869  1
  V  V48  1  0.87831661  0.25090043  0.12222991  1
  V  V49  1  0.11747249  0.26197667  0.36344532  1
  V  V50  1  0.37462951  0.25020622  0.62428479  1
  V  V51  1  0.75207973  0.87863952  0.62811394  1
  V  V52  1  0.37222358  0.37787821  0.49680132  1
  V  V53  1  0.62629103  0.75444787  0.86630015  1
  V  V54  1  0.38067445  0.62629938  0.75239547  1
  V  V55  1  0.50126290  0.37767843  0.87356593  1
  V  V56  1  0.24374790  0.63179309  0.88094013  1
  V  V57  1  0.11727360  0.62785379  0.01942145  1
  V  V58  1  0.23630115  0.38503587  0.13027396  1
  V  V59  1  0.61775230  0.00019407  0.12373984  1
  V  V60  1  0.62517345  0.37639297  0.75020890  1
  V  V61  1  0.50464122  0.88550926  0.87727619  1
  V  V62  1  0.36576356  0.75428392  0.62202935  1
  V  V63  1  0.75739296  0.62831917  0.87543531  1
  V  V64  1  0.74671062  0.00110976  0.25429330  1
  V  V65  1  0.37654157  0.12150423  0.75134531  1
  V  V66  1  0.87719546  0.12998857  0.75046708  1
  V  V67  1  0.37094585  0.62307365  0.25866470  1
  V  V68  1  0.87681225  0.49922595  0.88990474  1
  V  V69  1  0.75019181  0.37656170  0.62650008  1
  V  V70  1  0.00761906  0.50464184  0.50878064  1
  V  V71  1  0.62635893  0.25508594  0.36824946  1
  V  V72  1  0.24240642  0.87050699  0.11553155  1
  V  V73  1  0.87483980  0.12589727  0.24984154  1
  V  V74  1  0.12423401  0.25934834  0.86908178  1
  V  V75  1  0.87709161  0.25063363  0.62482030  1
  V  V76  1  0.87658147  -0.00411555  0.88444827  1
  V  V77  1  0.74920010  0.13137813  0.87787568  1
  V  V78  1  0.62008019  0.86265011  0.25733711  1
  Zn  Zn79  1  0.00730884  0.49844122  0.01960352  1
  Zn  Zn80  1  0.38028894  0.00361611  0.88596898  1
  Zn  Zn81  1  -0.00562748  0.62949618  0.62240383  1
  Zn  Zn82  1  -0.00226341  -0.01519686  -0.00029171  1
  Zn  Zn83  1  0.49604738  0.85803820  0.36758346  1
  Zn  Zn84  1  0.25564518  0.87628992  0.63711365  1
  Zn  Zn85  1  0.49101361  0.11626709  0.12124299  1
  Zn  Zn86  1  0.37788783  0.12427393  0.25281677  1
  Zn  Zn87  1  0.50921152  0.25122130  0.24507874  1
  Zn  Zn88  1  0.62386516  0.25355494  0.87712012  1
  Zn  Zn89  1  0.37281105  0.37750717  0.00156852  1
  Zn  Zn90  1  0.01166418  0.25760602  0.74253215  1
  Zn  Zn91  1  0.51008378  0.76434339  0.73592276  1
  Zn  Zn92  1  0.73253824  0.63284851  0.37939439  1
  Zn  Zn93  1  0.39331470  0.88993940  0.01138832  1
  Zn  Zn94  1  0.18366040  0.18783683  0.18653254  1
  Zn  Zn95  1  0.18661951  0.18270822  0.68490599  1
  Zn  Zn96  1  0.18794476  0.68575234  0.19555858  1
  Zn  Zn97  1  0.20123171  0.71213926  0.73842816  1
  Zn  Zn98  1  0.69125454  0.18412339  0.18639617  1
  Zn  Zn99  1  0.68799796  0.18820317  0.68456286  1
  Zn  Zn100  1  0.69088942  0.68865611  0.18750336  1
  Zn  Zn101  1  0.69299286  0.68832208  0.68538057  1
  Zn  Zn102  1  0.30409342  0.31521231  0.31459357  1
  Zn  Zn103  1  0.31433419  0.31278356  0.81327016  1
  Zn  Zn104  1  0.31823396  0.81501399  0.29707376  1
  Zn  Zn105  1  0.32703430  0.81592725  0.81585602  1
  Zn  Zn106  1  0.82938183  0.31866380  0.30730165  1
  Zn  Zn107  1  0.81574941  0.31904340  0.81355562  1
  Zn  Zn108  1  0.81264325  0.81286109  0.30740504  1
  Zn  Zn109  1  0.81311360  0.81308195  0.81830372  1
  Zn  Zn110  1  0.18536692  0.43537384  0.43943726  1
  Zn  Zn111  1  0.18351666  0.44205423  0.94095457  1
  Zn  Zn112  1  0.18918570  0.92786975  0.42464507  1
  Zn  Zn113  1  0.18380932  0.93055836  0.92819862  1
  Zn  Zn114  1  0.68659043  0.43680594  0.43593245  1
  Zn  Zn115  1  0.68762028  0.44206364  0.93890807  1
  Zn  Zn116  1  0.68896754  0.93584002  0.43769288  1
  Zn  Zn117  1  0.68564699  0.94136985  0.93681917  1
  Zn  Zn118  1  0.31133576  0.06310106  0.06063663  1
  Zn  Zn119  1  0.31080971  0.06001070  0.56270883  1
  Zn  Zn120  1  0.30984231  0.56659491  0.06277385  1
  Zn  Zn121  1  0.30947778  0.56182329  0.56744560  1
  Zn  Zn122  1  0.80509398  0.06132887  0.06649236  1
  Zn  Zn123  1  0.81558163  0.06559070  0.56002212  1
  Zn  Zn124  1  0.81443583  0.56872424  0.06678123  1
  Zn  Zn125  1  0.81742926  0.57034972  0.56423232  1
  Zn  Zn126  1  0.42910357  0.43858386  0.18809354  1
  Zn  Zn127  1  0.43397728  0.43623933  0.68474327  1
  Zn  Zn128  1  0.43491078  0.93604198  0.19303134  1
  Zn  Zn129  1  0.44238554  0.93650238  0.68992650  1
  Zn  Zn130  1  0.92956114  0.41756440  0.20404580  1
  Zn  Zn131  1  0.94518728  0.43673172  0.68997678  1
  Zn  Zn132  1  0.93408992  0.93676374  0.18511318  1
  Zn  Zn133  1  0.94183327  0.93179907  0.70310802  1
  Zn  Zn134  1  0.05793173  0.06130945  0.31016570  1
  Zn  Zn135  1  0.05898592  0.06573236  0.81042510  1
  Zn  Zn136  1  0.05579359  0.54403078  0.29713432  1
  Zn  Zn137  1  0.06013184  0.56672420  0.81386301  1
  Zn  Zn138  1  0.55826099  0.06580006  0.30768497  1
  Zn  Zn139  1  0.56542382  0.06653906  0.81180322  1
  Zn  Zn140  1  0.55961592  0.56957143  0.31548982  1
  Zn  Zn141  1  0.56897324  0.56523325  0.80948369  1
  Zn  Zn142  1  0.43466594  0.18521995  0.43553263  1
  Zn  Zn143  1  0.43507973  0.19158525  0.93937078  1
  Zn  Zn144  1  0.42402314  0.68438169  0.44130044  1
  Zn  Zn145  1  0.44267867  0.69262653  0.93905200  1
  Zn  Zn146  1  0.94088018  0.18246721  0.43867008  1
  Zn  Zn147  1  0.93947122  0.18960461  0.93940658  1
  Zn  Zn148  1  0.97757124  0.66273118  0.40094048  1
  Zn  Zn149  1  0.93737072  0.69001757  0.95548879  1
  Zn  Zn150  1  0.05907463  0.31184958  0.05812212  1
  Zn  Zn151  1  0.05795793  0.31084674  0.55259297  1
  Zn  Zn152  1  0.05850850  0.80363967  0.05323098  1
  Zn  Zn153  1  0.06669727  0.80709876  0.55271710  1
  Zn  Zn154  1  0.56428827  0.31348575  0.05986849  1
  Zn  Zn155  1  0.56416248  0.31486009  0.56033995  1
  Zn  Zn156  1  0.57061794  0.81390390  0.06298202  1
  Zn  Zn157  1  0.54027950  0.78277049  0.52121683  1
  O  O158  1  0.11329051  0.13221503  0.11391395  1
  O  O159  1  0.10592002  0.12850625  0.62881721  1
  O  O160  1  0.13942197  0.62191123  0.11733891  1
  O  O161  1  0.17698979  0.66294892  0.54597501  1
  O  O162  1  0.62433843  0.11845315  0.11726035  1
  O  O163  1  0.62186725  0.11993074  0.61448912  1
  O  O164  1  0.61808074  0.61828466  0.11934313  1
  O  O165  1  0.61503334  0.61553586  0.63157088  1
  O  O166  1  0.38118057  0.36463850  0.38978593  1
  O  O167  1  0.38154829  0.38591197  0.87733314  1
  O  O168  1  0.37857069  0.88949160  0.36408694  1
  O  O169  1  0.39381266  0.87721796  0.88407469  1
  O  O170  1  0.85804854  0.38988376  0.39582162  1
  O  O171  1  0.88188329  0.38689963  0.87686173  1
  O  O172  1  0.87990996  0.88554446  0.38015276  1
  O  O173  1  0.86319107  0.89693113  0.87646009  1
  O  O174  1  0.25585199  0.00330126  0.36912814  1
  O  O175  1  0.25231524  0.01248233  0.86726754  1
  O  O176  1  0.25773237  0.49287027  0.37044186  1
  O  O177  1  0.26151216  0.50508570  0.86756298  1
  O  O178  1  0.76119414  -0.00532106  0.36460651  1
  O  O179  1  0.75311272  0.01330271  0.86911005  1
  O  O180  1  0.75203599  0.50397207  0.37083064  1
  O  O181  1  0.75775173  0.50576347  0.86953961  1
  O  O182  1  0.25086571  0.48434124  0.11638268  1
  O  O183  1  0.25254002  0.49041966  0.64075252  1
  O  O184  1  0.25451853  0.99088018  0.13807544  1
  O  O185  1  0.26105096  0.99913611  0.64529820  1
  O  O186  1  0.74284067  0.49501527  0.13188535  1
  O  O187  1  0.74480176  0.49997880  0.63073940  1
  O  O188  1  0.73777849  0.99248782  0.13279208  1
  O  O189  1  0.74704331  0.99978728  0.63145905  1
  O  O190  1  -0.05802089  0.34201220  0.28201634  1
  O  O191  1  -0.00315966  0.37103474  0.76624235  1
  O  O192  1  0.01131753  0.88373846  0.25191845  1
  O  O193  1  -0.00065330  0.88117309  0.78416378  1
  O  O194  1  0.48824512  0.37338964  0.26483546  1
  O  O195  1  0.50416777  0.37192727  0.75359424  1
  O  O196  1  0.51416338  0.87580214  0.25045193  1
  O  O197  1  0.50068871  0.87486705  0.76722171  1
  O  O198  1  0.49445235  0.13389848  0.24027059  1
  O  O199  1  0.49475039  0.13197200  0.74604457  1
  O  O200  1  0.48515759  0.61316966  0.23681280  1
  O  O201  1  0.49397617  0.62045371  0.73912547  1
  O  O202  1  0.98731855  0.11763309  0.23619788  1
  O  O203  1  0.98796807  0.13316615  0.74330252  1
  O  O204  1  1.00823905  0.55372259  0.18714211  1
  O  O205  1  1.06117958  0.63478688  0.71750451  1
  O  O206  1  0.36193762  0.25262369  0.00769125  1
  O  O207  1  0.36540954  0.25577258  0.50589531  1
  O  O208  1  0.37967940  0.75568376  0.01295707  1
  O  O209  1  0.35960947  0.73403091  0.52479656  1
  O  O210  1  0.86077633  0.24183863  0.00921196  1
  O  O211  1  0.86896830  0.25657413  0.50496123  1
  O  O212  1  0.87582193  0.74475035  0.03294158  1
  O  O213  1  0.86291164  0.77258871  0.51633992  1
  O  O214  1  0.13902256  0.25354853  0.49327858  1
  O  O215  1  0.13377140  0.24187300  0.99121585  1
  O  O216  1  0.13150416  0.70960252  0.50181680  1
  O  O217  1  0.12652932  0.72774577  0.99920016  1
  O  O218  1  0.63275561  0.24500966  0.49431177  1
  O  O219  1  0.63491643  0.24359110  0.99891464  1
  O  O220  1  0.65048778  0.76461117  0.51604227  1
  O  O221  1  0.62146238  0.73670792  0.98857804  1
  O  O222  1  0.48245992  0.26010229  0.12469668  1
  O  O223  1  0.49585298  0.24656437  0.62929934  1
  O  O224  1  0.49571628  0.73794331  0.12072823  1
  O  O225  1  0.49034356  0.73832724  0.62051179  1
  O  O226  1  0.98484616  0.24151657  0.11525919  1
  O  O227  1  0.98642417  0.24778482  0.62382469  1
  O  O228  1  1.00037994  0.74898737  0.13352146  1
  O  O229  1  0.98677342  0.75564195  0.61579097  1
  O  O230  1  0.02150666  0.24060656  0.38777959  1
  O  O231  1  0.00778744  0.25930774  0.87657411  1
  O  O232  1  -0.02087321  0.77204296  0.36331085  1
  O  O233  1  -0.00105066  0.74248155  0.87427760  1
  O  O234  1  0.50778728  0.25638535  0.37481338  1
  O  O235  1  0.50024764  0.25920679  0.86843042  1
  O  O236  1  0.50171315  0.75895326  0.41746126  1
  O  O237  1  0.51557672  0.75254700  0.87063718  1
  O  O238  1  0.25455677  0.13351682  0.49384998  1
  O  O239  1  0.24194762  0.13349591  0.99382797  1
  O  O240  1  0.22813925  0.61772922  0.50196345  1
  O  O241  1  0.25075049  0.62560761  0.98375049  1
  O  O242  1  0.74218347  0.13756907  0.50411521  1
  O  O243  1  0.74086292  0.13565768  0.99295192  1
  O  O244  1  0.75469632  0.64565158  0.50541314  1
  O  O245  1  0.73819095  0.61507763  0.99060340  1
  O  O246  1  0.24862232  0.36666734  0.00744582  1
  O  O247  1  0.25614814  0.36801670  0.50960169  1
  O  O248  1  0.24574323  0.88436427  0.01630348  1
  O  O249  1  0.24223675  0.81718505  0.44698939  1
  O  O250  1  0.74350413  0.36707207  0.00820253  1
  O  O251  1  0.75347731  0.36783889  0.50997229  1
  O  O252  1  0.73993827  0.87983449  0.01271799  1
  O  O253  1  0.75860249  0.87742531  0.51262494  1
  O  O254  1  0.14898557  0.49792540  0.25595094  1
  O  O255  1  0.14158905  0.49629147  0.75884738  1
  O  O256  1  0.13829982  0.99318693  0.25318579  1
  O  O257  1  0.13915094  1.00435394  0.75559300  1
  O  O258  1  0.62793399  0.50310083  0.23838332  1
  O  O259  1  0.63357268  0.49487687  0.74065870  1
  O  O260  1  0.63167334  1.00111564  0.24289899  1
  O  O261  1  0.63802978  1.01415912  0.73853834  1
  O  O262  1  0.36209853  0.00231946  0.25747100  1
  O  O263  1  0.37799700  0.01502563  0.75850769  1
  O  O264  1  0.36261771  0.51416146  0.24072303  1
  O  O265  1  0.37660016  0.50653518  0.76065116  1
  O  O266  1  0.86597294  0.00563451  0.25503080  1
  O  O267  1  0.86460095  0.01413894  0.76070152  1
  O  O268  1  0.86266015  0.49584652  0.26914280  1
  O  O269  1  0.86309352  0.49851514  0.75390944  1
  O  O270  1  0.12833983  0.36144766  0.37379444  1
  O  O271  1  0.12058359  0.36570326  0.87884283  1
  O  O272  1  0.10675557  0.87839936  0.36198606  1
  O  O273  1  0.13561524  0.84927132  0.86605316  1
  O  O274  1  0.61204236  0.36448689  0.38331018  1
  O  O275  1  0.61894187  0.37788804  0.86840891  1
  O  O276  1  0.62300224  0.88323299  0.36037085  1
  O  O277  1  0.62322502  0.86136163  0.87683973  1
  O  O278  1  0.37089325  0.14285958  0.12350704  1
  O  O279  1  0.38089716  0.13000915  0.63373828  1
  O  O280  1  0.38170710  0.63266414  0.12416657  1
  O  O281  1  0.37991342  0.62777161  0.63671539  1
  O  O282  1  0.87976744  0.12950214  0.12825687  1
  O  O283  1  0.87809386  0.13243694  0.63370927  1
  O  O284  1  0.87893739  0.62420957  0.13805937  1
  O  O285  1  0.87417629  0.64649458  0.63041468  1
  O  O286  1  0.25504713  0.25792164  0.11908739  1
  O  O287  1  0.25467304  0.25309041  0.62017608  1
  O  O288  1  0.25633199  0.76518275  0.12907262  1
  O  O289  1  0.26197675  0.75549831  0.65043241  1
  O  O290  1  0.75170542  0.25766386  0.11744600  1
  O  O291  1  0.75909311  0.25447435  0.61631154  1
  O  O292  1  0.74099547  0.76673528  0.12298009  1
  O  O293  1  0.76089154  0.76358573  0.62670769  1
  O  O294  1  0.24214536  0.24134673  0.38194506  1
  O  O295  1  0.24573046  0.24545724  0.88214105  1
  O  O296  1  0.25597720  0.76686271  0.39125758  1
  O  O297  1  0.25527718  0.73052449  0.84802237  1
  O  O298  1  0.74476109  0.26234962  0.38604702  1
  O  O299  1  0.75013187  0.24647530  0.88146602  1
  O  O300  1  0.75808646  0.75530847  0.39224062  1
  O  O301  1  0.73857335  0.74141641  0.86918669  1
  O  O302  1  0.00817549  0.12513789  0.00519197  1
  O  O303  1  -0.01212791  0.11759270  0.51884406  1
  O  O304  1  0.01160247  0.61705954  0.00823320  1
  O  O305  1  -0.00523112  0.60969136  0.50375323  1
  O  O306  1  0.51319496  0.13642186  0.00259658  1
  O  O307  1  0.50853504  0.12010356  0.50552473  1
  O  O308  1  0.50769961  0.61674587  0.00713377  1
  O  O309  1  0.48596263  0.60981192  0.51455323  1
  O  O310  1  0.49037466  0.37939973  0.49629380  1
  O  O311  1  0.49982971  0.38786413  0.99398151  1
  O  O312  1  0.50977628  0.89652972  0.50223344  1
  O  O313  1  0.50895000  0.86996520  0.98401859  1
  O  O314  1  0.98492449  0.38766836  0.50817923  1
  O  O315  1  1.00673783  0.38488146  0.98543868  1
  O  O316  1  0.99455406  0.87160387  0.48307271  1
  O  O317  1  1.01618526  0.87512493  0.97147757  1
  O  O318  1  0.50500398  0.48829424  0.38901764  1
  O  O319  1  0.49633752  0.49989975  0.88146006  1
  O  O320  1  0.49028375  1.00567706  0.38200361  1
  O  O321  1  0.50987726  0.98872768  0.87446950  1
  O  O322  1  0.97990910  0.49993124  0.38477610  1
  O  O323  1  0.98745617  0.49801955  0.86697828  1
  O  O324  1  0.98367530  0.99136925  0.36674960  1
  O  O325  1  0.97978984  1.01405796  0.87710142  1
  O  O326  1  -0.00869386  0.01153197  0.11408763  1
  O  O327  1  -0.00501132  0.00891083  0.63729644  1
  O  O328  1  0.00011018  0.48669399  0.14406829  1
  O  O329  1  -0.00584229  0.50741701  0.61564940  1
  O  O330  1  0.51255006  -0.00194575  0.12924221  1
  O  O331  1  0.50787527  0.00728421  0.62031271  1
  O  O332  1  0.50427178  0.50421197  0.11732003  1
  O  O333  1  0.50724951  0.50287404  0.61972826  1
  O  O334  1  0.25921640  0.38968207  0.23862903  1
  O  O335  1  0.25784470  0.38523249  0.74452000  1
  O  O336  1  0.23888779  0.88509567  0.24604292  1
  O  O337  1  0.26026144  0.89415019  0.75923083  1
  O  O338  1  0.75063111  0.38497518  0.23867742  1
  O  O339  1  0.74544424  0.38491391  0.74532176  1
  O  O340  1  0.73755743  0.88575701  0.24311862  1
  O  O341  1  0.75708399  0.89222972  0.74189000  1
  O  O342  1  0.24901414  0.11182456  0.25446860  1
  O  O343  1  0.25782907  0.11831726  0.75657858  1
  O  O344  1  0.26015826  0.61332510  0.24956650  1
  O  O345  1  0.26293017  0.60698580  0.75703456  1
  O  O346  1  0.75979602  0.10959237  0.24136763  1
  O  O347  1  0.75648948  0.12321810  0.75715325  1
  O  O348  1  0.74356228  0.61226786  0.25380109  1
  O  O349  1  0.74345785  0.61491011  0.76207639  1
  O  O350  1  0.36126326  0.11730586  0.37241524  1
  O  O351  1  0.36439197  0.13077044  0.86810576  1
  O  O352  1  0.37808635  0.62618478  0.35747135  1
  O  O353  1  0.37428531  0.61875681  0.87062935  1
  O  O354  1  0.88105842  0.11842715  0.36264179  1
  O  O355  1  0.86380045  0.12734748  0.86829060  1
  O  O356  1  0.86745176  0.61249136  0.38273268  1
  O  O357  1  0.86225762  0.61966815  0.88382913  1
  O  O358  1  0.13791192  0.36631984  0.12381473  1
  O  O359  1  0.13708797  0.36429332  0.62330941  1
  O  O360  1  0.13533881  0.87200276  0.13379796  1
  O  O361  1  0.15898750  0.87516273  0.57169447  1
  O  O362  1  0.63235746  0.38656630  0.12016583  1
  O  O363  1  0.63039160  0.38339656  0.63068319  1
  O  O364  1  0.63011878  0.88299695  0.13564581  1
  O  O365  1  0.63807154  0.89385154  0.62396570  1
  O  O366  1  0.12850410  0.24603622  0.26399718  1
  O  O367  1  0.12776540  0.24303593  0.76480435  1
  O  O368  1  0.13166723  0.76746327  0.25234067  1
  O  O369  1  0.08902389  0.71346233  0.73121480  1
  O  O370  1  0.63003726  0.24447658  0.26423970  1
  O  O371  1  0.61993737  0.25730115  0.75007231  1
  O  O372  1  0.62951657  0.76396079  0.25138060  1
  O  O373  1  0.62425475  0.74414857  0.76146981  1
  O  O374  1  0.36579713  0.25085010  0.23672101  1
  O  O375  1  0.37979965  0.24102580  0.74561983  1
  O  O376  1  0.36851661  0.73312875  0.23532213  1
  O  O377  1  0.38709933  0.73772352  0.74470727  1
  O  O378  1  0.85586294  0.23115412  0.23355682  1
  O  O379  1  0.86960185  0.24412072  0.74018004  1
  O  O380  1  0.86670543  0.76070156  0.22615331  1
  O  O381  1  0.87649765  0.76544925  0.73662000  1
  O  O382  1  0.38243727  0.48748670  0.51047623  1
  O  O383  1  0.38522230  0.50314736  0.99073794  1
  O  O384  1  0.38387688  1.00596531  0.49109538  1
  O  O385  1  0.37901299  1.00242664  0.99872003  1
  O  O386  1  0.87504403  0.49589026  0.49643060  1
  O  O387  1  0.87977239  0.50384036  0.99227007  1
  O  O388  1  0.86734416  0.99187347  0.48989479  1
  O  O389  1  0.87021520  1.01196067  0.98617148  1
  O  O390  1  0.12403914  0.01413862  -0.01278406  1
  O  O391  1  0.15228620  -0.05109078  0.52997465  1
  O  O392  1  0.12414568  0.51856062  -0.00596893  1
  O  O393  1  0.10550585  0.49336652  0.49521988  1
  O  O394  1  0.63119112  0.01390937  0.00954078  1
  O  O395  1  0.62281123  0.01082540  0.50522697  1
  O  O396  1  0.61658644  0.50873380  0.00758270  1
  O  O397  1  0.61530822  0.49149713  0.51422664  1
  O  O398  1  0.36298387  0.36579242  0.12064727  1
  O  O399  1  0.36693145  0.36744523  0.61783378  1
  O  O400  1  0.36424836  0.86843267  0.12835092  1
  O  O401  1  0.37812598  0.85917593  0.62949299  1
  O  O402  1  0.86143458  0.36252973  0.12406057  1
  O  O403  1  0.86911006  0.36779440  0.62097707  1
  O  O404  1  0.85564641  0.88530298  0.12257898  1
  O  O405  1  0.87055766  0.87865672  0.62256934  1
  O  O406  1  0.13782877  0.12226791  0.37239622  1
  O  O407  1  0.13313220  0.13429260  0.88078940  1
  O  O408  1  0.07021290  0.64219325  0.34222140  1
  O  O409  1  0.14372948  0.62185369  0.87206525  1
  O  O410  1  0.61985734  0.13531031  0.38686278  1
  O  O411  1  0.63518093  0.12868970  0.88192856  1
  O  O412  1  0.62115255  0.62530017  0.38543039  1
  O  O413  1  0.63230266  0.63165260  0.88174294  1
