# generated using pymatgen
data_V79Zn79O256
_symmetry_space_group_name_H-M   'P 1'
_cell_length_a   16.88757237
_cell_length_b   16.90247197
_cell_length_c   16.89074208
_cell_angle_alpha   89.88982033
_cell_angle_beta   89.94820524
_cell_angle_gamma   89.95096122
_symmetry_Int_Tables_number   1
_chemical_formula_structural   V79Zn79O256
_chemical_formula_sum   'V79 Zn79 O256'
_cell_volume   4821.30980431
_cell_formula_units_Z   1
loop_
 _symmetry_equiv_pos_site_id
 _symmetry_equiv_pos_as_xyz
  1  'x, y, z'
loop_
 _atom_site_type_symbol
 _atom_site_label
 _atom_site_symmetry_multiplicity
 _atom_site_fract_x
 _atom_site_fract_y
 _atom_site_fract_z
 _atom_site_occupancy
  V  V0  1  0.37727994  0.37021118  -0.00008616  1
  V  V1  1  0.62835494  0.75531787  0.38948855  1
  V  V2  1  0.76619005  0.86972499  0.60740483  1
  V  V3  1  0.50680965  0.87082414  0.85601629  1
  V  V4  1  0.24565299  0.24987470  0.49939142  1
  V  V5  1  0.11554173  0.75764025  0.87346645  1
  V  V6  1  0.25214676  0.62955145  0.88233966  1
  V  V7  1  0.37931293  0.00147190  0.88188162  1
  V  V8  1  0.74359729  -0.00935540  0.75526694  1
  V  V9  1  0.88987454  0.12489754  0.24217447  1
  V  V10  1  -0.00688344  0.87650376  0.38645291  1
  V  V11  1  0.37773366  0.12493547  0.25075706  1
  V  V12  1  0.62485865  0.00055821  0.10949901  1
  V  V13  1  0.24935561  0.25095402  0.00352333  1
  V  V14  1  0.37805695  0.87290131  0.49862483  1
  V  V15  1  0.50564963  0.36913031  0.87669228  1
  V  V16  1  0.36939925  0.25523151  0.62443129  1
  V  V17  1  0.24655862  0.12452533  0.88022311  1
  V  V18  1  0.11116581  0.87167235  0.75214276  1
  V  V19  1  0.62236933  0.62298504  -0.00523200  1
  V  V20  1  0.12121761  0.24735281  0.88325197  1
  V  V21  1  0.37401413  0.25576016  0.12479490  1
  V  V22  1  0.87707497  -0.01409102  0.87446522  1
  V  V23  1  0.50593543  0.12405241  0.62256529  1
  V  V24  1  0.86804797  0.62939201  0.23617455  1
  V  V25  1  0.37199719  0.12455444  0.75227536  1
  V  V26  1  0.12423730  0.37684261  0.74554301  1
  V  V27  1  0.88421080  0.73670252  0.62228622  1
  V  V28  1  0.74161416  0.01044802  0.25305389  1
  V  V29  1  0.00056713  0.49693586  0.50011181  1
  V  V30  1  0.24478283  0.49424415  0.74489794  1
  V  V31  1  0.75222129  0.86778398  0.13247072  1
  V  V32  1  0.13580350  0.35578773  0.25346131  1
  V  V33  1  0.00390025  0.00413596  -0.00910468  1
  V  V34  1  0.86927809  0.12183068  0.75892372  1
  V  V35  1  0.24964166  -0.00044354  0.24851013  1
  V  V36  1  0.87751911  0.00543286  0.38252613  1
  V  V37  1  0.85999602  0.38395394  0.00432013  1
  V  V38  1  0.25092168  0.60428248  0.37106104  1
  V  V39  1  0.50778251  0.25506811  0.25445542  1
  V  V40  1  0.10890213  0.62456526  0.00460970  1
  V  V41  1  0.11732853  0.01139586  0.12015720  1
  V  V42  1  0.50599068  0.38873216  0.37886477  1
  V  V43  1  0.50739745  0.12466305  0.11174948  1
  V  V44  1  -0.00088881  0.36107905  0.36538404  1
  V  V45  1  0.50341101  0.00222443  0.50130214  1
  V  V46  1  0.61924074  0.49892266  0.60927733  1
  V  V47  1  0.37427681  0.38498718  0.49590639  1
  V  V48  1  0.62547354  -0.01303890  0.62414441  1
  V  V49  1  0.24325267  0.12970412  0.37602423  1
  V  V50  1  0.38456309  0.62301689  0.75174849  1
  V  V51  1  0.12096613  0.61731546  0.50482676  1
  V  V52  1  0.11679664  0.49702361  0.13884268  1
  V  V53  1  0.74841218  0.62853094  0.39077454  1
  V  V54  1  0.87138551  0.24748446  0.62499076  1
  V  V55  1  0.12086343  0.87256560  0.24746482  1
  V  V56  1  -0.00915364  0.74722409  0.23586494  1
  V  V57  1  0.37502680  -0.00226393  0.37602552  1
  V  V58  1  0.74807568  0.74986442  -0.02861144  1
  V  V59  1  0.74356789  0.23301821  0.50070734  1
  V  V60  1  0.24764109  0.87383743  0.62898737  1
  V  V61  1  0.38827407  0.86990481  0.00527726  1
  V  V62  1  0.37913593  0.74656080  0.62811978  1
  V  V63  1  0.37969314  0.49832223  0.88384827  1
  V  V64  1  0.62723011  0.23598488  0.38165612  1
  V  V65  1  0.87754483  0.24675040  0.12497165  1
  V  V66  1  0.24614694  0.74779965  0.49624309  1
  V  V67  1  0.50148452  0.61977664  0.60279665  1
  V  V68  1  0.74723731  0.37142476  0.62266772  1
  V  V69  1  0.00644260  0.61848420  0.64500243  1
  V  V70  1  0.25381854  0.86875126  0.12340819  1
  V  V71  1  0.75425953  0.51524114  0.74864214  1
  V  V72  1  0.74874844  0.48885874  0.24246941  1
  V  V73  1  0.50593083  0.24922873  0.75177085  1
  V  V74  1  0.00005430  0.12072825  0.61986301  1
  V  V75  1  0.74205394  0.23346734  -0.00619078  1
  V  V76  1  0.12095969  -0.00041202  0.61872862  1
  V  V77  1  -0.00575360  0.38031471  0.88612055  1
  V  V78  1  -0.00286497  0.24873622  0.75265900  1
  Zn  Zn79  1  0.61795653  0.73500099  0.83368849  1
  Zn  Zn80  1  0.87367963  0.37181316  0.49610536  1
  Zn  Zn81  1  0.88375424  0.86584291  0.00530202  1
  Zn  Zn82  1  0.62342348  0.50516184  0.12346887  1
  Zn  Zn83  1  0.11826413  0.74570378  0.37494526  1
  Zn  Zn84  1  0.87768232  0.50248597  0.37249604  1
  Zn  Zn85  1  0.11817737  0.12665024  0.49351133  1
  Zn  Zn86  1  0.24701859  -0.00001941  0.75239220  1
  Zn  Zn87  1  0.37082774  0.62235652  0.23927774  1
  Zn  Zn88  1  0.52027331  0.87985701  0.36391558  1
  Zn  Zn89  1  0.62627902  0.37606819  0.75166781  1
  Zn  Zn90  1  0.47889929  0.63655176  0.11313652  1
  Zn  Zn91  1  0.86693461  0.52397032  0.87828481  1
  Zn  Zn92  1  0.49611391  0.75320233  0.24878193  1
  Zn  Zn93  1  0.25700922  0.74396779  0.00788148  1
  Zn  Zn94  1  0.18816953  0.18773552  0.18747503  1
  Zn  Zn95  1  0.18414452  0.19013289  0.68935922  1
  Zn  Zn96  1  0.18543397  0.68324639  0.18897593  1
  Zn  Zn97  1  0.18804317  0.68457936  0.69286491  1
  Zn  Zn98  1  0.69277722  0.19281677  0.18363481  1
  Zn  Zn99  1  0.68596084  0.18028140  0.69513973  1
  Zn  Zn100  1  0.67108010  0.69021810  0.19295849  1
  Zn  Zn101  1  0.68776766  0.69130148  0.66920638  1
  Zn  Zn102  1  0.31828892  0.31721617  0.31523627  1
  Zn  Zn103  1  0.31224330  0.31107522  0.81526185  1
  Zn  Zn104  1  0.31526444  0.80824274  0.31012036  1
  Zn  Zn105  1  0.31574617  0.81204690  0.81499220  1
  Zn  Zn106  1  0.81389980  0.30753483  0.31509520  1
  Zn  Zn107  1  0.80781652  0.31177221  0.81498986  1
  Zn  Zn108  1  0.80779378  0.81598087  0.31454860  1
  Zn  Zn109  1  0.81706924  0.80758040  0.79907627  1
  Zn  Zn110  1  0.18201527  0.42937993  0.43838222  1
  Zn  Zn111  1  0.20454733  0.45878516  0.96801644  1
  Zn  Zn112  1  0.18612296  0.93734030  0.43588296  1
  Zn  Zn113  1  0.19183336  0.93613866  0.94091330  1
  Zn  Zn114  1  0.68949248  0.43593583  0.42577373  1
  Zn  Zn115  1  0.69018002  0.44095606  0.93399827  1
  Zn  Zn116  1  0.69120106  0.94453626  0.43587453  1
  Zn  Zn117  1  0.68724454  0.93313477  0.93953494  1
  Zn  Zn118  1  0.31391821  0.06105878  0.06251328  1
  Zn  Zn119  1  0.31134006  0.06291089  0.56357756  1
  Zn  Zn120  1  0.31290186  0.52671701  0.10456386  1
  Zn  Zn121  1  0.30819132  0.56328158  0.56323660  1
  Zn  Zn122  1  0.81408139  0.05966277  0.06046223  1
  Zn  Zn123  1  0.81286031  0.05990367  0.56831348  1
  Zn  Zn124  1  0.80160024  0.57132855  0.06075079  1
  Zn  Zn125  1  0.81895701  0.55704467  0.56776305  1
  Zn  Zn126  1  0.46625424  0.44887847  0.18194922  1
  Zn  Zn127  1  0.43454201  0.43810982  0.68861835  1
  Zn  Zn128  1  0.44295639  0.93693330  0.18582165  1
  Zn  Zn129  1  0.43271387  0.93959974  0.68690096  1
  Zn  Zn130  1  0.93856754  0.44111146  0.18184017  1
  Zn  Zn131  1  0.93781439  0.43522681  0.68696193  1
  Zn  Zn132  1  0.93487701  0.93766787  0.18670313  1
  Zn  Zn133  1  0.93514470  0.93691029  0.68631527  1
  Zn  Zn134  1  0.06079660  0.06051466  0.30986945  1
  Zn  Zn135  1  0.06279995  0.06040407  0.80796749  1
  Zn  Zn136  1  0.05948042  0.56357700  0.31645613  1
  Zn  Zn137  1  0.06517739  0.55791531  0.83421715  1
  Zn  Zn138  1  0.56083538  0.06361496  0.31323478  1
  Zn  Zn139  1  0.56183887  0.05618582  0.81451521  1
  Zn  Zn140  1  0.56483494  0.57218904  0.29466676  1
  Zn  Zn141  1  0.57053430  0.55647671  0.81108257  1
  Zn  Zn142  1  0.43485661  0.18971111  0.43852582  1
  Zn  Zn143  1  0.57427439  0.18699152  0.93385498  1
  Zn  Zn144  1  0.45079449  0.66950942  0.40659385  1
  Zn  Zn145  1  0.44383775  0.69164835  0.93556671  1
  Zn  Zn146  1  0.93042869  0.18582106  0.43649128  1
  Zn  Zn147  1  0.93302863  0.18494059  0.94336957  1
  Zn  Zn148  1  0.93090141  0.69009268  0.43486083  1
  Zn  Zn149  1  0.93233797  0.69166853  0.93305544  1
  Zn  Zn150  1  0.06072357  0.31399549  0.06891307  1
  Zn  Zn151  1  0.06016122  0.31125356  0.56261271  1
  Zn  Zn152  1  0.06492509  0.81626569  0.05587706  1
  Zn  Zn153  1  0.05914149  0.80571475  0.56609453  1
  Zn  Zn154  1  0.57053973  0.32148637  0.06849936  1
  Zn  Zn155  1  0.55935766  0.31290068  0.55948573  1
  Zn  Zn156  1  0.57108764  0.80868963  0.06452784  1
  Zn  Zn157  1  0.56627299  0.80507117  0.56177844  1
  O  O158  1  0.13078190  0.10989446  0.12684831  1
  O  O159  1  0.11698327  0.11639964  0.62876150  1
  O  O160  1  0.13012820  0.61422034  0.11143237  1
  O  O161  1  0.11502779  0.62688166  0.61911772  1
  O  O162  1  0.61307672  0.11934038  0.13172032  1
  O  O163  1  0.61042668  0.11341473  0.63011335  1
  O  O164  1  0.64333187  0.62677294  0.10140985  1
  O  O165  1  0.61012329  0.61256749  0.61870390  1
  O  O166  1  0.38671464  0.37255592  0.38825275  1
  O  O167  1  0.38198723  0.37865338  0.88036156  1
  O  O168  1  0.36640971  0.88044655  0.39069070  1
  O  O169  1  0.38248111  0.88117718  0.88330262  1
  O  O170  1  0.88738468  0.37596526  0.37724921  1
  O  O171  1  0.88357363  0.36544212  0.88871479  1
  O  O172  1  0.88544066  0.88777438  0.36956524  1
  O  O173  1  0.87505381  0.88440666  0.87032864  1
  O  O174  1  0.25584339  0.00718698  0.36948138  1
  O  O175  1  0.25577956  0.00888073  0.87459244  1
  O  O176  1  0.24377916  0.50504857  0.37702577  1
  O  O177  1  0.26322672  0.50831215  0.87361470  1
  O  O178  1  0.76485481  -0.00474518  0.36059884  1
  O  O179  1  0.75598180  -0.01007622  0.86032266  1
  O  O180  1  0.75824439  0.51013274  0.36766472  1
  O  O181  1  0.75251702  0.49537867  0.85352931  1
  O  O182  1  0.21087250  0.48183109  0.08575032  1
  O  O183  1  0.25044852  0.50373941  0.64597496  1
  O  O184  1  0.24124851  0.99264469  0.12856340  1
  O  O185  1  0.24272468  0.98987140  0.62662313  1
  O  O186  1  0.74745236  0.50194155  0.13748434  1
  O  O187  1  0.73872002  0.49178324  0.62729223  1
  O  O188  1  0.73771227  1.00165899  0.13253788  1
  O  O189  1  0.74339980  0.99087116  0.62831971  1
  O  O190  1  -0.00048382  0.37675266  0.26249332  1
  O  O191  1  0.00091521  0.36624730  0.75979736  1
  O  O192  1  0.00402561  0.86720441  0.25224017  1
  O  O193  1  0.01221598  0.87713648  0.74738527  1
  O  O194  1  0.48643679  0.36048879  0.26999514  1
  O  O195  1  0.49499689  0.36557621  0.75888204  1
  O  O196  1  0.48789418  0.86860345  0.25814890  1
  O  O197  1  0.49487636  0.87530949  0.75605723  1
  O  O198  1  0.48970582  0.13272713  0.24989636  1
  O  O199  1  0.48873905  0.13052936  0.74224027  1
  O  O200  1  0.47452843  0.63895664  0.29713963  1
  O  O201  1  0.48603647  0.61604185  0.74745861  1
  O  O202  1  0.98951812  0.12440193  0.24569490  1
  O  O203  1  0.99133513  0.12959325  0.74297059  1
  O  O204  1  0.99047760  0.64083906  0.25584252  1
  O  O205  1  1.01309441  0.61145918  0.74228214  1
  O  O206  1  0.36686535  0.25538452  0.00973086  1
  O  O207  1  0.36702805  0.25373055  0.50829446  1
  O  O208  1  0.37454739  0.76599111  -0.00357605  1
  O  O209  1  0.36390918  0.75794507  0.51195623  1
  O  O210  1  0.86331781  0.25310848  0.00818458  1
  O  O211  1  0.86149832  0.24862732  0.50680156  1
  O  O212  1  0.85510311  0.75520516  -0.01204827  1
  O  O213  1  0.88885671  0.75274642  0.51944272  1
  O  O214  1  0.14055499  0.24716962  0.50958179  1
  O  O215  1  0.13330472  0.25793950  0.99326138  1
  O  O216  1  0.13070392  0.73962251  0.50080704  1
  O  O217  1  0.13337858  0.74572180  0.98999767  1
  O  O218  1  0.62760077  0.24789494  0.49116993  1
  O  O219  1  0.63492201  0.25185793  1.00930046  1
  O  O220  1  0.63445467  0.74480713  0.49288893  1
  O  O221  1  0.64013248  0.74491359  0.99461108  1
  O  O222  1  0.49563246  0.23815061  0.13561681  1
  O  O223  1  0.49018003  0.24092056  0.62849132  1
  O  O224  1  0.52120305  0.73997480  0.13651307  1
  O  O225  1  0.48959199  0.73208889  0.61447123  1
  O  O226  1  0.97826466  0.24948848  0.11626630  1
  O  O227  1  0.99241996  0.24251208  0.63307172  1
  O  O228  1  1.00239118  0.75697503  0.13748567  1
  O  O229  1  0.99856453  0.72973692  0.62725504  1
  O  O230  1  -0.00275975  0.26167892  0.38038128  1
  O  O231  1  0.00407698  0.25015264  0.87305072  1
  O  O232  1  -0.00182301  0.76594740  0.36633196  1
  O  O233  1  0.01768599  0.75940967  0.88062931  1
  O  O234  1  0.50996342  0.24854496  0.37206840  1
  O  O235  1  0.50057253  0.26034460  0.86486147  1
  O  O236  1  0.51705805  0.76250071  0.39722325  1
  O  O237  1  0.50385772  0.76681207  0.87219197  1
  O  O238  1  0.25056100  0.13084302  0.49187604  1
  O  O239  1  0.25703850  0.13505069  0.98917539  1
  O  O240  1  0.23723415  0.62944941  0.50061724  1
  O  O241  1  0.24053309  0.62516844  0.98707256  1
  O  O242  1  0.74813524  0.13367350  0.50658191  1
  O  O243  1  0.75067511  0.13328457  0.99896385  1
  O  O244  1  0.76155045  0.61987519  0.48994021  1
  O  O245  1  0.74833452  0.64349356  0.98658777  1
  O  O246  1  0.26230041  0.35915371  -0.01121007  1
  O  O247  1  0.26284347  0.36252494  0.49075104  1
  O  O248  1  0.25936022  0.87293093  0.00948078  1
  O  O249  1  0.25302112  0.86872455  0.51098441  1
  O  O250  1  0.75854459  0.36893687  -0.00242166  1
  O  O251  1  0.74829835  0.36682515  0.51174721  1
  O  O252  1  0.74694989  0.86195277  0.01019479  1
  O  O253  1  0.75366097  0.88382372  0.50962531  1
  O  O254  1  0.12513723  0.50406270  0.24016959  1
  O  O255  1  0.13887349  0.49273335  0.76606564  1
  O  O256  1  0.12762236  0.99269150  0.23848534  1
  O  O257  1  0.12888092  0.98976301  0.74114840  1
  O  O258  1  0.64935655  0.50213669  0.25977902  1
  O  O259  1  0.63630525  0.49542652  0.73742623  1
  O  O260  1  0.63837862  1.00569509  0.25058644  1
  O  O261  1  0.63801816  0.99953319  0.73980056  1
  O  O262  1  0.37083566  0.00916087  0.25356647  1
  O  O263  1  0.36908997  0.00943204  0.75615106  1
  O  O264  1  0.36809859  0.50632464  0.20572288  1
  O  O265  1  0.36404395  0.50333933  0.75942979  1
  O  O266  1  0.86917777  0.01374760  0.24866005  1
  O  O267  1  0.86813579  0.00358578  0.75595043  1
  O  O268  1  0.87284071  0.51526425  0.24709424  1
  O  O269  1  0.85572595  0.49452683  0.73935751  1
  O  O270  1  0.11171442  0.37765871  0.36181113  1
  O  O271  1  0.10709524  0.36304886  0.86961574  1
  O  O272  1  0.11325064  0.88102072  0.36183714  1
  O  O273  1  0.13830916  0.86542183  0.86614696  1
  O  O274  1  0.60984350  0.36247066  0.38178323  1
  O  O275  1  0.60801075  0.38311619  0.87327840  1
  O  O276  1  0.63668387  0.86210813  0.37913936  1
  O  O277  1  0.60555752  0.88705971  0.87451793  1
  O  O278  1  0.38584833  0.12816677  0.13252563  1
  O  O279  1  0.38038992  0.12924614  0.63464816  1
  O  O280  1  0.36373207  0.62648796  0.11816705  1
  O  O281  1  0.38382081  0.62589893  0.62981465  1
  O  O282  1  0.87371909  0.13198381  0.13246742  1
  O  O283  1  0.88251065  0.12696091  0.63427302  1
  O  O284  1  0.86999101  0.62902484  0.13649821  1
  O  O285  1  0.88976475  0.62918897  0.62720731  1
  O  O286  1  0.26222741  0.24087362  0.11631544  1
  O  O287  1  0.26149231  0.24232460  0.61815478  1
  O  O288  1  0.24276669  0.76504760  0.12784038  1
  O  O289  1  0.25468548  0.75351675  0.61781959  1
  O  O290  1  0.76167229  0.24900496  0.11182391  1
  O  O291  1  0.74942250  0.25177068  0.61995898  1
  O  O292  1  0.74270109  0.76881162  0.13943372  1
  O  O293  1  0.76612508  0.76214394  0.61882715  1
  O  O294  1  0.25962776  0.23767735  0.38433342  1
  O  O295  1  0.24199089  0.24306611  0.88189474  1
  O  O296  1  0.24341663  0.75407353  0.39056180  1
  O  O297  1  0.25027154  0.74015118  0.87628628  1
  O  O298  1  0.73490369  0.25543070  0.38438707  1
  O  O299  1  0.75029631  0.25285300  0.89331220  1
  O  O300  1  0.74586567  0.73901018  0.37342228  1
  O  O301  1  0.73731683  0.76439837  0.86981624  1
  O  O302  1  -0.00646853  0.10490031  0.00120208  1
  O  O303  1  0.00052288  0.13323890  0.51493011  1
  O  O304  1  0.01160496  0.64508278  0.00455118  1
  O  O305  1  0.00865945  0.61551114  0.49759605  1
  O  O306  1  0.50177626  0.13401980  0.01401030  1
  O  O307  1  0.48682203  0.11254825  0.51137044  1
  O  O308  1  0.51580472  0.63072545  0.00108837  1
  O  O309  1  0.49053240  0.61478724  0.50584198  1
  O  O310  1  0.48695066  0.37178876  0.49047438  1
  O  O311  1  0.49036807  0.36215480  0.98259064  1
  O  O312  1  0.48874064  0.88505340  0.50769866  1
  O  O313  1  0.48988069  0.87419235  1.00060547  1
  O  O314  1  1.00440921  0.38201160  0.49131943  1
  O  O315  1  0.99256616  0.37141470  0.98949110  1
  O  O316  1  1.00835166  0.87333333  0.48465010  1
  O  O317  1  0.99607443  0.89292112  1.00754860  1
  O  O318  1  0.51113372  0.48588364  0.36963555  1
  O  O319  1  0.48649295  0.48583400  0.86606239  1
  O  O320  1  0.49479525  0.99808152  0.38500317  1
  O  O321  1  0.48561354  0.98999949  0.86830109  1
  O  O322  1  0.99802983  0.49252419  0.38498443  1
  O  O323  1  0.98670326  0.48095011  0.86833503  1
  O  O324  1  0.98894766  0.98962486  0.36789636  1
  O  O325  1  0.99656799  0.99959159  0.88331518  1
  O  O326  1  0.01334882  -0.00053124  0.12167222  1
  O  O327  1  0.00794984  0.00970196  0.63123030  1
  O  O328  1  0.01785854  0.49593955  0.11575547  1
  O  O329  1  -0.00376756  0.51100762  0.61675979  1
  O  O330  1  0.51248255  0.01332844  0.12860591  1
  O  O331  1  0.50526336  0.00399993  0.62116670  1
  O  O332  1  0.52552832  0.55202757  0.17760521  1
  O  O333  1  0.50859320  0.50673026  0.62720406  1
  O  O334  1  0.23553917  0.36936918  0.25808730  1
  O  O335  1  0.24250342  0.38578610  0.75971473  1
  O  O336  1  0.24197628  0.88027379  0.24577549  1
  O  O337  1  0.24823280  0.87262340  0.73689784  1
  O  O338  1  0.76437259  0.39007981  0.25400726  1
  O  O339  1  0.74618649  0.37087331  0.73401825  1
  O  O340  1  0.75672251  0.89293593  0.23886022  1
  O  O341  1  0.75662441  0.88938712  0.73275971  1
  O  O342  1  0.25968996  0.12162429  0.25597874  1
  O  O343  1  0.25719187  0.12852145  0.75925324  1
  O  O344  1  0.24854794  0.62903090  0.26866527  1
  O  O345  1  0.25697960  0.61347978  0.76017685  1
  O  O346  1  0.75752537  0.11363650  0.24617685  1
  O  O347  1  0.76140575  0.10620737  0.73869317  1
  O  O348  1  0.76211319  0.62304003  0.25443421  1
  O  O349  1  0.74720166  0.61360317  0.73346150  1
  O  O350  1  0.36864639  0.11891630  0.36743982  1
  O  O351  1  0.36500115  0.11718040  0.86441744  1
  O  O352  1  0.34699631  0.62346902  0.39626287  1
  O  O353  1  0.37299461  0.61913389  0.87165509  1
  O  O354  1  0.88133261  0.11420498  0.35954021  1
  O  O355  1  0.87909434  0.11331282  0.86313661  1
  O  O356  1  0.86593059  0.62642318  0.36465017  1
  O  O357  1  0.89627953  0.62669639  0.85396296  1
  O  O358  1  0.11357725  0.37951072  0.14751838  1
  O  O359  1  0.11585601  0.37126083  0.64590675  1
  O  O360  1  0.13275995  0.88317709  0.13325271  1
  O  O361  1  0.12908583  0.87789865  0.63134328  1
  O  O362  1  0.56427322  0.40811187  0.13272603  1
  O  O363  1  0.62639921  0.38437777  0.62441439  1
  O  O364  1  0.63431952  0.89393355  0.12139102  1
  O  O365  1  0.63384374  0.88366691  0.61825569  1
  O  O366  1  0.12393762  0.25619155  0.24955125  1
  O  O367  1  0.11920249  0.25666398  0.76146827  1
  O  O368  1  0.11297282  0.75752540  0.25212824  1
  O  O369  1  0.13092538  0.75742798  0.76288950  1
  O  O370  1  0.61689575  0.24484815  0.26185819  1
  O  O371  1  0.60897691  0.25463911  0.73744218  1
  O  O372  1  0.61342842  0.73522770  0.27846192  1
  O  O373  1  0.61974042  0.75642948  0.72559408  1
  O  O374  1  0.38022550  0.24189815  0.24394587  1
  O  O375  1  0.38035489  0.24394229  0.74407221  1
  O  O376  1  0.37734833  0.74082841  0.24984355  1
  O  O377  1  0.36634895  0.73778410  0.73604850  1
  O  O378  1  0.86570411  0.23617033  0.23791518  1
  O  O379  1  0.87555297  0.23987732  0.74654005  1
  O  O380  1  0.88316318  0.74555818  0.25039878  1
  O  O381  1  0.88292727  0.76302114  0.72296683  1
  O  O382  1  0.36750615  0.48308491  0.50856200  1
  O  O383  1  0.36856322  0.48195906  0.99504796  1
  O  O384  1  0.38034324  0.99136623  0.49866899  1
  O  O385  1  0.37068319  0.99001086  0.98930349  1
  O  O386  1  0.88877534  0.49330759  0.50029843  1
  O  O387  1  0.86108944  0.48777712  0.99620870  1
  O  O388  1  0.87155766  1.01159110  0.48114414  1
  O  O389  1  0.88202847  0.99670101  0.98903942  1
  O  O390  1  0.11644275  -0.00389336  0.00905117  1
  O  O391  1  0.12911644  0.00240531  0.51426776  1
  O  O392  1  0.11028423  0.52662878  -0.02934389  1
  O  O393  1  0.11667200  0.50640139  0.50024195  1
  O  O394  1  0.63121648  0.00821332  0.01112688  1
  O  O395  1  0.61168097  -0.00247382  0.50607595  1
  O  O396  1  0.63752257  0.51824979  -0.00264496  1
  O  O397  1  0.62826469  0.49341585  0.51115273  1
  O  O398  1  0.38826826  0.36078328  0.11569248  1
  O  O399  1  0.38326134  0.36337657  0.61363685  1
  O  O400  1  0.36840603  0.88638467  0.11168024  1
  O  O401  1  0.36734676  0.86752591  0.61946742  1
  O  O402  1  0.87838585  0.36718564  0.10998153  1
  O  O403  1  0.86618623  0.36358101  0.62273257  1
  O  O404  1  0.85636262  0.88668628  0.11973817  1
  O  O405  1  0.86896402  0.87973653  0.61469989  1
  O  O406  1  0.13791257  0.11627241  0.37477621  1
  O  O407  1  0.13379169  0.13501513  0.86797899  1
  O  O408  1  0.13371319  0.62633316  0.38634598  1
  O  O409  1  0.13103381  0.64333264  0.87844465  1
  O  O410  1  0.62334150  0.13632184  0.37762654  1
  O  O411  1  0.62817109  0.13031899  0.85732848  1
  O  O412  1  0.64401364  0.62672308  0.37981238  1
  O  O413  1  0.61853109  0.63030218  0.88315640  1
