# generated using pymatgen
data_V79Zn79O256
_symmetry_space_group_name_H-M   'P 1'
_cell_length_a   16.89509445
_cell_length_b   16.89777565
_cell_length_c   16.89340462
_cell_angle_alpha   90.14075080
_cell_angle_beta   90.06095057
_cell_angle_gamma   90.05931237
_symmetry_Int_Tables_number   1
_chemical_formula_structural   V79Zn79O256
_chemical_formula_sum   'V79 Zn79 O256'
_cell_volume   4822.87002259
_cell_formula_units_Z   1
loop_
 _symmetry_equiv_pos_site_id
 _symmetry_equiv_pos_as_xyz
  1  'x, y, z'
loop_
 _atom_site_type_symbol
 _atom_site_label
 _atom_site_symmetry_multiplicity
 _atom_site_fract_x
 _atom_site_fract_y
 _atom_site_fract_z
 _atom_site_occupancy
  V  V0  1  0.74505338  0.37065210  0.62407875  1
  V  V1  1  0.37994857  0.51105273  0.87758007  1
  V  V2  1  0.74183805  0.50282521  0.74166134  1
  V  V3  1  0.74724233  0.62251660  0.37625624  1
  V  V4  1  0.87837260  0.49985609  0.87904750  1
  V  V5  1  -0.00453118  0.25100224  0.74959610  1
  V  V6  1  0.63168505  -0.00515857  0.62639149  1
  V  V7  1  0.86932641  0.37061176  0.50127368  1
  V  V8  1  0.38209856  0.37481011  -0.00235711  1
  V  V9  1  -0.00182220  0.63208554  0.62583895  1
  V  V10  1  0.00624519  0.24506924  0.23831697  1
  V  V11  1  0.00099448  0.49859748  0.49821082  1
  V  V12  1  0.36326831  0.11366911  0.74803894  1
  V  V13  1  0.87438608  0.49896109  0.37073997  1
  V  V14  1  0.38379751  0.62498664  0.25102485  1
  V  V15  1  0.36650142  0.86775929  0.50190336  1
  V  V16  1  0.74965207  0.62549395  0.87370213  1
  V  V17  1  0.37529128  -0.00296894  0.37706866  1
  V  V18  1  0.12212690  0.01402838  0.12018122  1
  V  V19  1  0.62964049  0.48607730  0.12273965  1
  V  V20  1  0.38063907  0.37835268  0.49519565  1
  V  V21  1  0.24928594  0.12371060  0.37729881  1
  V  V22  1  0.50549141  -0.00346435  0.49857126  1
  V  V23  1  0.62383840  0.87056797  0.24832471  1
  V  V24  1  0.86723793  0.12424130  0.76217306  1
  V  V25  1  0.37477283  0.25171284  0.62550271  1
  V  V26  1  0.62346582  0.62724925  0.00491268  1
  V  V27  1  0.37359553  0.50142767  0.37098801  1
  V  V28  1  0.25488314  0.38733545  0.12757622  1
  V  V29  1  0.62892081  0.13925950  0.49693995  1
  V  V30  1  0.13297264  0.63063041  0.49832794  1
  V  V31  1  0.49923770  0.25513506  0.75369936  1
  V  V32  1  0.62256592  0.75590558  0.87291639  1
  V  V33  1  0.50554763  0.74952682  0.74015219  1
  V  V34  1  0.11264601  0.86722344  0.25161219  1
  V  V35  1  0.25089031  0.62998506  0.36816475  1
  V  V36  1  0.85793436  0.25359656  0.12238394  1
  V  V37  1  0.75607485  0.75825631  0.00159497  1
  V  V38  1  0.62459573  0.62452382  0.51498731  1
  V  V39  1  0.62557681  0.74166822  0.37211684  1
  V  V40  1  0.00712279  0.61175671  0.12161090  1
  V  V41  1  0.60737304  0.01038144  0.11817565  1
  V  V42  1  0.24174556  0.23940314  0.00442468  1
  V  V43  1  0.87910010  -0.01367018  0.37839640  1
  V  V44  1  0.50114398  0.88333509  0.87700281  1
  V  V45  1  0.24598960  0.25022492  0.49901341  1
  V  V46  1  0.24909042  0.37619471  0.62621154  1
  V  V47  1  0.62058143  0.37878450  0.75447673  1
  V  V48  1  0.12864689  0.23691532  0.87588225  1
  V  V49  1  -0.00124167  0.37872833  0.88431642  1
  V  V50  1  0.74799019  0.13940761  0.37872169  1
  V  V51  1  0.50132917  0.86602068  0.37076680  1
  V  V52  1  0.14820158  0.74627669  0.87584633  1
  V  V53  1  0.38690673  0.74531546  0.12678648  1
  V  V54  1  0.88039731  0.12540481  0.24722503  1
  V  V55  1  0.11447715  0.75702633  0.37388300  1
  V  V56  1  0.37537051  0.87581136  0.00109274  1
  V  V57  1  0.24371545  0.85944555  0.12248300  1
  V  V58  1  0.63456457  0.23751098  0.88111417  1
  V  V59  1  0.87654976  0.63229050  0.74645062  1
  V  V60  1  0.13038060  0.38651930  0.24471194  1
  V  V61  1  0.25092047  0.50949792  0.75548370  1
  V  V62  1  0.00482868  0.11799312  0.62055566  1
  V  V63  1  0.74660932  0.48607286  0.24337775  1
  V  V64  1  0.12429907  0.37669867  0.75184183  1
  V  V65  1  0.50625113  0.26391552  0.27035437  1
  V  V66  1  0.74790568  0.00146427  0.24706916  1
  V  V67  1  0.42333850  0.19176778  0.07725707  1
  V  V68  1  0.38401655  0.12879064  0.25486153  1
  V  V69  1  0.50435596  0.12484404  0.62494135  1
  V  V70  1  0.50114147  0.50713051  0.51684350  1
  V  V71  1  0.35656696  0.74847672  0.62127446  1
  V  V72  1  0.12506141  0.50183228  0.62562557  1
  V  V73  1  -0.00325685  0.00785788  -0.01298976  1
  V  V74  1  0.75687372  0.87528976  0.60194511  1
  V  V75  1  0.12500618  0.24628336  0.37463133  1
  V  V76  1  0.08742631  0.86605035  0.75719148  1
  V  V77  1  0.87120774  0.75190692  0.60602998  1
  V  V78  1  0.75337126  -0.00508256  0.76188744  1
  Zn  Zn79  1  0.88082407  0.63053077  0.24756313  1
  Zn  Zn80  1  0.89491800  0.75720249  0.14066108  1
  Zn  Zn81  1  0.19713190  0.96444074  0.67961586  1
  Zn  Zn82  1  0.75355549  0.87894115  0.12575208  1
  Zn  Zn83  1  0.11780078  0.63672423  0.00096283  1
  Zn  Zn84  1  0.88622500  0.88296020  0.00123970  1
  Zn  Zn85  1  0.00271825  0.37361715  0.37327741  1
  Zn  Zn86  1  0.36312233  0.00082964  0.87741671  1
  Zn  Zn87  1  -0.00949230  0.00971390  0.49643300  1
  Zn  Zn88  1  0.37599029  0.62827269  0.74579539  1
  Zn  Zn89  1  0.50593986  0.49855245  -0.00194562  1
  Zn  Zn90  1  0.52306210  0.63064338  0.14590753  1
  Zn  Zn91  1  0.25004827  -0.00551897  0.25099419  1
  Zn  Zn92  1  0.86980476  0.24682037  0.61883977  1
  Zn  Zn93  1  0.86806945  0.37655428  0.00903439  1
  Zn  Zn94  1  0.19799444  0.19319742  0.19139690  1
  Zn  Zn95  1  0.18432465  0.18788250  0.68710122  1
  Zn  Zn96  1  0.18580801  0.68113618  0.18972382  1
  Zn  Zn97  1  0.17988062  0.69408260  0.69439050  1
  Zn  Zn98  1  0.68029929  0.18883175  0.19010445  1
  Zn  Zn99  1  0.68650392  0.18807578  0.69079660  1
  Zn  Zn100  1  0.71491953  0.69318240  0.19649855  1
  Zn  Zn101  1  0.69232560  0.69848092  0.68853486  1
  Zn  Zn102  1  0.31673915  0.31288018  0.31025276  1
  Zn  Zn103  1  0.31178704  0.31202221  0.81570319  1
  Zn  Zn104  1  0.30876601  0.80755968  0.31106046  1
  Zn  Zn105  1  0.31668157  0.81717755  0.80704675  1
  Zn  Zn106  1  0.81610304  0.31280185  0.30951286  1
  Zn  Zn107  1  0.80902685  0.31493457  0.81634749  1
  Zn  Zn108  1  0.80997088  0.80946241  0.31615735  1
  Zn  Zn109  1  0.81548256  0.81376605  0.80711086  1
  Zn  Zn110  1  0.19152745  0.43861139  0.43265323  1
  Zn  Zn111  1  0.19550831  0.42929794  0.93400272  1
  Zn  Zn112  1  0.19961714  0.95856195  0.47948879  1
  Zn  Zn113  1  0.17674400  0.92655873  0.93691552  1
  Zn  Zn114  1  0.68298708  0.43312909  0.43947164  1
  Zn  Zn115  1  0.69060461  0.43251997  0.93559906  1
  Zn  Zn116  1  0.68851810  0.94257001  0.42983398  1
  Zn  Zn117  1  0.68515209  0.94429168  0.94173339  1
  Zn  Zn118  1  0.30193471  0.05149817  0.06426089  1
  Zn  Zn119  1  0.31900405  0.06471923  0.56378866  1
  Zn  Zn120  1  0.31028050  0.56262747  0.06562864  1
  Zn  Zn121  1  0.31242365  0.56496109  0.56511899  1
  Zn  Zn122  1  0.81207314  0.06828900  0.05795649  1
  Zn  Zn123  1  0.81634927  0.06781613  0.56354362  1
  Zn  Zn124  1  0.81646938  0.56675955  0.06477777  1
  Zn  Zn125  1  0.81120480  0.55946272  0.55941633  1
  Zn  Zn126  1  0.44120393  0.44126053  0.18560123  1
  Zn  Zn127  1  0.43438651  0.43879312  0.68958161  1
  Zn  Zn128  1  0.43354898  0.93724273  0.19018485  1
  Zn  Zn129  1  0.44156253  0.92923986  0.68504562  1
  Zn  Zn130  1  0.94231446  0.43504929  0.18658488  1
  Zn  Zn131  1  0.93339269  0.44014000  0.68953307  1
  Zn  Zn132  1  0.93741459  0.94052580  0.17922646  1
  Zn  Zn133  1  0.92843919  0.93958709  0.68465632  1
  Zn  Zn134  1  0.06456817  0.05634533  0.30802149  1
  Zn  Zn135  1  0.05790127  0.05881149  0.80801370  1
  Zn  Zn136  1  0.06105474  0.56902708  0.30762931  1
  Zn  Zn137  1  0.06201388  0.56602700  0.81426948  1
  Zn  Zn138  1  0.56460788  0.06369168  0.31139969  1
  Zn  Zn139  1  0.56281083  0.06233978  0.80711078  1
  Zn  Zn140  1  0.56862943  0.53103275  0.32644222  1
  Zn  Zn141  1  0.55925718  0.56624351  0.81141471  1
  Zn  Zn142  1  0.44009435  0.18920038  0.43815860  1
  Zn  Zn143  1  0.44390557  0.17957899  0.91370780  1
  Zn  Zn144  1  0.44032294  0.68463032  0.44034626  1
  Zn  Zn145  1  0.43861742  0.69316853  0.94094026  1
  Zn  Zn146  1  0.93869407  0.18578824  0.43223323  1
  Zn  Zn147  1  0.94184090  0.18354934  0.94497049  1
  Zn  Zn148  1  0.93995654  0.68546664  0.43363656  1
  Zn  Zn149  1  0.94023856  0.68300179  0.94674578  1
  Zn  Zn150  1  0.06609196  0.31437583  0.06268387  1
  Zn  Zn151  1  0.06035329  0.31139259  0.56414634  1
  Zn  Zn152  1  0.05736599  0.80908954  0.05396768  1
  Zn  Zn153  1  0.07644280  0.81187245  0.57220964  1
  Zn  Zn154  1  0.56739752  0.30555885  0.06466665  1
  Zn  Zn155  1  0.56123848  0.31942072  0.56796819  1
  Zn  Zn156  1  0.56460274  0.81872864  0.06166973  1
  Zn  Zn157  1  0.57040604  0.81173984  0.55645553  1
  O  O158  1  0.13981675  0.11097510  0.13492467  1
  O  O159  1  0.10487490  0.12458452  0.63653880  1
  O  O160  1  0.11528108  0.62543696  0.12256463  1
  O  O161  1  0.11722307  0.62372576  0.61828162  1
  O  O162  1  0.62266806  0.10909096  0.13314907  1
  O  O163  1  0.62513308  0.11567691  0.61594352  1
  O  O164  1  0.63658146  0.62487500  0.11497171  1
  O  O165  1  0.63555425  0.63163921  0.61306599  1
  O  O166  1  0.36299252  0.38586848  0.38757323  1
  O  O167  1  0.37173694  0.37945183  0.89261892  1
  O  O168  1  0.38525103  0.87482112  0.37859421  1
  O  O169  1  0.38783003  0.86964823  0.88475046  1
  O  O170  1  0.87761517  0.38395248  0.38175180  1
  O  O171  1  0.88403777  0.38442396  0.86949191  1
  O  O172  1  0.87303647  0.88668990  0.36879542  1
  O  O173  1  0.90067131  0.83540745  0.88531435  1
  O  O174  1  0.25465913  0.01122080  0.38687260  1
  O  O175  1  0.25300968  -0.03541454  0.84988621  1
  O  O176  1  0.26174992  0.51525645  0.38317186  1
  O  O177  1  0.26563281  0.48985893  0.86190635  1
  O  O178  1  0.76047550  0.00693662  0.36456724  1
  O  O179  1  0.74391094  -0.00322641  0.86033597  1
  O  O180  1  0.75938215  0.50163847  0.36714300  1
  O  O181  1  0.75490784  0.51156871  0.86395834  1
  O  O182  1  0.25150145  0.48631172  0.13112658  1
  O  O183  1  0.24489753  0.49551483  0.63322650  1
  O  O184  1  0.23793253  0.98300771  0.12956676  1
  O  O185  1  0.23317538  0.99984165  0.58314214  1
  O  O186  1  0.74615700  0.50119332  0.13458443  1
  O  O187  1  0.75491669  0.49347187  0.63638733  1
  O  O188  1  0.74522110  1.00113718  0.13884570  1
  O  O189  1  0.74918620  0.98947257  0.62364354  1
  O  O190  1  0.01650646  0.36613013  0.25133685  1
  O  O191  1  0.00341378  0.36803644  0.75460819  1
  O  O192  1  0.01430245  0.87354988  0.24357347  1
  O  O193  1  -0.01168060  0.86366347  0.74472192  1
  O  O194  1  0.48741585  0.36153819  0.25033835  1
  O  O195  1  0.50753220  0.36636099  0.73799126  1
  O  O196  1  0.50968640  0.87997313  0.26246569  1
  O  O197  1  0.49477597  0.86152382  0.76528842  1
  O  O198  1  0.48920199  0.13229153  0.26014456  1
  O  O199  1  0.49315542  0.13475140  0.74175026  1
  O  O200  1  0.48828773  0.61676231  0.25642140  1
  O  O201  1  0.49479719  0.64471505  0.75686030  1
  O  O202  1  0.99057590  0.13365151  0.25900096  1
  O  O203  1  0.98705427  0.13186952  0.74333704  1
  O  O204  1  0.99667713  0.62389564  0.23572948  1
  O  O205  1  0.98831812  0.61679202  0.73497489  1
  O  O206  1  0.36924838  0.25783932  0.00491251  1
  O  O207  1  0.36975069  0.26037846  0.50398256  1
  O  O208  1  0.37621494  0.75748595  0.01619696  1
  O  O209  1  0.38488546  0.75445754  0.51400165  1
  O  O210  1  0.87934347  0.24166616  0.02161412  1
  O  O211  1  0.88151880  0.26749631  0.49634672  1
  O  O212  1  0.85621619  0.74194939  0.00539697  1
  O  O213  1  0.87085350  0.74078783  0.50642320  1
  O  O214  1  0.13572015  0.26001992  0.48977574  1
  O  O215  1  0.13447564  0.25115131  0.99258789  1
  O  O216  1  0.12168103  0.73939845  0.48884691  1
  O  O217  1  0.12990433  0.75502825  0.98099897  1
  O  O218  1  0.61785531  0.23792125  0.50652953  1
  O  O219  1  0.61788132  0.25706061  0.97905564  1
  O  O220  1  0.62112876  0.73219160  0.48903333  1
  O  O221  1  0.63090828  0.74642110  0.98859422  1
  O  O222  1  0.49076330  0.24583042  0.13043348  1
  O  O223  1  0.49443156  0.24481819  0.63138481  1
  O  O224  1  0.49144491  0.74713906  0.12443804  1
  O  O225  1  0.51043295  0.75825791  0.63960228  1
  O  O226  1  1.00600344  0.24769995  0.13684475  1
  O  O227  1  0.99824112  0.24539579  0.63705635  1
  O  O228  1  1.00166814  0.73384533  0.11584152  1
  O  O229  1  0.99096932  0.73754498  0.61469904  1
  O  O230  1  0.01144331  0.25199362  0.36752397  1
  O  O231  1  0.00659728  0.25691980  0.86698253  1
  O  O232  1  0.01432452  0.74636351  0.37387467  1
  O  O233  1  -0.04190652  0.77724180  0.87908057  1
  O  O234  1  0.50274089  0.25500996  0.37220068  1
  O  O235  1  0.50491870  0.25524522  0.85877375  1
  O  O236  1  0.50987317  0.75743391  0.37853651  1
  O  O237  1  0.50714865  0.75725351  0.86911225  1
  O  O238  1  0.26115155  0.14266547  0.48998441  1
  O  O239  1  0.25983437  0.14086900  1.00368136  1
  O  O240  1  0.23711487  0.62085283  0.49471068  1
  O  O241  1  0.22703501  0.58348092  0.98792508  1
  O  O242  1  0.74509986  0.12404381  0.48732156  1
  O  O243  1  0.74355841  0.12176769  0.99065339  1
  O  O244  1  0.73285517  0.60641051  0.48807976  1
  O  O245  1  0.74311961  0.63454649  0.98911862  1
  O  O246  1  0.25855101  0.36772699  0.01215300  1
  O  O247  1  0.25765869  0.36896652  0.50583794  1
  O  O248  1  0.25539023  0.87240460  0.01658093  1
  O  O249  1  0.26867771  0.86525563  0.48592975  1
  O  O250  1  0.75835925  0.37042918  -0.00631452  1
  O  O251  1  0.75681167  0.38664145  0.51057181  1
  O  O252  1  0.75825366  0.86438025  -0.01247276  1
  O  O253  1  0.75088172  0.87766507  0.50301090  1
  O  O254  1  0.12788029  0.48394435  0.26130112  1
  O  O255  1  0.13165973  0.49753073  0.74654942  1
  O  O256  1  0.12956252  0.98360790  0.24453233  1
  O  O257  1  0.10856010  0.97272453  0.75492747  1
  O  O258  1  0.63643299  0.50528450  0.23073676  1
  O  O259  1  0.63279322  0.49637087  0.75614487  1
  O  O260  1  0.63043105  0.99172116  0.24740950  1
  O  O261  1  0.64101971  1.00839110  0.73580353  1
  O  O262  1  0.37152774  0.00717784  0.26027407  1
  O  O263  1  0.38249874  0.01319310  0.73833817  1
  O  O264  1  0.37814473  0.50726702  0.26075124  1
  O  O265  1  0.37129938  0.50404799  0.76114374  1
  O  O266  1  0.86901739  0.00729518  0.25597300  1
  O  O267  1  0.86516044  0.01327039  0.75072258  1
  O  O268  1  0.86602867  0.49570128  0.25788969  1
  O  O269  1  0.86408853  0.51139542  0.75583998  1
  O  O270  1  0.13112577  0.36435719  0.36341826  1
  O  O271  1  0.11586600  0.37104879  0.87072133  1
  O  O272  1  0.12995145  0.86220348  0.36181550  1
  O  O273  1  0.11801243  0.85519534  0.86564511  1
  O  O274  1  0.60907697  0.42693182  0.35995733  1
  O  O275  1  0.62635243  0.36930697  0.85854151  1
  O  O276  1  0.62050466  0.86525712  0.37041855  1
  O  O277  1  0.61181383  0.86810261  0.88307944  1
  O  O278  1  0.36820740  0.12466064  0.13682457  1
  O  O279  1  0.38443155  0.13228255  0.62904289  1
  O  O280  1  0.37472113  0.63434858  0.12946755  1
  O  O281  1  0.37324525  0.64323201  0.62403453  1
  O  O282  1  0.86835639  0.13470163  0.14213943  1
  O  O283  1  0.88184063  0.13204680  0.63447012  1
  O  O284  1  0.88694508  0.62810019  0.12632972  1
  O  O285  1  0.87846415  0.62969263  0.62578242  1
  O  O286  1  0.24541776  0.25992157  0.11050322  1
  O  O287  1  0.25236908  0.25527590  0.61675348  1
  O  O288  1  0.25906587  0.75598455  0.12880058  1
  O  O289  1  0.25782889  0.75244400  0.62970719  1
  O  O290  1  0.75897923  0.25067198  0.13420520  1
  O  O291  1  0.75206327  0.26540069  0.63223895  1
  O  O292  1  0.73313771  0.75879323  0.10237558  1
  O  O293  1  0.75474609  0.76848267  0.62375430  1
  O  O294  1  0.24486436  0.24488351  0.38032859  1
  O  O295  1  0.24105089  0.25967640  0.89079024  1
  O  O296  1  0.24127858  0.73686409  0.37507321  1
  O  O297  1  0.24829435  0.74510259  0.86536447  1
  O  O298  1  0.75155271  0.23829805  0.36963445  1
  O  O299  1  0.73419429  0.24637453  0.86326645  1
  O  O300  1  0.73825141  0.73472022  0.37631738  1
  O  O301  1  0.74311309  0.74425244  0.87721899  1
  O  O302  1  0.00677764  0.11003662  0.00150284  1
  O  O303  1  -0.00345273  0.13066898  0.51514719  1
  O  O304  1  0.00202834  0.61579596  0.00930417  1
  O  O305  1  0.00762415  0.61458743  0.50529493  1
  O  O306  1  0.47364460  0.13376961  0.01317320  1
  O  O307  1  0.50730829  0.11451948  0.50344044  1
  O  O308  1  0.51619071  0.62530424  -0.00056517  1
  O  O309  1  0.51113341  0.61748871  0.50320108  1
  O  O310  1  0.48917474  0.38950609  0.50895879  1
  O  O311  1  0.48374764  0.37617933  1.01095575  1
  O  O312  1  0.50071715  0.88106570  0.49041518  1
  O  O313  1  0.49127210  0.87089193  0.98804518  1
  O  O314  1  0.99397724  0.38626928  0.50005120  1
  O  O315  1  0.99361602  0.36833070  0.98765501  1
  O  O316  1  1.03981861  0.88664450  0.49348813  1
  O  O317  1  1.00274031  0.89723477  1.01113013  1
  O  O318  1  0.47738701  0.50973977  0.39614999  1
  O  O319  1  0.48544766  0.50068086  0.87588522  1
  O  O320  1  0.49847079  0.99068471  0.38321308  1
  O  O321  1  0.49767614  0.98508741  0.86496860  1
  O  O322  1  0.99307396  0.50078329  0.38244976  1
  O  O323  1  0.99069919  0.49027910  0.86553403  1
  O  O324  1  0.98256244  1.00787252  0.37329303  1
  O  O325  1  1.00121315  0.99963489  0.88671529  1
  O  O326  1  0.02023915  0.00471314  0.13186453  1
  O  O327  1  -0.01253658  0.01523292  0.62259934  1
  O  O328  1  -0.00163582  0.50901628  0.12449719  1
  O  O329  1  0.00346560  0.50817293  0.61645343  1
  O  O330  1  0.50740092  -0.00343737  0.12945650  1
  O  O331  1  0.51245370  0.00039925  0.61764901  1
  O  O332  1  0.51842402  0.50725369  0.12273907  1
  O  O333  1  0.48906055  0.50809955  0.61633068  1
  O  O334  1  0.24208749  0.36448198  0.23736948  1
  O  O335  1  0.24480273  0.38136634  0.74443084  1
  O  O336  1  0.24610325  0.87342910  0.23896695  1
  O  O337  1  0.25521768  0.91326436  0.77873382  1
  O  O338  1  0.74923479  0.38702221  0.25354411  1
  O  O339  1  0.74311124  0.38570908  0.74378084  1
  O  O340  1  0.73778857  0.88576262  0.25440394  1
  O  O341  1  0.76125906  0.89131858  0.74213215  1
  O  O342  1  0.26231576  0.12512397  0.26469666  1
  O  O343  1  0.26343259  0.12036328  0.73421298  1
  O  O344  1  0.26331175  0.62605029  0.25851101  1
  O  O345  1  0.25125911  0.61311876  0.74460213  1
  O  O346  1  0.75440264  0.11968936  0.26179802  1
  O  O347  1  0.76112750  0.11589425  0.74361827  1
  O  O348  1  0.74949392  0.60538814  0.26520629  1
  O  O349  1  0.75344745  0.62216243  0.75524913  1
  O  O350  1  0.37021540  0.11816437  0.37369793  1
  O  O351  1  0.37153968  0.11691547  0.85488479  1
  O  O352  1  0.36887557  0.62500381  0.36955814  1
  O  O353  1  0.37410949  0.61338690  0.88121539  1
  O  O354  1  0.86308672  0.12279020  0.36709439  1
  O  O355  1  0.87715963  0.13253068  0.86067353  1
  O  O356  1  0.86725250  0.61382300  0.37654432  1
  O  O357  1  0.86823568  0.62186603  0.86545367  1
  O  O358  1  0.13439256  0.37600533  0.13620930  1
  O  O359  1  0.12818659  0.38218448  0.63079916  1
  O  O360  1  0.13568329  0.86599006  0.13497344  1
  O  O361  1  0.13254617  0.85748006  0.65980835  1
  O  O362  1  0.62626893  0.38781832  0.11804184  1
  O  O363  1  0.63438125  0.37523315  0.63680463  1
  O  O364  1  0.62735152  0.88333004  0.13581813  1
  O  O365  1  0.64047274  0.88518872  0.61674035  1
  O  O366  1  0.12258977  0.25428809  0.25780424  1
  O  O367  1  0.11793430  0.25763801  0.75635134  1
  O  O368  1  0.12859025  0.75630998  0.26148469  1
  O  O369  1  0.11472992  0.75273660  0.76719010  1
  O  O370  1  0.60349844  0.24944930  0.24525299  1
  O  O371  1  0.61578125  0.25658512  0.75357451  1
  O  O372  1  0.63292201  0.75914840  0.25839576  1
  O  O373  1  0.61692384  0.74802187  0.76107064  1
  O  O374  1  0.38524893  0.23858337  0.25721439  1
  O  O375  1  0.37867453  0.24363854  0.74557280  1
  O  O376  1  0.37580316  0.74218523  0.23677275  1
  O  O377  1  0.38403919  0.75324372  0.73469123  1
  O  O378  1  0.88604572  0.24578582  0.24325130  1
  O  O379  1  0.88236724  0.24392949  0.75090056  1
  O  O380  1  0.83013595  0.73614407  0.23422258  1
  O  O381  1  0.86552058  0.73569506  0.73400663  1
  O  O382  1  0.37911832  0.49531846  0.49976589  1
  O  O383  1  0.37558763  0.49227258  0.99206993  1
  O  O384  1  0.38938946  0.98974043  0.49743681  1
  O  O385  1  0.36531051  0.98283655  0.99615025  1
  O  O386  1  0.88280122  0.49356503  0.49190548  1
  O  O387  1  0.86620425  0.50250107  0.98115752  1
  O  O388  1  0.87183081  1.00262597  0.48282351  1
  O  O389  1  0.88973851  1.00222288  1.00729859  1
  O  O390  1  0.12343435  -0.00320980  0.01376563  1
  O  O391  1  0.09088819  -0.04458831  0.51020490  1
  O  O392  1  0.16695924  0.52205206  -0.00183076  1
  O  O393  1  0.11827782  0.50536589  0.50337516  1
  O  O394  1  0.62499920  -0.00520473  0.01935218  1
  O  O395  1  0.61985923  0.00659201  0.50447629  1
  O  O396  1  0.63028481  0.50797391  0.00768121  1
  O  O397  1  0.60840462  0.50901098  0.50557224  1
  O  O398  1  0.36403348  0.38128832  0.11533120  1
  O  O399  1  0.36779511  0.37104499  0.61761371  1
  O  O400  1  0.36857628  0.86381012  0.12363033  1
  O  O401  1  0.37979009  0.86193710  0.61508271  1
  O  O402  1  0.88172813  0.35730582  0.12808020  1
  O  O403  1  0.86701427  0.37579914  0.61751311  1
  O  O404  1  0.86897166  0.87024312  0.12137959  1
  O  O405  1  0.86532876  0.86812707  0.61698797  1
  O  O406  1  0.13593567  0.13397189  0.36881005  1
  O  O407  1  0.12428893  0.13851743  0.86197266  1
  O  O408  1  0.13081580  0.63217710  0.37877865  1
  O  O409  1  0.10962047  0.64595867  0.87623257  1
  O  O410  1  0.63982723  0.11853786  0.38229777  1
  O  O411  1  0.61439932  0.13799292  0.87152326  1
  O  O412  1  0.62851217  0.62654921  0.37703412  1
  O  O413  1  0.63324230  0.63246897  0.88094566  1
