# generated using pymatgen
data_V79Zn79O256
_symmetry_space_group_name_H-M   'P 1'
_cell_length_a   16.91324832
_cell_length_b   16.90362433
_cell_length_c   16.88609600
_cell_angle_alpha   90.20476992
_cell_angle_beta   90.14983573
_cell_angle_gamma   89.93172143
_symmetry_Int_Tables_number   1
_chemical_formula_structural   V79Zn79O256
_chemical_formula_sum   'V79 Zn79 O256'
_cell_volume   4827.60300940
_cell_formula_units_Z   1
loop_
 _symmetry_equiv_pos_site_id
 _symmetry_equiv_pos_as_xyz
  1  'x, y, z'
loop_
 _atom_site_type_symbol
 _atom_site_label
 _atom_site_symmetry_multiplicity
 _atom_site_fract_x
 _atom_site_fract_y
 _atom_site_fract_z
 _atom_site_occupancy
  V  V0  1  0.00401415  0.50489073  0.50739584  1
  V  V1  1  0.63213040  0.63252955  -0.01007730  1
  V  V2  1  0.87635991  0.25265853  0.11474040  1
  V  V3  1  0.25854943  0.90340990  0.12913146  1
  V  V4  1  0.37634037  0.63011940  0.75075379  1
  V  V5  1  0.12569043  0.12809807  0.50661451  1
  V  V6  1  0.51824050  0.86275583  0.86367641  1
  V  V7  1  0.63098826  0.74837794  0.37409355  1
  V  V8  1  0.36531405  0.74786342  0.61802903  1
  V  V9  1  0.12148939  0.25259765  0.87687805  1
  V  V10  1  0.24779327  0.63651105  0.37773780  1
  V  V11  1  0.25440013  0.74792298  0.01881850  1
  V  V12  1  0.25508934  0.62292806  0.87695999  1
  V  V13  1  0.37584997  0.37527707  0.01912730  1
  V  V14  1  0.37034127  0.24870801  0.61872837  1
  V  V15  1  0.12526447  0.36962309  0.24545420  1
  V  V16  1  0.50142835  -0.00088016  -0.00796554  1
  V  V17  1  0.36519031  0.87026191  0.49719152  1
  V  V18  1  0.87288260  0.87157031  0.50793951  1
  V  V19  1  0.86942855  -0.00129007  0.37262528  1
  V  V20  1  0.13138831  0.00332367  0.62875601  1
  V  V21  1  0.12495907  0.87861231  0.23894006  1
  V  V22  1  -0.00245932  0.73869662  0.75138636  1
  V  V23  1  0.86534832  0.37375041  -0.01397389  1
  V  V24  1  0.62677503  0.12079114  0.49408929  1
  V  V25  1  0.75708890  0.50719046  0.75797179  1
  V  V26  1  0.00758174  0.86179248  0.37373934  1
  V  V27  1  0.63754421  0.50585402  0.12829264  1
  V  V28  1  0.11617773  0.62644669  0.00457585  1
  V  V29  1  0.87595332  0.73992178  0.63168395  1
  V  V30  1  0.12746695  0.25004193  0.38241885  1
  V  V31  1  0.50331356  0.12251112  0.62395427  1
  V  V32  1  0.63170658  0.87402253  0.24480591  1
  V  V33  1  0.62857648  0.25174083  0.87837513  1
  V  V34  1  0.25059762  0.37249632  0.61934452  1
  V  V35  1  0.25671864  0.49726091  0.75213794  1
  V  V36  1  0.62554695  0.37901190  0.25049020  1
  V  V37  1  0.63357233  -0.00236251  0.12536464  1
  V  V38  1  0.88777584  0.11853827  0.74710740  1
  V  V39  1  0.87685534  0.13968483  0.25842605  1
  V  V40  1  0.36807100  0.11327251  0.75461734  1
  V  V41  1  0.63032337  0.62665146  0.49692935  1
  V  V42  1  0.12483373  0.50580367  0.12790244  1
  V  V43  1  0.37546203  0.87408142  -0.00891854  1
  V  V44  1  0.48743558  0.63022220  0.12635320  1
  V  V45  1  0.49751775  0.49291603  0.49367778  1
  V  V46  1  0.37450333  0.49758749  0.37393413  1
  V  V47  1  0.87363354  0.37561837  0.49962183  1
  V  V48  1  0.73344322  0.00016222  0.74420771  1
  V  V49  1  0.74898976  0.24401078  0.49448980  1
  V  V50  1  0.25560896  0.25725675  0.01229006  1
  V  V51  1  0.75324638  0.12383528  0.87210632  1
  V  V52  1  0.00038154  -0.00610039  -0.00664275  1
  V  V53  1  0.48884814  0.74897454  0.24453464  1
  V  V54  1  -0.00083150  0.37027735  0.37262024  1
  V  V55  1  0.49016243  0.37918465  0.87241902  1
  V  V56  1  0.12477292  0.75422945  0.87757910  1
  V  V57  1  0.12541679  0.88321163  0.75660917  1
  V  V58  1  0.49577153  0.50349283  -0.00422832  1
  V  V59  1  0.89565677  0.74488639  0.13558774  1
  V  V60  1  0.24642427  0.12144323  0.37178881  1
  V  V61  1  0.74024680  0.87399781  0.62939967  1
  V  V62  1  0.62480743  0.49816832  0.62219711  1
  V  V63  1  0.37018225  0.00200054  0.36585654  1
  V  V64  1  0.75249976  0.61669020  0.35883506  1
  V  V65  1  0.00881701  0.47152188  -0.00778819  1
  V  V66  1  0.11445273  0.37241378  0.75418799  1
  V  V67  1  0.61351831  0.25254510  0.36915348  1
  V  V68  1  0.88614571  0.24341301  0.62747371  1
  V  V69  1  0.12536908  0.64117206  0.50325270  1
  V  V70  1  -0.00117734  0.00322343  0.51045532  1
  V  V71  1  0.75084637  0.77001452  0.00290625  1
  V  V72  1  0.63288446  0.13002843  0.00186808  1
  V  V73  1  0.62340287  0.37483584  0.74938751  1
  V  V74  1  0.49863532  0.87280766  0.37272357  1
  V  V75  1  0.50241682  -0.00236214  0.50217667  1
  V  V76  1  0.49358222  0.13279861  0.12783552  1
  V  V77  1  0.50221509  0.63285948  0.62870979  1
  V  V78  1  0.25160651  0.50279235  0.25038729  1
  Zn  Zn79  1  0.74993669  0.37273312  0.62564311  1
  Zn  Zn80  1  0.25208297  0.12179747  0.87477838  1
  Zn  Zn81  1  0.12155801  0.50593770  0.63207774  1
  Zn  Zn82  1  0.00765699  0.11595277  0.13344621  1
  Zn  Zn83  1  0.77291932  0.63776742  0.86436820  1
  Zn  Zn84  1  0.24953963  0.87400736  0.62692265  1
  Zn  Zn85  1  0.74941210  0.00086781  0.25292793  1
  Zn  Zn86  1  0.47703518  0.26487673  0.24526381  1
  Zn  Zn87  1  0.12551895  0.11771256  0.00827822  1
  Zn  Zn88  1  0.75020886  0.37329737  0.12640455  1
  Zn  Zn89  1  0.37295385  0.36880558  0.49401371  1
  Zn  Zn90  1  0.49772339  0.24744088  0.74944607  1
  Zn  Zn91  1  0.87859375  0.88287308  0.00171739  1
  Zn  Zn92  1  0.87394953  0.50384365  0.36803400  1
  Zn  Zn93  1  0.35913377  0.12715470  0.23359845  1
  Zn  Zn94  1  0.19019610  0.19072370  0.18714422  1
  Zn  Zn95  1  0.18742582  0.18898868  0.68966459  1
  Zn  Zn96  1  0.17594701  0.69049954  0.19848297  1
  Zn  Zn97  1  0.18528934  0.68779699  0.68776530  1
  Zn  Zn98  1  0.69718271  0.18438623  0.19023795  1
  Zn  Zn99  1  0.68946085  0.18814679  0.68275121  1
  Zn  Zn100  1  0.68979651  0.68993099  0.18090155  1
  Zn  Zn101  1  0.68738965  0.69173485  0.69229945  1
  Zn  Zn102  1  0.30677563  0.31161063  0.31290396  1
  Zn  Zn103  1  0.30844901  0.30227381  0.80791868  1
  Zn  Zn104  1  0.30697577  0.81635216  0.30728771  1
  Zn  Zn105  1  0.31037623  0.81145328  0.81114629  1
  Zn  Zn106  1  0.80267944  0.31650996  0.31550827  1
  Zn  Zn107  1  0.81066089  0.31035070  0.80695448  1
  Zn  Zn108  1  0.81767248  0.80954020  0.31019562  1
  Zn  Zn109  1  0.80969363  0.81980967  0.82076716  1
  Zn  Zn110  1  0.18771660  0.44175125  0.43485607  1
  Zn  Zn111  1  0.19204336  0.43626236  0.93683696  1
  Zn  Zn112  1  0.18450439  0.94111677  0.43595103  1
  Zn  Zn113  1  0.18586384  0.94299569  0.94284971  1
  Zn  Zn114  1  0.68768936  0.43614382  0.43311871  1
  Zn  Zn115  1  0.68390304  0.44280705  0.93790321  1
  Zn  Zn116  1  0.68791509  0.93141450  0.44049473  1
  Zn  Zn117  1  0.68661851  0.94283597  0.92964690  1
  Zn  Zn118  1  0.30714836  0.05665405  0.02996001  1
  Zn  Zn119  1  0.31236552  0.06174593  0.55875773  1
  Zn  Zn120  1  0.30831748  0.55794414  0.06355473  1
  Zn  Zn121  1  0.30858422  0.56078630  0.56110299  1
  Zn  Zn122  1  0.81953228  0.06510776  0.06654561  1
  Zn  Zn123  1  0.80996288  0.05970777  0.56515790  1
  Zn  Zn124  1  0.84872775  0.58525295  0.01946246  1
  Zn  Zn125  1  0.81024898  0.56047135  0.56173256  1
  Zn  Zn126  1  0.44375863  0.44629635  0.19155655  1
  Zn  Zn127  1  0.43611695  0.44036754  0.68398589  1
  Zn  Zn128  1  0.44403558  0.94152061  0.18228848  1
  Zn  Zn129  1  0.43723978  0.93401977  0.68630380  1
  Zn  Zn130  1  0.94455878  0.43507499  0.17735666  1
  Zn  Zn131  1  0.93529059  0.43578707  0.68697402  1
  Zn  Zn132  1  0.93995294  0.93047368  0.18088093  1
  Zn  Zn133  1  0.93978974  0.93243070  0.69805717  1
  Zn  Zn134  1  0.05732453  0.05396293  0.31597659  1
  Zn  Zn135  1  0.06405465  0.06608610  0.82120627  1
  Zn  Zn136  1  0.06247208  0.55876924  0.32149261  1
  Zn  Zn137  1  0.06567412  0.56081674  0.81817236  1
  Zn  Zn138  1  0.55921059  0.06260640  0.31139553  1
  Zn  Zn139  1  0.55811090  0.06133947  0.81169825  1
  Zn  Zn140  1  0.55974166  0.56428408  0.30918797  1
  Zn  Zn141  1  0.56376962  0.56560639  0.80944975  1
  Zn  Zn142  1  0.43505928  0.18617184  0.43384128  1
  Zn  Zn143  1  0.44152900  0.19182259  0.93789341  1
  Zn  Zn144  1  0.43848225  0.68340786  0.43480923  1
  Zn  Zn145  1  0.43719591  0.69239379  0.93936817  1
  Zn  Zn146  1  0.94075340  0.18557289  0.43826193  1
  Zn  Zn147  1  0.94159769  0.17951173  0.93608918  1
  Zn  Zn148  1  0.93208365  0.68649625  0.44225638  1
  Zn  Zn149  1  0.93400048  0.70383551  0.93474656  1
  Zn  Zn150  1  0.07111928  0.28319575  0.07628568  1
  Zn  Zn151  1  0.06376817  0.31519592  0.56544562  1
  Zn  Zn152  1  0.06352446  0.81770077  0.06612215  1
  Zn  Zn153  1  0.05640781  0.81743403  0.57125439  1
  Zn  Zn154  1  0.56354586  0.31580932  0.06361442  1
  Zn  Zn155  1  0.55957337  0.30799871  0.56082726  1
  Zn  Zn156  1  0.56240989  0.81239832  0.05879778  1
  Zn  Zn157  1  0.55851518  0.80926943  0.56160503  1
  O  O158  1  0.10879234  0.17086221  0.11285576  1
  O  O159  1  0.12848366  0.11852485  0.61886327  1
  O  O160  1  0.13028515  0.61601143  0.11896328  1
  O  O161  1  0.13148150  0.62140183  0.60882809  1
  O  O162  1  0.62252974  0.12187124  0.11723722  1
  O  O163  1  0.61193309  0.13243573  0.61136088  1
  O  O164  1  0.61793160  0.61607438  0.11608778  1
  O  O165  1  0.61964278  0.61582936  0.61529927  1
  O  O166  1  0.36415722  0.39078630  0.37878402  1
  O  O167  1  0.38987333  0.37022876  0.86784617  1
  O  O168  1  0.37821225  0.88139879  0.37840663  1
  O  O169  1  0.37063864  0.87451852  0.88871733  1
  O  O170  1  0.88007448  0.37672748  0.38235146  1
  O  O171  1  0.87256448  0.36347225  0.88708347  1
  O  O172  1  0.87916721  0.87954059  0.38755853  1
  O  O173  1  0.87511607  0.88158741  0.88520906  1
  O  O174  1  0.26007999  0.00676704  0.37981427  1
  O  O175  1  0.26430367  0.01997221  0.92371376  1
  O  O176  1  0.25484668  0.50840580  0.36915211  1
  O  O177  1  0.24565095  0.51353643  0.86682720  1
  O  O178  1  0.76628041  -0.00691283  0.38220597  1
  O  O179  1  0.74553309  0.01312435  0.85821588  1
  O  O180  1  0.75148757  0.51074150  0.37232296  1
  O  O181  1  0.74315194  0.50157664  0.85960984  1
  O  O182  1  0.23999210  0.50197366  0.13748283  1
  O  O183  1  0.24690576  0.49238344  0.63551279  1
  O  O184  1  0.25384469  1.00182635  0.12199684  1
  O  O185  1  0.23571049  0.99723690  0.62014887  1
  O  O186  1  0.73538096  0.50412837  0.12275105  1
  O  O187  1  0.73677500  0.49746404  0.63003159  1
  O  O188  1  0.73662128  1.00746338  0.12699899  1
  O  O189  1  0.74986758  0.98885108  0.63446656  1
  O  O190  1  0.01383236  0.38587318  0.26321706  1
  O  O191  1  0.01560614  0.38061063  0.74776572  1
  O  O192  1  0.01194730  0.87747745  0.26480713  1
  O  O193  1  0.01799382  0.86300483  0.74995402  1
  O  O194  1  0.51698399  0.37205137  0.24015642  1
  O  O195  1  0.51048673  0.38096516  0.75496598  1
  O  O196  1  0.50859018  0.86918553  0.25378272  1
  O  O197  1  0.49336362  0.88112373  0.76680600  1
  O  O198  1  0.50110508  0.12669247  0.23321287  1
  O  O199  1  0.49398456  0.12314375  0.73729345  1
  O  O200  1  0.50289770  0.63216546  0.23393257  1
  O  O201  1  0.48593066  0.61173055  0.73919447  1
  O  O202  1  0.98144567  0.11404617  0.25141218  1
  O  O203  1  0.98622992  0.12364913  0.75362242  1
  O  O204  1  0.96734309  0.58482095  0.25355511  1
  O  O205  1  1.00811539  0.63857432  0.75466653  1
  O  O206  1  0.37036285  0.26589443  -0.00319332  1
  O  O207  1  0.38002292  0.25091383  0.51201026  1
  O  O208  1  0.36390227  0.75965803  0.00071060  1
  O  O209  1  0.38153015  0.76003199  0.50304635  1
  O  O210  1  0.87907476  0.25989741  0.00778803  1
  O  O211  1  0.86893060  0.25209774  0.50536591  1
  O  O212  1  0.86291226  0.76151924  0.00687776  1
  O  O213  1  0.88248329  0.75978903  0.52091755  1
  O  O214  1  0.11692964  0.23942884  0.49590721  1
  O  O215  1  0.14556567  0.27571997  0.98595999  1
  O  O216  1  0.11442907  0.73937155  0.50644663  1
  O  O217  1  0.13454838  0.74523866  0.99634501  1
  O  O218  1  0.62801538  0.24395582  0.48951309  1
  O  O219  1  0.62213341  0.24289930  0.99050604  1
  O  O220  1  0.61426671  0.73831770  0.48584944  1
  O  O221  1  0.63336815  0.73887728  1.00325382  1
  O  O222  1  0.50550341  0.23681827  0.12396783  1
  O  O223  1  0.49198741  0.23925466  0.62515358  1
  O  O224  1  0.50496323  0.73742913  0.12790086  1
  O  O225  1  0.48666822  0.73748274  0.61680020  1
  O  O226  1  0.97611185  0.25843485  0.13790591  1
  O  O227  1  0.98483660  0.25022523  0.61990260  1
  O  O228  1  0.99820370  0.74742122  0.12576794  1
  O  O229  1  0.98920881  0.75029765  0.64022940  1
  O  O230  1  0.00919423  0.26097383  0.38077622  1
  O  O231  1  0.02209017  0.24962474  0.88646475  1
  O  O232  1  -0.01127927  0.76369404  0.38091705  1
  O  O233  1  0.01536368  0.74956813  0.86749362  1
  O  O234  1  0.51078541  0.24904277  0.37170360  1
  O  O235  1  0.51243779  0.25998716  0.87082484  1
  O  O236  1  0.50825753  0.75046018  0.36435747  1
  O  O237  1  0.49821947  0.76425919  0.87826751  1
  O  O238  1  0.23416785  0.11900871  0.48986215  1
  O  O239  1  0.24689570  0.15199955  1.00715781  1
  O  O240  1  0.23596544  0.62170052  0.49060603  1
  O  O241  1  0.24678055  0.62985722  0.99435943  1
  O  O242  1  0.73694138  0.12968179  0.50710447  1
  O  O243  1  0.74120675  0.11847401  0.98772373  1
  O  O244  1  0.73355219  0.61905241  0.49451661  1
  O  O245  1  0.73314711  0.62065335  0.99793370  1
  O  O246  1  0.27152936  0.37736466  -0.00398670  1
  O  O247  1  0.24836621  0.38418136  0.51571825  1
  O  O248  1  0.25470757  0.86859339  0.01672422  1
  O  O249  1  0.26264131  0.87989801  0.49916973  1
  O  O250  1  0.76342939  0.38456341  0.00049277  1
  O  O251  1  0.76009277  0.36815336  0.49889357  1
  O  O252  1  0.74191994  0.87128546  0.00045134  1
  O  O253  1  0.76039106  0.87990052  0.51730932  1
  O  O254  1  0.12946949  0.49497279  0.24546845  1
  O  O255  1  0.13440314  0.48980066  0.75080632  1
  O  O256  1  0.13080260  0.97665350  0.27444372  1
  O  O257  1  0.11848103  0.99017054  0.74710210  1
  O  O258  1  0.61725276  0.49571117  0.23541379  1
  O  O259  1  0.62942705  0.49447227  0.74003231  1
  O  O260  1  0.62534206  0.99285346  0.24484924  1
  O  O261  1  0.63451001  1.00557846  0.74347498  1
  O  O262  1  0.38449763  0.00716754  0.26217060  1
  O  O263  1  0.37542843  0.01428527  0.74159079  1
  O  O264  1  0.36291522  0.49619115  0.25730357  1
  O  O265  1  0.36415339  0.51176038  0.74431809  1
  O  O266  1  0.87442628  -0.01086453  0.26794619  1
  O  O267  1  0.86982280  0.01591782  0.74179060  1
  O  O268  1  0.91209550  0.52518358  0.25236360  1
  O  O269  1  0.85506198  0.49140156  0.74221939  1
  O  O270  1  0.11746746  0.36864666  0.37547869  1
  O  O271  1  0.13458941  0.36946411  0.86066471  1
  O  O272  1  0.10785103  0.86983518  0.39026020  1
  O  O273  1  0.13574947  0.86800120  0.86606873  1
  O  O274  1  0.62535516  0.36195652  0.36892966  1
  O  O275  1  0.61832811  0.36971948  0.86951286  1
  O  O276  1  0.61872867  0.86632116  0.36998451  1
  O  O277  1  0.61838509  0.87183611  0.87109167  1
  O  O278  1  0.39232351  0.11745373  0.11641952  1
  O  O279  1  0.38094408  0.12955660  0.62784461  1
  O  O280  1  0.38882273  0.62254271  0.11806878  1
  O  O281  1  0.38072754  0.62966201  0.62747772  1
  O  O282  1  0.87590772  0.14104729  0.13778377  1
  O  O283  1  0.87205790  0.13449241  0.63196104  1
  O  O284  1  0.87411339  0.64569231  0.11035202  1
  O  O285  1  0.86591459  0.64134670  0.62238345  1
  O  O286  1  0.24863365  0.26463972  0.11200456  1
  O  O287  1  0.25821898  0.26039507  0.62998841  1
  O  O288  1  0.24612831  0.74369113  0.11859979  1
  O  O289  1  0.26157253  0.74760808  0.62135405  1
  O  O290  1  0.76796526  0.25408117  0.13306840  1
  O  O291  1  0.75467209  0.25300845  0.61040958  1
  O  O292  1  0.74848424  0.74971769  0.10589425  1
  O  O293  1  0.76592906  0.76495646  0.64421827  1
  O  O294  1  0.23416286  0.24193514  0.38004368  1
  O  O295  1  0.24557417  0.24628818  0.88336597  1
  O  O296  1  0.25623631  0.73538977  0.37110576  1
  O  O297  1  0.24091045  0.74158399  0.88191397  1
  O  O298  1  0.73985915  0.25004010  0.38872919  1
  O  O299  1  0.73615135  0.23957350  0.86502580  1
  O  O300  1  0.73628436  0.74036185  0.37001279  1
  O  O301  1  0.75244889  0.74819871  0.89270220  1
  O  O302  1  0.00055854  0.11656044  0.00827278  1
  O  O303  1  0.01029008  0.11248200  0.49523125  1
  O  O304  1  0.01736521  0.62461555  -0.00481265  1
  O  O305  1  0.00945208  0.61211931  0.49284341  1
  O  O306  1  0.51123781  0.12001578  0.00464917  1
  O  O307  1  0.50522068  0.11658464  0.50365806  1
  O  O308  1  0.50631982  0.62242550  0.00709606  1
  O  O309  1  0.50847283  0.61478210  0.50678843  1
  O  O310  1  0.49917740  0.38917313  0.50337208  1
  O  O311  1  0.49126017  0.38139722  0.99385017  1
  O  O312  1  0.49385877  0.88112602  0.49339042  1
  O  O313  1  0.49575050  0.87873602  0.99058178  1
  O  O314  1  0.99085145  0.38052002  0.49539388  1
  O  O315  1  1.00513433  0.37119547  1.00065150  1
  O  O316  1  0.98960544  0.88176253  0.49773057  1
  O  O317  1  1.00449084  0.88738606  0.99972597  1
  O  O318  1  0.48807235  0.51096219  0.38167999  1
  O  O319  1  0.50800810  0.49258772  0.88693856  1
  O  O320  1  0.49136742  0.99503456  0.38237507  1
  O  O321  1  0.51067348  0.98950206  0.88692113  1
  O  O322  1  0.99626267  0.48750457  0.39102558  1
  O  O323  1  1.01697019  0.49203484  0.89389601  1
  O  O324  1  0.98759472  0.98625609  0.38964517  1
  O  O325  1  0.99896675  1.00765472  0.89102946  1
  O  O326  1  -0.00179377  0.00190163  0.11689417  1
  O  O327  1  0.00975130  -0.00758228  0.61708366  1
  O  O328  1  0.01828683  0.49355573  0.10900932  1
  O  O329  1  -0.00093207  0.49581360  0.61178888  1
  O  O330  1  0.51516636  0.01140317  0.11674301  1
  O  O331  1  0.49404712  0.00710981  0.61091722  1
  O  O332  1  0.50502666  0.51354734  0.11561078  1
  O  O333  1  0.50797719  0.50857166  0.61637251  1
  O  O334  1  0.23179830  0.38889759  0.26289144  1
  O  O335  1  0.24868223  0.38353456  0.74279809  1
  O  O336  1  0.24818591  0.88101721  0.23370642  1
  O  O337  1  0.23200667  0.86635802  0.74562693  1
  O  O338  1  0.73291559  0.37692701  0.24860665  1
  O  O339  1  0.73645355  0.38351513  0.74841841  1
  O  O340  1  0.73430317  0.87606639  0.25795481  1
  O  O341  1  0.75367984  0.89088088  0.74265615  1
  O  O342  1  0.24301645  0.12629952  0.26535543  1
  O  O343  1  0.26398448  0.12700127  0.75157391  1
  O  O344  1  0.23646509  0.61483773  0.26655990  1
  O  O345  1  0.25448396  0.61856185  0.75636760  1
  O  O346  1  0.77147750  0.11677788  0.25144070  1
  O  O347  1  0.75243536  0.11527224  0.75040716  1
  O  O348  1  0.74430955  0.62503314  0.25999123  1
  O  O349  1  0.74668988  0.61288344  0.75166078  1
  O  O350  1  0.36191330  0.11588868  0.38126862  1
  O  O351  1  0.38440930  0.13151250  0.85654195  1
  O  O352  1  0.35782977  0.61374677  0.38436797  1
  O  O353  1  0.36483448  0.63408667  0.86602766  1
  O  O354  1  0.88094493  0.10941917  0.37040525  1
  O  O355  1  0.86331873  0.14095674  0.85689340  1
  O  O356  1  0.85432783  0.62668731  0.38436441  1
  O  O357  1  0.87299340  0.61399886  0.90952901  1
  O  O358  1  0.12065545  0.37727695  0.14281946  1
  O  O359  1  0.13344573  0.37243872  0.63890456  1
  O  O360  1  0.13893518  0.88064782  0.13320648  1
  O  O361  1  0.12711853  0.88308169  0.63551112  1
  O  O362  1  0.62809372  0.38921561  0.12578927  1
  O  O363  1  0.62193899  0.38217984  0.63081718  1
  O  O364  1  0.61597410  0.88519710  0.13375436  1
  O  O365  1  0.64156855  0.86391775  0.61939691  1
  O  O366  1  0.12861254  0.26593246  0.26212496  1
  O  O367  1  0.13033289  0.26232281  0.76119204  1
  O  O368  1  0.13529266  0.77709943  0.25901919  1
  O  O369  1  0.11786647  0.75500646  0.75707712  1
  O  O370  1  0.62925406  0.25183190  0.26324958  1
  O  O371  1  0.62293222  0.26025814  0.75390849  1
  O  O372  1  0.61678830  0.75657573  0.25394418  1
  O  O373  1  0.59200602  0.72750866  0.73168816  1
  O  O374  1  0.36987893  0.23897586  0.25810117  1
  O  O375  1  0.37926592  0.24021343  0.73533067  1
  O  O376  1  0.39014709  0.75757211  0.25158261  1
  O  O377  1  0.36890089  0.73738757  0.73801765  1
  O  O378  1  0.87440761  0.24063666  0.26308778  1
  O  O379  1  0.86787316  0.24348880  0.73231589  1
  O  O380  1  0.87430621  0.74849701  0.23648853  1
  O  O381  1  0.88930642  0.75496262  0.74822566  1
  O  O382  1  0.38252320  0.49886630  0.49443684  1
  O  O383  1  0.38515540  0.48906032  1.00401456  1
  O  O384  1  0.38376414  0.99102137  0.49167528  1
  O  O385  1  0.39704128  0.98829505  1.00920985  1
  O  O386  1  0.88300277  0.49090595  0.50203721  1
  O  O387  1  0.89816793  0.47774132  1.00626365  1
  O  O388  1  0.88038564  0.99420972  0.49781077  1
  O  O389  1  0.88769625  1.00016307  1.00723643  1
  O  O390  1  0.11078918  0.00338546  0.00473954  1
  O  O391  1  0.11697548  0.00641403  0.50899829  1
  O  O392  1  0.12534769  0.50346851  0.00784081  1
  O  O393  1  0.11043319  0.49758111  0.50407992  1
  O  O394  1  0.62129694  0.00944036  0.00612984  1
  O  O395  1  0.61336160  0.00688600  0.48957349  1
  O  O396  1  0.61512465  0.50710741  0.01009696  1
  O  O397  1  0.61836535  0.50335493  0.50351211  1
  O  O398  1  0.38313392  0.37564861  0.11756703  1
  O  O399  1  0.36832498  0.36713104  0.62410095  1
  O  O400  1  0.36381982  0.88377851  0.11868912  1
  O  O401  1  0.37420584  0.86533669  0.61560712  1
  O  O402  1  0.87062285  0.36802695  0.12098286  1
  O  O403  1  0.87288984  0.36218654  0.61553600  1
  O  O404  1  0.87857456  0.85735091  0.11982189  1
  O  O405  1  0.87030979  0.87027563  0.62295858  1
  O  O406  1  0.12614468  0.13035421  0.38244081  1
  O  O407  1  0.13156440  0.14168441  0.87823042  1
  O  O408  1  0.13337504  0.62111858  0.38883986  1
  O  O409  1  0.13606060  0.63385233  0.88412132  1
  O  O410  1  0.61930942  0.13622718  0.38347539  1
  O  O411  1  0.62913244  0.13255831  0.88076685  1
  O  O412  1  0.63214335  0.62812200  0.37710258  1
  O  O413  1  0.62018621  0.62211850  0.88972989  1
