# generated using pymatgen
data_V79Zn79O256
_symmetry_space_group_name_H-M   'P 1'
_cell_length_a   16.94567495
_cell_length_b   16.89966056
_cell_length_c   16.89439184
_cell_angle_alpha   90.00823638
_cell_angle_beta   89.93165064
_cell_angle_gamma   89.89226606
_symmetry_Int_Tables_number   1
_chemical_formula_structural   V79Zn79O256
_chemical_formula_sum   'V79 Zn79 O256'
_cell_volume   4838.13892521
_cell_formula_units_Z   1
loop_
 _symmetry_equiv_pos_site_id
 _symmetry_equiv_pos_as_xyz
  1  'x, y, z'
loop_
 _atom_site_type_symbol
 _atom_site_label
 _atom_site_symmetry_multiplicity
 _atom_site_fract_x
 _atom_site_fract_y
 _atom_site_fract_z
 _atom_site_occupancy
  V  V0  1  0.12510643  0.51353906  0.12795408  1
  V  V1  1  0.24745748  -0.00137810  0.74407751  1
  V  V2  1  0.88472676  -0.00108434  0.87290393  1
  V  V3  1  0.25916626  0.12045764  0.87085583  1
  V  V4  1  0.49882438  0.62903363  0.12827586  1
  V  V5  1  0.49638183  0.37302538  0.37565047  1
  V  V6  1  0.62275040  0.12391954  0.00459208  1
  V  V7  1  0.49816324  0.49735889  0.49908701  1
  V  V8  1  0.49734360  0.24628972  0.25250747  1
  V  V9  1  0.12091620  0.50042928  0.61792263  1
  V  V10  1  -0.00089272  0.74432500  0.24483855  1
  V  V11  1  0.37839715  0.87245470  -0.01073073  1
  V  V12  1  0.24242340  0.50264800  0.75727487  1
  V  V13  1  0.25690665  0.24674396  0.50475337  1
  V  V14  1  0.75057794  0.86931566  0.12050429  1
  V  V15  1  0.75738571  0.50289169  0.75227492  1
  V  V16  1  0.36749295  0.74998418  0.61907266  1
  V  V17  1  0.88071025  0.87248662  -0.00175943  1
  V  V18  1  0.27045204  0.00574132  0.25019228  1
  V  V19  1  0.48727282  0.49084040  -0.00724386  1
  V  V20  1  0.12846582  0.11416909  0.00580128  1
  V  V21  1  0.50090786  -0.00254112  -0.00753098  1
  V  V22  1  0.24642214  0.37440596  0.62726451  1
  V  V23  1  0.63167150  0.37391308  0.25648489  1
  V  V24  1  0.12382744  0.88623548  0.24547200  1
  V  V25  1  0.62485525  0.85978603  0.25428611  1
  V  V26  1  0.12534432  0.12077547  0.50441132  1
  V  V27  1  0.37449983  0.61847425  0.75903228  1
  V  V28  1  0.25607538  0.26144528  0.00218359  1
  V  V29  1  0.26198524  0.12167605  0.37278322  1
  V  V30  1  -0.00894527  0.74919991  0.75824183  1
  V  V31  1  0.63054663  0.50026651  0.12899382  1
  V  V32  1  0.74616622  -0.00767498  0.75077229  1
  V  V33  1  0.13448743  0.74910138  0.37552603  1
  V  V34  1  0.11549271  0.25164463  0.37485354  1
  V  V35  1  0.87411277  0.61506619  0.24844315  1
  V  V36  1  0.61528034  0.25312186  0.87573866  1
  V  V37  1  0.87748050  0.49659255  0.39156629  1
  V  V38  1  0.37402307  0.75116139  0.12422138  1
  V  V39  1  0.48886543  0.12289595  0.12535177  1
  V  V40  1  0.37516396  0.62910085  0.25670563  1
  V  V41  1  0.87505863  0.74421009  0.12116759  1
  V  V42  1  0.24973801  0.87779968  0.12373614  1
  V  V43  1  0.75083683  0.12320411  0.86901390  1
  V  V44  1  0.37582127  0.37588286  0.50443107  1
  V  V45  1  0.49853185  0.76751115  0.75026352  1
  V  V46  1  0.62522236  0.00149647  0.62822507  1
  V  V47  1  0.00405180  0.00136571  0.50578232  1
  V  V48  1  0.74867535  -0.00305269  0.24901613  1
  V  V49  1  0.11511231  0.37251708  0.24774487  1
  V  V50  1  0.61614227  0.37644433  0.75169987  1
  V  V51  1  0.74710184  0.24116801  0.49066353  1
  V  V52  1  0.11535802  0.25841754  0.86978290  1
  V  V53  1  0.50451586  0.01050299  0.48875647  1
  V  V54  1  0.48917114  0.12705775  0.63132005  1
  V  V55  1  0.12382752  0.63677609  -0.00727554  1
  V  V56  1  0.12902152  0.62528457  0.49648173  1
  V  V57  1  0.23816679  0.87779665  0.61602499  1
  V  V58  1  0.37351287  0.87769968  0.49404000  1
  V  V59  1  0.50366813  0.85893631  0.37125927  1
  V  V60  1  -0.00181668  0.87359630  0.37284638  1
  V  V61  1  0.75317806  0.62725932  0.87234218  1
  V  V62  1  0.26117605  0.48788196  0.25381840  1
  V  V63  1  0.37300252  0.26695816  0.12495076  1
  V  V64  1  0.48140738  0.24900144  0.75084742  1
  V  V65  1  -0.00559115  0.12656949  0.63826212  1
  V  V66  1  0.61861620  0.75887872  0.87226832  1
  V  V67  1  0.75366832  0.37017034  0.61903057  1
  V  V68  1  0.87132133  0.86951586  0.50968149  1
  V  V69  1  0.88030918  0.13466881  0.24665540  1
  V  V70  1  0.75361044  0.25467313  0.00799936  1
  V  V71  1  0.73669433  0.12546845  0.37712914  1
  V  V72  1  0.62363418  0.62638475  -0.00389228  1
  V  V73  1  -0.01208241  0.63265078  0.62291105  1
  V  V74  1  0.62113661  0.63303984  0.50153040  1
  V  V75  1  0.12243670  0.86711973  0.77196956  1
  V  V76  1  0.87397654  0.00153500  0.37574637  1
  V  V77  1  0.00299071  0.12505213  0.12786647  1
  V  V78  1  0.74196339  0.62564968  0.36869976  1
  Zn  Zn79  1  0.24853702  0.65329594  0.89001312  1
  Zn  Zn80  1  0.75594207  0.74669715  0.50585365  1
  Zn  Zn81  1  -0.00313797  0.48715132  -0.00687559  1
  Zn  Zn82  1  0.25815150  0.62615937  0.38083661  1
  Zn  Zn83  1  0.91358466  0.30124902  0.07926763  1
  Zn  Zn84  1  0.38568979  0.00260084  0.86397020  1
  Zn  Zn85  1  0.75573738  0.38541708  0.12121351  1
  Zn  Zn86  1  0.03752537  0.42172821  0.42983458  1
  Zn  Zn87  1  0.88454829  0.25643842  0.62780658  1
  Zn  Zn88  1  0.00828392  -0.00688492  0.00456035  1
  Zn  Zn89  1  0.74032732  0.86403719  0.63454757  1
  Zn  Zn90  1  0.62288264  -0.00395490  0.12510707  1
  Zn  Zn91  1  0.62096376  0.49791496  0.62565177  1
  Zn  Zn92  1  0.49684907  0.62308903  0.62681906  1
  Zn  Zn93  1  0.89121859  0.48808161  0.87257867  1
  Zn  Zn94  1  0.18975040  0.18862483  0.18804789  1
  Zn  Zn95  1  0.18202586  0.18718076  0.68942856  1
  Zn  Zn96  1  0.19216740  0.69185142  0.18938077  1
  Zn  Zn97  1  0.18498804  0.68823150  0.68737185  1
  Zn  Zn98  1  0.68509153  0.18706014  0.19251151  1
  Zn  Zn99  1  0.67938274  0.18642493  0.68378376  1
  Zn  Zn100  1  0.69072844  0.68468653  0.18399423  1
  Zn  Zn101  1  0.68431680  0.68974240  0.68648970  1
  Zn  Zn102  1  0.31558592  0.30499161  0.31798352  1
  Zn  Zn103  1  0.29949637  0.31624139  0.81452454  1
  Zn  Zn104  1  0.31692096  0.81575924  0.30880983  1
  Zn  Zn105  1  0.31136433  0.81285136  0.80335684  1
  Zn  Zn106  1  0.84545384  0.34160665  0.27531355  1
  Zn  Zn107  1  0.78922317  0.31032104  0.81395684  1
  Zn  Zn108  1  0.81046708  0.80602309  0.31510136  1
  Zn  Zn109  1  0.81229097  0.81012451  0.81469930  1
  Zn  Zn110  1  0.20106637  0.44123652  0.43450232  1
  Zn  Zn111  1  0.18478509  0.44131415  0.94028838  1
  Zn  Zn112  1  0.18869851  0.93868998  0.43119370  1
  Zn  Zn113  1  0.19524946  0.93123179  0.93610400  1
  Zn  Zn114  1  0.68789576  0.44162451  0.43460286  1
  Zn  Zn115  1  0.68137905  0.44017827  0.93866273  1
  Zn  Zn116  1  0.68340232  0.93811916  0.43979860  1
  Zn  Zn117  1  0.69128370  0.93730501  0.93853338  1
  Zn  Zn118  1  0.31413665  0.05920188  0.05986324  1
  Zn  Zn119  1  0.31503752  0.05763595  0.56116715  1
  Zn  Zn120  1  0.30514197  0.55921092  0.06758033  1
  Zn  Zn121  1  0.31184832  0.56203226  0.56423947  1
  Zn  Zn122  1  0.81484124  0.06209472  0.06170664  1
  Zn  Zn123  1  0.81477038  0.06377527  0.56671387  1
  Zn  Zn124  1  0.81711668  0.56268801  0.05264512  1
  Zn  Zn125  1  0.80274418  0.56454813  0.56559958  1
  Zn  Zn126  1  0.44406299  0.44249065  0.18676936  1
  Zn  Zn127  1  0.43227093  0.43539138  0.68767961  1
  Zn  Zn128  1  0.44178204  0.93513188  0.18579659  1
  Zn  Zn129  1  0.43074116  0.94211602  0.67875670  1
  Zn  Zn130  1  0.95055333  0.43470927  0.16462339  1
  Zn  Zn131  1  0.93869063  0.44110935  0.57637981  1
  Zn  Zn132  1  0.93732568  0.93964770  0.18389876  1
  Zn  Zn133  1  0.94135243  0.93717090  0.69285039  1
  Zn  Zn134  1  0.06446981  0.06760364  0.31774442  1
  Zn  Zn135  1  0.07465385  0.06050420  0.81773311  1
  Zn  Zn136  1  0.06263075  0.56073997  0.30907600  1
  Zn  Zn137  1  0.05979270  0.56645360  0.81189776  1
  Zn  Zn138  1  0.56069435  0.05937782  0.30554909  1
  Zn  Zn139  1  0.56508810  0.06573121  0.81052316  1
  Zn  Zn140  1  0.55857246  0.55770766  0.31419548  1
  Zn  Zn141  1  0.55863770  0.56305507  0.81451747  1
  Zn  Zn142  1  0.44115203  0.18959605  0.43960157  1
  Zn  Zn143  1  0.43318733  0.31989396  0.93461410  1
  Zn  Zn144  1  0.44092374  0.69051029  0.43887836  1
  Zn  Zn145  1  0.43975196  0.68682663  0.93782840  1
  Zn  Zn146  1  0.93061209  0.19590236  0.44581812  1
  Zn  Zn147  1  0.93922523  0.18070771  0.93565961  1
  Zn  Zn148  1  0.94060637  0.68196302  0.43582138  1
  Zn  Zn149  1  0.94528078  0.67852138  0.94330354  1
  Zn  Zn150  1  0.07770261  0.31217428  0.06306150  1
  Zn  Zn151  1  0.06968078  0.30372582  0.56961149  1
  Zn  Zn152  1  0.06271741  0.81175373  0.06344415  1
  Zn  Zn153  1  0.05748352  0.80558784  0.55822251  1
  Zn  Zn154  1  0.56572005  0.31352877  0.06947942  1
  Zn  Zn155  1  0.56680799  0.30763567  0.56540983  1
  Zn  Zn156  1  0.56256604  0.81181233  0.06309966  1
  Zn  Zn157  1  0.55849724  0.81713564  0.56490207  1
  O  O158  1  0.12298543  0.12733847  0.11362614  1
  O  O159  1  0.11778413  0.12667178  0.60972639  1
  O  O160  1  0.13524139  0.61838298  0.12151153  1
  O  O161  1  0.12500265  0.61941199  0.61300733  1
  O  O162  1  0.61919712  0.12302657  0.11730989  1
  O  O163  1  0.61193554  0.11188330  0.62844062  1
  O  O164  1  0.61867138  0.62267817  0.11876700  1
  O  O165  1  0.61879413  0.62079130  0.61118722  1
  O  O166  1  0.38536053  0.36840534  0.38963341  1
  O  O167  1  0.36650453  0.38070631  0.87263861  1
  O  O168  1  0.39075636  0.86924541  0.37990148  1
  O  O169  1  0.37408990  0.87625921  0.88823282  1
  O  O170  1  0.86779511  0.39849197  0.36958246  1
  O  O171  1  0.89120845  0.36170959  0.85146685  1
  O  O172  1  0.88204988  0.88297857  0.37775202  1
  O  O173  1  0.86529319  0.88585305  0.88766561  1
  O  O174  1  0.24842481  0.00658947  0.35953947  1
  O  O175  1  0.25077064  0.00918210  0.86840338  1
  O  O176  1  0.25165563  0.50939003  0.35904935  1
  O  O177  1  0.24006405  0.49914124  0.85686958  1
  O  O178  1  0.75603530  0.00438279  0.36960672  1
  O  O179  1  0.75204224  0.00627354  0.86854485  1
  O  O180  1  0.76264279  0.51580955  0.38205517  1
  O  O181  1  0.74261309  0.50889054  0.86494609  1
  O  O182  1  0.24017340  0.50109701  0.14557367  1
  O  O183  1  0.24134809  0.49291861  0.62652442  1
  O  O184  1  0.25747565  0.99225769  0.13966745  1
  O  O185  1  0.25249187  0.99056017  0.63119789  1
  O  O186  1  0.73451302  0.50433623  0.11672333  1
  O  O187  1  0.74368623  0.49257283  0.63745520  1
  O  O188  1  0.75265627  0.98987442  0.13549165  1
  O  O189  1  0.74401907  1.00275026  0.63529212  1
  O  O190  1  0.01637272  0.37722558  0.25323454  1
  O  O191  1  -0.06714212  0.33232540  0.78530792  1
  O  O192  1  0.00421413  0.87042740  0.25564889  1
  O  O193  1  0.01629904  0.86637197  0.74451031  1
  O  O194  1  0.50205680  0.36850728  0.25852607  1
  O  O195  1  0.50461272  0.35860610  0.73785560  1
  O  O196  1  0.50926477  0.88238951  0.26364015  1
  O  O197  1  0.49086910  0.86591877  0.74809374  1
  O  O198  1  0.50855486  0.13501444  0.23786391  1
  O  O199  1  0.49899568  0.13574280  0.74301950  1
  O  O200  1  0.48710193  0.61385363  0.23993149  1
  O  O201  1  0.48351573  0.62530070  0.74814629  1
  O  O202  1  0.98701653  0.11735121  0.24731969  1
  O  O203  1  1.01260379  0.10945338  0.73465560  1
  O  O204  1  0.99047976  0.63882862  0.25790266  1
  O  O205  1  1.00706145  0.63841787  0.73466261  1
  O  O206  1  0.36706455  0.25341713  0.01088189  1
  O  O207  1  0.36391866  0.25611080  0.50049444  1
  O  O208  1  0.38341091  0.76392492  0.00790659  1
  O  O209  1  0.38475151  0.76206132  0.50902216  1
  O  O210  1  0.85774157  0.24175401  -0.00284107  1
  O  O211  1  0.85530276  0.24838742  0.51222887  1
  O  O212  1  0.88366698  0.75529418  0.01145271  1
  O  O213  1  0.88111221  0.76751150  0.49378507  1
  O  O214  1  0.13703007  0.24037226  0.49285361  1
  O  O215  1  0.14253066  0.23870462  0.99982254  1
  O  O216  1  0.12113841  0.74266021  0.48404438  1
  O  O217  1  0.12251750  0.73651852  1.00553603  1
  O  O218  1  0.64758047  0.24766450  0.51244682  1
  O  O219  1  0.62715546  0.24245776  0.99438474  1
  O  O220  1  0.61399471  0.73425603  0.50014013  1
  O  O221  1  0.61134356  0.73895171  0.98474744  1
  O  O222  1  0.48810106  0.24525007  0.12826853  1
  O  O223  1  0.50353336  0.23607462  0.63494243  1
  O  O224  1  0.49223469  0.73808433  0.12215701  1
  O  O225  1  0.49164197  0.75010795  0.63671346  1
  O  O226  1  1.00031659  0.23050945  0.11822384  1
  O  O227  1  1.00246897  0.23184722  0.62866031  1
  O  O228  1  0.98910075  0.75633379  0.13717750  1
  O  O229  1  1.00144224  0.73869144  0.63041850  1
  O  O230  1  0.01595248  0.24247809  0.38207717  1
  O  O231  1  0.01648546  0.24319737  0.88553530  1
  O  O232  1  0.00438647  0.76060243  0.36616402  1
  O  O233  1  -0.00302432  0.73793591  0.85784682  1
  O  O234  1  0.49668526  0.25675537  0.36463752  1
  O  O235  1  0.50519288  0.25007545  0.86200205  1
  O  O236  1  0.50644422  0.76048713  0.37314551  1
  O  O237  1  0.50589695  0.74836243  0.86177224  1
  O  O238  1  0.24551728  0.12638513  0.49574125  1
  O  O239  1  0.24337632  0.12355793  0.99227679  1
  O  O240  1  0.23694401  0.62075474  0.49644489  1
  O  O241  1  0.23365250  0.61330981  0.99902439  1
  O  O242  1  0.75395690  0.12973871  0.49150812  1
  O  O243  1  0.73958607  0.12955396  0.99466820  1
  O  O244  1  0.73280183  0.62384770  0.49465276  1
  O  O245  1  0.73455324  0.62050569  0.98367356  1
  O  O246  1  0.24705943  0.35920229  0.00110892  1
  O  O247  1  0.25784821  0.36746384  0.50446640  1
  O  O248  1  0.26857960  0.88638933  0.01280371  1
  O  O249  1  0.26397032  0.88665087  0.50064042  1
  O  O250  1  0.74278131  0.35921896  -0.00041954  1
  O  O251  1  0.74217897  0.37061381  0.51477365  1
  O  O252  1  0.75972302  0.87914459  0.01372174  1
  O  O253  1  0.76506750  0.87724970  0.49684099  1
  O  O254  1  0.13772098  0.49049272  0.25036353  1
  O  O255  1  0.13901293  0.51321982  0.73519567  1
  O  O256  1  0.12304890  0.98769456  0.25422256  1
  O  O257  1  0.13534259  0.98103426  0.75639103  1
  O  O258  1  0.61613652  0.48618303  0.24174029  1
  O  O259  1  0.61982992  0.48814627  0.75021741  1
  O  O260  1  0.63788580  0.99087754  0.24824942  1
  O  O261  1  0.63545011  1.00286732  0.74504715  1
  O  O262  1  0.36869746  -0.00111279  0.25264177  1
  O  O263  1  0.35533986  -0.01422959  0.75341170  1
  O  O264  1  0.36725902  0.51099095  0.24278017  1
  O  O265  1  0.36367955  0.51335433  0.74272249  1
  O  O266  1  0.86517044  0.00142529  0.25900847  1
  O  O267  1  0.86821055  -0.00653297  0.76679788  1
  O  O268  1  0.88155233  0.51481104  0.24972745  1
  O  O269  1  0.85524717  0.50115601  0.75671578  1
  O  O270  1  0.12696463  0.37083879  0.37138389  1
  O  O271  1  0.12871334  0.35719125  0.88756621  1
  O  O272  1  0.11633789  0.86906702  0.36750706  1
  O  O273  1  0.12195497  0.87117518  0.87156020  1
  O  O274  1  0.61454418  0.37943502  0.36398480  1
  O  O275  1  0.62830381  0.36374631  0.86615810  1
  O  O276  1  0.61332705  0.87909849  0.36936045  1
  O  O277  1  0.63076810  0.85703017  0.88180086  1
  O  O278  1  0.38653318  0.12964088  0.11886089  1
  O  O279  1  0.38963387  0.11959832  0.62582613  1
  O  O280  1  0.38038513  0.63360167  0.12989186  1
  O  O281  1  0.37484331  0.63545716  0.62984068  1
  O  O282  1  0.87780295  0.12386004  0.14036852  1
  O  O283  1  0.89044131  0.12496040  0.62889984  1
  O  O284  1  0.86201148  0.63601460  0.13256139  1
  O  O285  1  0.88934153  0.62077202  0.61679281  1
  O  O286  1  0.26509576  0.24252193  0.11546899  1
  O  O287  1  0.23856169  0.25896683  0.61486233  1
  O  O288  1  0.26275070  0.76433377  0.13098654  1
  O  O289  1  0.26131225  0.76026004  0.62919223  1
  O  O290  1  0.74223123  0.24747086  0.10984519  1
  O  O291  1  0.75425963  0.26228772  0.63377239  1
  O  O292  1  0.76072780  0.76037651  0.13064802  1
  O  O293  1  0.74462022  0.75289920  0.61849354  1
  O  O294  1  0.24346229  0.24170855  0.38552862  1
  O  O295  1  0.24633652  0.23736472  0.88684556  1
  O  O296  1  0.23794101  0.74971073  0.36331193  1
  O  O297  1  0.24874796  0.76295449  0.87680468  1
  O  O298  1  0.75252380  0.24055799  0.38770204  1
  O  O299  1  0.73763260  0.24067157  0.88635999  1
  O  O300  1  0.75636348  0.73103120  0.38567514  1
  O  O301  1  0.73107559  0.73576084  0.85814187  1
  O  O302  1  0.01608404  0.12000670  0.00558891  1
  O  O303  1  0.00606851  0.11776650  0.50314212  1
  O  O304  1  0.01907121  0.61310961  0.00157366  1
  O  O305  1  0.01260891  0.63089560  0.51186608  1
  O  O306  1  0.51198715  0.11485156  0.01020957  1
  O  O307  1  0.49594679  0.11626694  0.51028824  1
  O  O308  1  0.50501874  0.61706159  0.00885634  1
  O  O309  1  0.50771236  0.61495206  0.49489895  1
  O  O310  1  0.49589174  0.37476399  0.49734771  1
  O  O311  1  0.50342818  0.38399380  1.00244556  1
  O  O312  1  0.49724425  0.88359742  0.48579580  1
  O  O313  1  0.48896612  0.88467905  1.00831400  1
  O  O314  1  0.99406052  0.36532278  0.51400171  1
  O  O315  1  0.99077107  0.38405927  1.05207664  1
  O  O316  1  0.99232449  0.88161803  0.49117402  1
  O  O317  1  0.98684823  0.87808250  1.00808341  1
  O  O318  1  0.50020280  0.48596205  0.38621253  1
  O  O319  1  0.49872299  0.50537663  0.89376168  1
  O  O320  1  0.50132944  1.00545878  0.38715964  1
  O  O321  1  0.50111212  1.00719766  0.88683277  1
  O  O322  1  0.98457398  0.50772480  0.37696428  1
  O  O323  1  1.00439641  0.49490457  0.87554902  1
  O  O324  1  0.99244785  0.99209541  0.38030058  1
  O  O325  1  0.98645994  1.00453066  0.87716643  1
  O  O326  1  -0.00540283  0.01544699  0.12156581  1
  O  O327  1  -0.00369484  0.00653802  0.61143281  1
  O  O328  1  0.02534068  0.51554344  0.14723209  1
  O  O329  1  0.01320485  0.51509310  0.62853375  1
  O  O330  1  0.50212579  0.00697055  0.11780417  1
  O  O331  1  0.50531639  0.01023417  0.62297866  1
  O  O332  1  0.51101331  0.50929993  0.11725815  1
  O  O333  1  0.49928689  0.49955904  0.61293915  1
  O  O334  1  0.25435306  0.38565253  0.26015636  1
  O  O335  1  0.25425554  0.39111969  0.73724092  1
  O  O336  1  0.24559959  0.88825767  0.24630902  1
  O  O337  1  0.23539104  0.87755150  0.73781233  1
  O  O338  1  0.73078152  0.36703899  0.25705389  1
  O  O339  1  0.73705747  0.38727912  0.74561205  1
  O  O340  1  0.74534663  0.87941138  0.24733667  1
  O  O341  1  0.75281019  0.88764325  0.75047309  1
  O  O342  1  0.24695496  0.11187420  0.25482303  1
  O  O343  1  0.23848502  0.11442148  0.76171974  1
  O  O344  1  0.26613967  0.62113662  0.25054070  1
  O  O345  1  0.26019756  0.61792339  0.74726357  1
  O  O346  1  0.75902229  0.11712212  0.25536203  1
  O  O347  1  0.74499655  0.12086553  0.76398029  1
  O  O348  1  0.75548114  0.62816675  0.26289648  1
  O  O349  1  0.73465348  0.61065511  0.75825186  1
  O  O350  1  0.36093794  0.13073238  0.37965362  1
  O  O351  1  0.35740581  0.12306530  0.87549051  1
  O  O352  1  0.37937174  0.63364217  0.36046218  1
  O  O353  1  0.36912993  0.63172487  0.86166381  1
  O  O354  1  0.87079618  0.11369131  0.36771006  1
  O  O355  1  0.86336506  0.10826214  0.88497994  1
  O  O356  1  0.86694427  0.61686302  0.37007937  1
  O  O357  1  0.85257731  0.63340434  0.87910328  1
  O  O358  1  0.13259872  0.37985865  0.14547181  1
  O  O359  1  0.13617482  0.38681666  0.61875411  1
  O  O360  1  0.13783225  0.86899668  0.13348196  1
  O  O361  1  0.13816394  0.87038852  0.60861696  1
  O  O362  1  0.62882918  0.38350259  0.13616785  1
  O  O363  1  0.63392339  0.37414187  0.63674024  1
  O  O364  1  0.63355139  0.87368323  0.13247157  1
  O  O365  1  0.62447300  0.89322582  0.61900208  1
  O  O366  1  0.13773126  0.26418964  0.26033437  1
  O  O367  1  0.13151062  0.24917546  0.76949862  1
  O  O368  1  0.11664458  0.75862218  0.25484852  1
  O  O369  1  0.12017006  0.76315084  0.74669923  1
  O  O370  1  0.61000935  0.26476945  0.23953948  1
  O  O371  1  0.62089830  0.25661601  0.75996702  1
  O  O372  1  0.63000315  0.76041470  0.24852130  1
  O  O373  1  0.60615183  0.74603801  0.75696809  1
  O  O374  1  0.38342802  0.25226802  0.23714385  1
  O  O375  1  0.38378066  0.25337035  0.75213233  1
  O  O376  1  0.37534579  0.73852220  0.23976917  1
  O  O377  1  0.38407037  0.74270002  0.74152865  1
  O  O378  1  0.87380499  0.23143008  0.26292673  1
  O  O379  1  0.88821577  0.26931633  0.75525190  1
  O  O380  1  0.88122958  0.74368931  0.24373528  1
  O  O381  1  0.89184864  0.76456655  0.74650478  1
  O  O382  1  0.38364607  0.48878381  0.50366476  1
  O  O383  1  0.38982905  0.50301058  1.01367080  1
  O  O384  1  0.39363070  0.98807777  0.50679263  1
  O  O385  1  0.38476223  0.98982251  0.99721448  1
  O  O386  1  0.87421394  0.50189611  0.49593178  1
  O  O387  1  0.87762278  0.49685524  0.98759726  1
  O  O388  1  0.88232896  0.99312432  0.49092812  1
  O  O389  1  0.87479411  0.99163179  0.99058627  1
  O  O390  1  0.12914174  0.01029533  -0.00421003  1
  O  O391  1  0.11420856  0.00898768  0.48704410  1
  O  O392  1  0.12461566  0.49533241  0.02280565  1
  O  O393  1  0.12426715  0.50558647  0.50198248  1
  O  O394  1  0.62014931  0.00579667  0.00140055  1
  O  O395  1  0.60958947  -0.00037274  0.50653901  1
  O  O396  1  0.61448672  0.50843959  0.00747124  1
  O  O397  1  0.61407774  0.50615946  0.50110612  1
  O  O398  1  0.37813821  0.36552647  0.12692569  1
  O  O399  1  0.36187329  0.37577254  0.61466227  1
  O  O400  1  0.37096619  0.86732340  0.12333008  1
  O  O401  1  0.36699127  0.86819135  0.61386350  1
  O  O402  1  0.86073614  0.36593607  0.16092934  1
  O  O403  1  0.85622519  0.38004913  0.63044863  1
  O  O404  1  0.86814079  0.86699153  0.12078746  1
  O  O405  1  0.87588689  0.88347653  0.61033088  1
  O  O406  1  0.13572140  0.13204765  0.38255249  1
  O  O407  1  0.13278884  0.13221542  0.89017279  1
  O  O408  1  0.12353299  0.63392820  0.37853227  1
  O  O409  1  0.13012724  0.62312606  0.88794444  1
  O  O410  1  0.63838297  0.12042495  0.36665727  1
  O  O411  1  0.62996730  0.13354882  0.88432476  1
  O  O412  1  0.63497515  0.61724001  0.38086691  1
  O  O413  1  0.62581669  0.63231514  0.88093185  1
