# generated using pymatgen
data_V79Zn79O256
_symmetry_space_group_name_H-M   'P 1'
_cell_length_a   16.86798609
_cell_length_b   16.88647556
_cell_length_c   16.87704185
_cell_angle_alpha   89.67142428
_cell_angle_beta   89.98563257
_cell_angle_gamma   89.96147038
_symmetry_Int_Tables_number   1
_chemical_formula_structural   V79Zn79O256
_chemical_formula_sum   'V79 Zn79 O256'
_cell_volume   4807.19041154
_cell_formula_units_Z   1
loop_
 _symmetry_equiv_pos_site_id
 _symmetry_equiv_pos_as_xyz
  1  'x, y, z'
loop_
 _atom_site_type_symbol
 _atom_site_label
 _atom_site_symmetry_multiplicity
 _atom_site_fract_x
 _atom_site_fract_y
 _atom_site_fract_z
 _atom_site_occupancy
  V  V0  1  0.25731170  0.88398985  0.62946745  1
  V  V1  1  0.24493287  0.63089532  0.87362438  1
  V  V2  1  0.12694786  0.25118995  0.87840834  1
  V  V3  1  0.60229152  0.62078047  0.50499599  1
  V  V4  1  0.75330406  0.51345564  0.74856342  1
  V  V5  1  0.50033700  0.36878797  0.37984159  1
  V  V6  1  0.38146303  0.00302716  0.87955322  1
  V  V7  1  0.50830308  0.00146975  0.01722463  1
  V  V8  1  0.24878771  0.00008122  0.23969296  1
  V  V9  1  0.12837713  0.37414485  0.74386392  1
  V  V10  1  0.12209022  0.62793328  -0.00079154  1
  V  V11  1  0.63976703  0.74819482  0.87172284  1
  V  V12  1  0.36923433  0.49013316  0.86926495  1
  V  V13  1  0.75486429  0.13987187  0.38006836  1
  V  V14  1  0.37865675  0.62193849  0.74590090  1
  V  V15  1  0.26151322  0.00390411  0.75731539  1
  V  V16  1  0.12807678  0.11670959  0.00190817  1
  V  V17  1  0.62576624  0.37230367  0.25583588  1
  V  V18  1  0.73335023  0.88571311  0.12856210  1
  V  V19  1  0.01132582  0.50252151  0.50317418  1
  V  V20  1  0.74572905  0.87687225  0.63167457  1
  V  V21  1  0.74642384  0.12121276  0.85934411  1
  V  V22  1  0.25207908  0.25395938  0.01461625  1
  V  V23  1  0.62837158  0.15249208  0.49927252  1
  V  V24  1  0.37567513  0.87648538  0.50087886  1
  V  V25  1  0.50170376  0.74988887  0.75060109  1
  V  V26  1  0.87031443  0.51444105  0.87133136  1
  V  V27  1  0.37904431  0.50601806  0.38263391  1
  V  V28  1  0.18913568  0.55467142  0.69270068  1
  V  V29  1  0.50276346  0.74857339  0.24309837  1
  V  V30  1  0.62513815  0.50126186  0.12303721  1
  V  V31  1  0.75035466  0.37260984  0.62916390  1
  V  V32  1  0.50656626  0.00476920  0.50308414  1
  V  V33  1  0.24857663  0.50055990  0.25956732  1
  V  V34  1  0.75502449  0.73594829  0.49603332  1
  V  V35  1  0.87792824  0.24634006  0.13176134  1
  V  V36  1  0.12259662  0.87748712  0.24017389  1
  V  V37  1  0.00098576  0.12551393  0.13175523  1
  V  V38  1  0.00257952  0.74294698  0.75396323  1
  V  V39  1  -0.01392992  0.37285739  0.36684166  1
  V  V40  1  0.50671742  0.87399201  0.36905388  1
  V  V41  1  0.38296131  0.13003446  0.23513160  1
  V  V42  1  0.75617815  0.50995383  0.25784809  1
  V  V43  1  0.37835008  0.00222120  0.37187036  1
  V  V44  1  0.50639607  0.87332322  0.87740803  1
  V  V45  1  0.87157990  0.24004389  0.62186881  1
  V  V46  1  -0.00770675  0.24148724  0.75008277  1
  V  V47  1  -0.00724957  0.49237022  0.00116984  1
  V  V48  1  -0.01250116  0.37121899  0.87657121  1
  V  V49  1  0.12534582  0.88207476  0.75316060  1
  V  V50  1  0.24950322  0.13642912  0.37575800  1
  V  V51  1  -0.00200323  0.87602397  0.87576683  1
  V  V52  1  -0.01044521  0.62454898  0.12642520  1
  V  V53  1  0.75626661  0.37301141  0.11933234  1
  V  V54  1  0.37470168  0.62721365  0.23942276  1
  V  V55  1  0.48962056  0.25742753  0.76040292  1
  V  V56  1  -0.00388313  0.74050484  0.25725945  1
  V  V57  1  0.12775481  0.36646408  0.24889855  1
  V  V58  1  0.75568942  0.24466808  -0.00069969  1
  V  V59  1  0.61212769  0.50328060  0.63160834  1
  V  V60  1  0.00208706  0.88398416  0.37234078  1
  V  V61  1  0.48223064  0.13758974  0.62870354  1
  V  V62  1  -0.00712609  -0.00386929  0.00677813  1
  V  V63  1  0.13044802  0.49528785  0.12555868  1
  V  V64  1  0.36980703  0.37283481  0.02089599  1
  V  V65  1  0.24263753  0.74584524  0.48828609  1
  V  V66  1  0.86982552  0.88026363  0.48731766  1
  V  V67  1  0.37408602  0.35969805  0.50418713  1
  V  V68  1  0.62811796  0.74196324  0.37377031  1
  V  V69  1  0.25309583  0.35987921  0.62681914  1
  V  V70  1  0.62989177  0.11819069  0.01999245  1
  V  V71  1  0.88440474  0.74331269  0.62646428  1
  V  V72  1  0.50028652  0.25161584  0.22630053  1
  V  V73  1  0.64082322  0.62755037  -0.00676393  1
  V  V74  1  0.87253637  0.76483319  0.10822825  1
  V  V75  1  0.87247912  0.00442408  0.85874795  1
  V  V76  1  0.49911642  0.49762779  -0.00789879  1
  V  V77  1  0.37889970  0.74750985  0.62507065  1
  V  V78  1  0.25515483  0.74488863  0.01720892  1
  Zn  Zn79  1  0.25126501  0.87468527  0.12405312  1
  Zn  Zn80  1  0.26394312  0.13160536  0.87680301  1
  Zn  Zn81  1  0.00367946  0.61282355  0.62599379  1
  Zn  Zn82  1  0.38764165  0.86090325  0.01338728  1
  Zn  Zn83  1  0.00908364  0.01769391  0.49660032  1
  Zn  Zn84  1  0.13804737  0.16083597  0.51789062  1
  Zn  Zn85  1  0.62283321  0.27363593  0.86117335  1
  Zn  Zn86  1  0.75354139  -0.00507300  0.26352497  1
  Zn  Zn87  1  0.86562157  0.38165767  0.49478769  1
  Zn  Zn88  1  0.02479825  0.10493569  0.63247537  1
  Zn  Zn89  1  0.10902806  0.24423511  0.37359794  1
  Zn  Zn90  1  0.50064708  0.63446315  0.11613026  1
  Zn  Zn91  1  0.88342702  0.12174869  0.27040586  1
  Zn  Zn92  1  0.87260324  0.53548526  0.37750391  1
  Zn  Zn93  1  0.63904232  0.00877461  0.64150804  1
  Zn  Zn94  1  0.18663472  0.18094034  0.18969416  1
  Zn  Zn95  1  0.19271202  0.18584060  0.69609103  1
  Zn  Zn96  1  0.16851065  0.67206240  0.21758517  1
  Zn  Zn97  1  0.14711112  0.73488494  0.63340071  1
  Zn  Zn98  1  0.69002299  0.18817254  0.19375291  1
  Zn  Zn99  1  0.67483280  0.19124628  0.68307142  1
  Zn  Zn100  1  0.69067803  0.69340678  0.18346536  1
  Zn  Zn101  1  0.68930449  0.68912542  0.68355779  1
  Zn  Zn102  1  0.31922561  0.31688421  0.30485953  1
  Zn  Zn103  1  0.31165901  0.30929124  0.80993021  1
  Zn  Zn104  1  0.31456294  0.81222129  0.30704447  1
  Zn  Zn105  1  0.31868043  0.81483856  0.81918937  1
  Zn  Zn106  1  0.80832941  0.30873817  0.30887136  1
  Zn  Zn107  1  0.80554858  0.31271049  0.80568402  1
  Zn  Zn108  1  0.81412242  0.79776069  0.30576971  1
  Zn  Zn109  1  0.81947156  0.81611969  0.81225630  1
  Zn  Zn110  1  0.16887832  0.38932374  0.45707833  1
  Zn  Zn111  1  0.18714288  0.43756804  0.93712943  1
  Zn  Zn112  1  0.18991196  0.94011742  0.42346227  1
  Zn  Zn113  1  0.18645090  0.93002324  0.93644363  1
  Zn  Zn114  1  0.68485073  0.44096314  0.44248026  1
  Zn  Zn115  1  0.69207773  0.43695907  0.93377062  1
  Zn  Zn116  1  0.67179811  0.95664747  0.40686636  1
  Zn  Zn117  1  0.69401871  0.93405939  0.94091400  1
  Zn  Zn118  1  0.31828361  0.06279868  0.05685550  1
  Zn  Zn119  1  0.30815964  0.06588937  0.56129405  1
  Zn  Zn120  1  0.31155011  0.56041314  0.06224577  1
  Zn  Zn121  1  0.31061927  0.56338531  0.55590279  1
  Zn  Zn122  1  0.81432217  0.05484535  0.06721619  1
  Zn  Zn123  1  0.80945759  0.05937080  0.55267778  1
  Zn  Zn124  1  0.81416431  0.56021589  0.06355065  1
  Zn  Zn125  1  0.81861483  0.55836233  0.56191662  1
  Zn  Zn126  1  0.44113916  0.44175971  0.18911165  1
  Zn  Zn127  1  0.43482074  0.43074112  0.69040981  1
  Zn  Zn128  1  0.43359362  0.93171782  0.18591200  1
  Zn  Zn129  1  0.47602112  0.96151167  0.71064941  1
  Zn  Zn130  1  0.93473397  0.43714341  0.18908072  1
  Zn  Zn131  1  0.93628903  0.43258194  0.68919503  1
  Zn  Zn132  1  0.92208248  0.93635903  0.19529197  1
  Zn  Zn133  1  0.93407534  0.93408224  0.67959378  1
  Zn  Zn134  1  0.06658832  0.05839094  0.31397684  1
  Zn  Zn135  1  0.06777072  0.06081437  0.81607913  1
  Zn  Zn136  1  0.06783952  0.55666214  0.32626014  1
  Zn  Zn137  1  0.05646115  0.56220678  0.81898530  1
  Zn  Zn138  1  0.57358971  0.07319969  0.30729643  1
  Zn  Zn139  1  0.56623447  0.07166185  0.81229115  1
  Zn  Zn140  1  0.56176157  0.56087310  0.31287295  1
  Zn  Zn141  1  0.56198850  0.56226063  0.81345712  1
  Zn  Zn142  1  0.44043475  0.18771934  0.43222303  1
  Zn  Zn143  1  0.44310843  0.18996763  0.94778207  1
  Zn  Zn144  1  0.43289319  0.68918484  0.43290725  1
  Zn  Zn145  1  0.43702438  0.68168437  0.93308687  1
  Zn  Zn146  1  0.94013532  0.19249668  0.45000521  1
  Zn  Zn147  1  0.93523859  0.18093788  0.93847071  1
  Zn  Zn148  1  0.94484187  0.68519975  0.44082407  1
  Zn  Zn149  1  0.93661265  0.68738668  0.93761367  1
  Zn  Zn150  1  0.06269073  0.31018467  0.06402628  1
  Zn  Zn151  1  0.05194814  0.31244985  0.55949379  1
  Zn  Zn152  1  0.06501976  0.81204724  0.06538894  1
  Zn  Zn153  1  0.08626250  0.87232546  0.54035781  1
  Zn  Zn154  1  0.57701056  0.32457921  0.03436685  1
  Zn  Zn155  1  0.55722414  0.32318383  0.57391173  1
  Zn  Zn156  1  0.57719939  0.81466289  0.06086361  1
  Zn  Zn157  1  0.56435166  0.81124840  0.55890521  1
  O  O158  1  0.11220906  0.13008533  0.11415161  1
  O  O159  1  0.13730371  0.12438710  0.62398931  1
  O  O160  1  0.11201867  0.61249532  0.11877102  1
  O  O161  1  0.12937468  0.61889997  0.63942496  1
  O  O162  1  0.63266425  0.11849487  0.11920564  1
  O  O163  1  0.61560625  0.12250464  0.61013016  1
  O  O164  1  0.62647941  0.61890039  0.11058378  1
  O  O165  1  0.62575182  0.61725745  0.61568803  1
  O  O166  1  0.37845727  0.38242467  0.38586273  1
  O  O167  1  0.36769280  0.38959732  0.87616858  1
  O  O168  1  0.38326209  0.88233927  0.38082385  1
  O  O169  1  0.38889006  0.87815747  0.89046455  1
  O  O170  1  0.88159767  0.37754121  0.36686326  1
  O  O171  1  0.88515544  0.37561418  0.87099446  1
  O  O172  1  0.88282843  0.86436473  0.38082337  1
  O  O173  1  0.88625015  0.88950605  0.87269322  1
  O  O174  1  0.26293584  0.00662778  0.36200389  1
  O  O175  1  0.26526965  -0.00666020  0.87502278  1
  O  O176  1  0.26715391  0.49482753  0.36349408  1
  O  O177  1  0.26264519  0.51080105  0.88270993  1
  O  O178  1  0.75740528  0.02704836  0.39017822  1
  O  O179  1  0.76305346  0.00583098  0.87737795  1
  O  O180  1  0.74914308  0.49523857  0.36070988  1
  O  O181  1  0.76185678  0.49523351  0.86527205  1
  O  O182  1  0.23611238  0.50422586  0.13244862  1
  O  O183  1  0.24643952  0.49744730  0.63034732  1
  O  O184  1  0.25587286  1.00330774  0.13657386  1
  O  O185  1  0.26896359  0.99025442  0.63982040  1
  O  O186  1  0.74406443  0.49156197  0.12822794  1
  O  O187  1  0.75103346  0.49630680  0.63827429  1
  O  O188  1  0.74798061  0.99124250  0.13350638  1
  O  O189  1  0.75087574  0.98270106  0.61643025  1
  O  O190  1  0.00893766  0.38354480  0.25948918  1
  O  O191  1  0.00843824  0.36628001  0.75854679  1
  O  O192  1  0.00215694  0.87338044  0.25688391  1
  O  O193  1  0.00670937  0.87391084  0.75599983  1
  O  O194  1  0.50520232  0.36619601  0.25235027  1
  O  O195  1  0.49586864  0.35874227  0.75255547  1
  O  O196  1  0.49263848  0.86458834  0.26283666  1
  O  O197  1  0.49324174  0.85807539  0.76473102  1
  O  O198  1  0.49977931  0.14339357  0.25306552  1
  O  O199  1  0.49268811  0.12634989  0.73172380  1
  O  O200  1  0.49310124  0.62980544  0.24532918  1
  O  O201  1  0.48787714  0.63566997  0.75775947  1
  O  O202  1  1.00575226  0.11977380  0.23439872  1
  O  O203  1  1.00916811  0.13775111  0.75009138  1
  O  O204  1  1.00387824  0.63461008  0.23932346  1
  O  O205  1  1.00415984  0.63887519  0.75012019  1
  O  O206  1  0.36948735  0.26537989  -0.00049073  1
  O  O207  1  0.37280448  0.26151227  0.49502929  1
  O  O208  1  0.35972409  0.74018281  -0.00012740  1
  O  O209  1  0.37000274  0.75805383  0.50439947  1
  O  O210  1  0.86263503  0.23974788  0.00958709  1
  O  O211  1  0.87685807  0.26267355  0.51992096  1
  O  O212  1  0.87594277  0.74845640  0.00825908  1
  O  O213  1  0.87345403  0.75370913  0.51014015  1
  O  O214  1  0.13137617  0.27415124  0.48547295  1
  O  O215  1  0.13132729  0.24569875  0.99441612  1
  O  O216  1  0.14267807  0.76561580  0.51783586  1
  O  O217  1  0.13022141  0.73320322  1.00414716  1
  O  O218  1  0.62075244  0.25119173  0.50727584  1
  O  O219  1  0.63916226  0.22831019  1.00489464  1
  O  O220  1  0.63025410  0.73387752  0.49730618  1
  O  O221  1  0.62329962  0.73497296  0.98868032  1
  O  O222  1  0.50632738  0.25864942  0.12844702  1
  O  O223  1  0.50033912  0.24309349  0.63534291  1
  O  O224  1  0.51051264  0.75235502  0.13840620  1
  O  O225  1  0.48890612  0.75727868  0.63440985  1
  O  O226  1  0.99144699  0.23586023  0.11549819  1
  O  O227  1  0.98533471  0.25350768  0.63511446  1
  O  O228  1  0.99178268  0.74054580  0.12214129  1
  O  O229  1  0.99290146  0.74847084  0.63367975  1
  O  O230  1  -0.00669939  0.26799581  0.37376284  1
  O  O231  1  0.00468706  0.25398476  0.87309433  1
  O  O232  1  -0.00042438  0.75545498  0.35910448  1
  O  O233  1  -0.01142500  0.75939459  0.86129982  1
  O  O234  1  0.49697640  0.26595380  0.36717594  1
  O  O235  1  0.50561500  0.23548023  0.86518455  1
  O  O236  1  0.50528886  0.75519152  0.36806316  1
  O  O237  1  0.50507361  0.75521158  0.87133450  1
  O  O238  1  0.24789340  0.11927541  0.47918514  1
  O  O239  1  0.24456038  0.13291042  0.99823278  1
  O  O240  1  0.25303871  0.64657449  0.50304085  1
  O  O241  1  0.24265186  0.62964580  0.99482410  1
  O  O242  1  0.73430616  0.13281817  0.50040740  1
  O  O243  1  0.74358363  0.12450410  0.99927871  1
  O  O244  1  0.74827219  0.63413631  0.50499903  1
  O  O245  1  0.73970603  0.61915270  0.99720195  1
  O  O246  1  0.26037187  0.37005304  -0.00112352  1
  O  O247  1  0.26620556  0.38273290  0.51236191  1
  O  O248  1  0.24159663  0.85130431  0.00100323  1
  O  O249  1  0.26349964  0.87576017  0.50672326  1
  O  O250  1  0.74895140  0.36230600  0.01240144  1
  O  O251  1  0.74877304  0.38584976  0.52096126  1
  O  O252  1  0.74452644  0.87714549  0.02480327  1
  O  O253  1  0.76412493  0.85938736  0.49917697  1
  O  O254  1  0.13167133  0.49013505  0.24193796  1
  O  O255  1  0.12480973  0.49410443  0.75030314  1
  O  O256  1  0.13846936  0.99191788  0.25395438  1
  O  O257  1  0.14110653  0.99002893  0.75960011  1
  O  O258  1  0.62931150  0.49210943  0.24011508  1
  O  O259  1  0.63718181  0.51060320  0.74141130  1
  O  O260  1  0.64042071  0.98568022  0.29431767  1
  O  O261  1  0.58751822  0.98925291  0.73883996  1
  O  O262  1  0.37452471  0.00805997  0.25666026  1
  O  O263  1  0.37454234  -0.01055123  0.76828046  1
  O  O264  1  0.36987527  0.50601094  0.25474298  1
  O  O265  1  0.38013573  0.50599549  0.76163837  1
  O  O266  1  0.86795611  0.01287283  0.25087674  1
  O  O267  1  0.87921834  0.00164214  0.76022274  1
  O  O268  1  0.85900758  0.50057847  0.24816009  1
  O  O269  1  0.86898863  0.49854515  0.76202063  1
  O  O270  1  0.11249691  0.37634835  0.35763893  1
  O  O271  1  0.11723201  0.36856898  0.86869914  1
  O  O272  1  0.10902384  0.87358211  0.36091858  1
  O  O273  1  0.11109305  0.87499759  0.86578751  1
  O  O274  1  0.61529054  0.38721632  0.36412932  1
  O  O275  1  0.61124992  0.36338119  0.92485387  1
  O  O276  1  0.61105761  0.85609006  0.39257682  1
  O  O277  1  0.61983410  0.85751953  0.88377664  1
  O  O278  1  0.37916870  0.12232339  0.13592520  1
  O  O279  1  0.38336052  0.13598709  0.61062477  1
  O  O280  1  0.38354190  0.61558339  0.13512699  1
  O  O281  1  0.36632737  0.63285969  0.63636320  1
  O  O282  1  0.89022832  0.12892045  0.12127397  1
  O  O283  1  0.86464732  0.14000797  0.61898768  1
  O  O284  1  0.88528116  0.63098241  0.11850500  1
  O  O285  1  0.87932847  0.64013117  0.62261092  1
  O  O286  1  0.24468208  0.24706315  0.11365658  1
  O  O287  1  0.25556609  0.26084379  0.63116152  1
  O  O288  1  0.24319280  0.73795604  0.11661743  1
  O  O289  1  0.26572132  0.76477811  0.62096611  1
  O  O290  1  0.75710169  0.25321308  0.12010808  1
  O  O291  1  0.75726761  0.26359203  0.63811749  1
  O  O292  1  0.76766604  0.75947357  0.13086606  1
  O  O293  1  0.76182065  0.75481886  0.61719290  1
  O  O294  1  0.25914546  0.23656117  0.36578321  1
  O  O295  1  0.23985267  0.25098334  0.88391261  1
  O  O296  1  0.25079343  0.76258732  0.38935476  1
  O  O297  1  0.25210362  0.73438606  0.87741178  1
  O  O298  1  0.74527442  0.24352618  0.37694663  1
  O  O299  1  0.75262785  0.23637075  0.88067478  1
  O  O300  1  0.73607360  0.75223881  0.38092730  1
  O  O301  1  0.73873208  0.75325604  0.86645071  1
  O  O302  1  0.00854592  0.11403504  0.00361203  1
  O  O303  1  0.02034461  0.13319971  0.50298082  1
  O  O304  1  0.00522067  0.61309436  0.00236253  1
  O  O305  1  0.00786234  0.60974413  0.50189537  1
  O  O306  1  0.51686083  0.11283906  0.00181744  1
  O  O307  1  0.50842806  0.12518677  0.50399411  1
  O  O308  1  0.50344105  0.61232136  0.00001730  1
  O  O309  1  0.50322076  0.62979306  0.50723569  1
  O  O310  1  0.48538765  0.37453032  0.49516459  1
  O  O311  1  0.47922518  0.38691788  1.00791214  1
  O  O312  1  0.49076223  0.88153388  0.49446406  1
  O  O313  1  0.50884673  0.88481323  0.99605739  1
  O  O314  1  0.99221595  0.38425242  0.48423696  1
  O  O315  1  1.00615388  0.38404923  0.99088743  1
  O  O316  1  0.98744464  0.86332215  0.48029355  1
  O  O317  1  1.01322525  0.88971846  0.99145170  1
  O  O318  1  0.48591567  0.48531664  0.36363518  1
  O  O319  1  0.48439747  0.50586960  0.88256035  1
  O  O320  1  0.49221824  0.99517861  0.38101098  1
  O  O321  1  0.49736331  0.99004048  0.88220646  1
  O  O322  1  0.99335980  0.49361613  0.38135644  1
  O  O323  1  0.98747755  0.49209368  0.87946174  1
  O  O324  1  0.99718248  0.98757954  0.37480649  1
  O  O325  1  0.99069006  0.99776496  0.88076218  1
  O  O326  1  -0.00362629  0.00948591  0.11196354  1
  O  O327  1  -0.00828340  -0.00023785  0.61165026  1
  O  O328  1  0.00076359  0.50394420  0.11697495  1
  O  O329  1  -0.00573535  0.49484167  0.61120400  1
  O  O330  1  0.50443383  -0.00640978  0.11578013  1
  O  O331  1  0.48696030  0.01703679  0.60949445  1
  O  O332  1  0.51409089  0.50003267  0.11628711  1
  O  O333  1  0.51347283  0.49918153  0.63734495  1
  O  O334  1  0.23648027  0.38276161  0.25333759  1
  O  O335  1  0.23954413  0.37425567  0.74392722  1
  O  O336  1  0.24150466  0.88173587  0.25061571  1
  O  O337  1  0.24889535  0.88067337  0.74954863  1
  O  O338  1  0.74076207  0.38056809  0.24022160  1
  O  O339  1  0.74733693  0.38888380  0.73999914  1
  O  O340  1  0.76925805  0.87561038  0.23430166  1
  O  O341  1  0.75609004  0.86891577  0.73097141  1
  O  O342  1  0.26166323  0.11918411  0.25478848  1
  O  O343  1  0.25119336  0.10885450  0.76145346  1
  O  O344  1  0.27035343  0.61634350  0.24136905  1
  O  O345  1  0.25075853  0.61338459  0.75411905  1
  O  O346  1  0.74442597  0.12682597  0.27166651  1
  O  O347  1  0.74201412  0.12594822  0.76078098  1
  O  O348  1  0.73942369  0.60757579  0.24357000  1
  O  O349  1  0.75522529  0.61315241  0.74531930  1
  O  O350  1  0.37031405  0.11842434  0.36587225  1
  O  O351  1  0.37989323  0.10792328  0.89006696  1
  O  O352  1  0.38423068  0.61078819  0.36311125  1
  O  O353  1  0.36467384  0.61789553  0.86287903  1
  O  O354  1  0.86266780  0.13965402  0.38554219  1
  O  O355  1  0.86387433  0.11372891  0.87595249  1
  O  O356  1  0.87111255  0.64656887  0.36708111  1
  O  O357  1  0.87643073  0.61313098  0.87272778  1
  O  O358  1  0.11282327  0.38328951  0.13758294  1
  O  O359  1  0.13137323  0.36828636  0.63736799  1
  O  O360  1  0.12877600  0.87997503  0.13379457  1
  O  O361  1  0.14479381  0.86963486  0.64105361  1
  O  O362  1  0.63398475  0.38433625  0.12779653  1
  O  O363  1  0.63470581  0.39514514  0.62328203  1
  O  O364  1  0.63393380  0.86997907  0.14101452  1
  O  O365  1  0.64338384  0.86811769  0.61635483  1
  O  O366  1  0.12810656  0.26303167  0.24873062  1
  O  O367  1  0.11909844  0.25726910  0.76177827  1
  O  O368  1  0.10300820  0.76510041  0.23495887  1
  O  O369  1  0.10789372  0.76202597  0.74414272  1
  O  O370  1  0.61423978  0.26342784  0.24319972  1
  O  O371  1  0.60634758  0.24366191  0.75324862  1
  O  O372  1  0.61583767  0.73616392  0.26392890  1
  O  O373  1  0.61610145  0.73641844  0.76336687  1
  O  O374  1  0.39091846  0.24716925  0.24533052  1
  O  O375  1  0.38646377  0.24337860  0.75946666  1
  O  O376  1  0.38414034  0.73382720  0.25627127  1
  O  O377  1  0.37958035  0.74155566  0.74518197  1
  O  O378  1  0.87090792  0.23839510  0.23602515  1
  O  O379  1  0.88396067  0.25366845  0.74200537  1
  O  O380  1  0.89452979  0.75500890  0.23152102  1
  O  O381  1  0.88815371  0.75941450  0.73592759  1
  O  O382  1  0.37557117  0.50186678  0.48528751  1
  O  O383  1  0.37712015  0.49171124  0.99246210  1
  O  O384  1  0.37947557  0.99521503  0.48870395  1
  O  O385  1  0.39425141  0.99646210  0.99834184  1
  O  O386  1  0.88351610  0.49929003  0.49070032  1
  O  O387  1  0.88255292  0.50108091  0.98701794  1
  O  O388  1  0.87661760  0.98126157  0.49632008  1
  O  O389  1  0.89079480  1.00277360  0.99202775  1
  O  O390  1  0.11846827  0.01117366  -0.01034816  1
  O  O391  1  0.11842346  -0.02555111  0.49998882  1
  O  O392  1  0.11604003  0.50335491  0.00725528  1
  O  O393  1  0.11057101  0.48418874  0.49457828  1
  O  O394  1  0.61805138  0.00681235  -0.00160436  1
  O  O395  1  0.60976915  -0.00147169  0.50127979  1
  O  O396  1  0.62033182  0.51065531  0.00232757  1
  O  O397  1  0.62366877  0.51400560  0.51308986  1
  O  O398  1  0.36732830  0.38290673  0.11956986  1
  O  O399  1  0.36903074  0.38077635  0.61220812  1
  O  O400  1  0.36549134  0.86935238  0.12346713  1
  O  O401  1  0.37390758  0.86767503  0.61516420  1
  O  O402  1  0.86607136  0.36343283  0.13125686  1
  O  O403  1  0.86063704  0.37081500  0.62782363  1
  O  O404  1  0.88700452  0.86554266  0.11300916  1
  O  O405  1  0.86838803  0.86376169  0.61056821  1
  O  O406  1  0.14223186  0.13050049  0.36287555  1
  O  O407  1  0.12524342  0.13786361  0.88522253  1
  O  O408  1  0.14720778  0.63044949  0.32415111  1
  O  O409  1  0.13223281  0.61271700  0.88801190  1
  O  O410  1  0.62709792  0.13368952  0.39508586  1
  O  O411  1  0.64296423  0.11763863  0.88506344  1
  O  O412  1  0.61459484  0.62839042  0.39255985  1
  O  O413  1  0.62427434  0.63203808  0.88491245  1
