# generated using pymatgen
data_V79Zn79O256
_symmetry_space_group_name_H-M   'P 1'
_cell_length_a   16.89000255
_cell_length_b   16.88384982
_cell_length_c   16.88936089
_cell_angle_alpha   89.92017238
_cell_angle_beta   89.98922448
_cell_angle_gamma   90.19057507
_symmetry_Int_Tables_number   1
_chemical_formula_structural   V79Zn79O256
_chemical_formula_sum   'V79 Zn79 O256'
_cell_volume   4816.27836220
_cell_formula_units_Z   1
loop_
 _symmetry_equiv_pos_site_id
 _symmetry_equiv_pos_as_xyz
  1  'x, y, z'
loop_
 _atom_site_type_symbol
 _atom_site_label
 _atom_site_symmetry_multiplicity
 _atom_site_fract_x
 _atom_site_fract_y
 _atom_site_fract_z
 _atom_site_occupancy
  V  V0  1  0.75466818  0.51443948  0.74943309  1
  V  V1  1  0.24382476  0.12489400  0.37773604  1
  V  V2  1  0.87460735  0.12420968  0.24939115  1
  V  V3  1  0.13135201  0.35018637  0.75882310  1
  V  V4  1  0.73859610  0.74579065  0.50501400  1
  V  V5  1  0.49825515  0.12383568  0.12214388  1
  V  V6  1  0.37198115  0.60368236  0.24404880  1
  V  V7  1  0.11883086  0.62112005  0.00165713  1
  V  V8  1  0.12311875  0.49960537  0.12404697  1
  V  V9  1  0.62507186  0.12281776  0.50223270  1
  V  V10  1  -0.01003012  -0.01156719  -0.00019021  1
  V  V11  1  0.87386648  0.51599970  0.37531963  1
  V  V12  1  0.25063833  0.87758076  0.13389615  1
  V  V13  1  0.62852312  0.37353474  0.24983940  1
  V  V14  1  0.75725864  0.12075257  0.86234498  1
  V  V15  1  0.00087994  0.12617362  0.12501933  1
  V  V16  1  0.10989022  0.49701301  0.63829106  1
  V  V17  1  0.50928884  0.62120582  0.62109996  1
  V  V18  1  0.00044219  0.38238850  0.37756677  1
  V  V19  1  0.61645837  0.50955002  0.11072867  1
  V  V20  1  0.87512323  0.37441118  0.49964341  1
  V  V21  1  0.25483103  0.61831431  0.86660655  1
  V  V22  1  0.00481181  0.35849504  0.87157971  1
  V  V23  1  0.49788088  0.38178275  0.37432232  1
  V  V24  1  0.62850607  0.25264096  0.87558401  1
  V  V25  1  0.12849247  -0.00057756  0.13099420  1
  V  V26  1  0.36675339  0.86744619  0.50343010  1
  V  V27  1  0.62403801  -0.00899555  0.12778648  1
  V  V28  1  0.12335399  0.13072138  -0.00580817  1
  V  V29  1  0.88615991  0.51182562  0.87060992  1
  V  V30  1  0.13109473  0.38057178  0.25330379  1
  V  V31  1  0.75389992  0.37889661  0.12452808  1
  V  V32  1  0.36176618  0.74395419  0.62114373  1
  V  V33  1  0.50336286  0.11939252  0.62564602  1
  V  V34  1  -0.00480410  0.62873060  0.14179891  1
  V  V35  1  0.36880482  0.12576706  0.24670330  1
  V  V36  1  0.25365004  0.38411028  0.63240427  1
  V  V37  1  0.24634977  0.24678075  0.50015217  1
  V  V38  1  0.37826928  0.38239309  0.49743792  1
  V  V39  1  0.61200257  0.88992726  0.74370676  1
  V  V40  1  0.75522423  0.51788754  0.25083309  1
  V  V41  1  -0.00271666  0.85975250  0.37155718  1
  V  V42  1  0.75199673  0.37272053  0.62503191  1
  V  V43  1  0.12221729  0.76102579  0.86795400  1
  V  V44  1  0.37677214  0.12008481  0.75765066  1
  V  V45  1  0.25458260  0.37271735  0.12764164  1
  V  V46  1  -0.00228954  0.64559259  0.63311764  1
  V  V47  1  0.37416076  0.88799449  -0.00294869  1
  V  V48  1  0.14573564  0.74971561  0.37739983  1
  V  V49  1  0.00176054  0.25174915  0.25122280  1
  V  V50  1  0.25438633  0.11427162  0.87431881  1
  V  V51  1  0.75317138  0.25116843  -0.00011377  1
  V  V52  1  0.87773255  0.86888131  0.51056471  1
  V  V53  1  0.50250935  0.25467810  0.75052237  1
  V  V54  1  0.24848340  0.74773057  0.00560654  1
  V  V55  1  0.74803797  0.12518847  0.37285793  1
  V  V56  1  0.88616469  0.38427610  -0.00156673  1
  V  V57  1  0.88246911  -0.00374819  0.37719709  1
  V  V58  1  0.37613653  0.24872495  0.62445969  1
  V  V59  1  0.26089728  0.60037499  0.37977005  1
  V  V60  1  0.73526233  0.88589523  0.62818225  1
  V  V61  1  0.87716991  0.25268559  0.12594941  1
  V  V62  1  0.62368877  0.11894520  0.00082068  1
  V  V63  1  0.50223989  -0.00139632  0.50202109  1
  V  V64  1  0.12472054  0.61814819  0.50270039  1
  V  V65  1  0.62422849  0.73739699  0.87460058  1
  V  V66  1  0.87338190  -0.00840055  0.86604012  1
  V  V67  1  0.49529268  0.24940430  0.24660808  1
  V  V68  1  0.49016347  0.88851258  0.87578734  1
  V  V69  1  0.48868719  0.74202612  0.75078401  1
  V  V70  1  0.74696740  -0.01651061  0.25010739  1
  V  V71  1  0.62856872  0.38239805  0.74493421  1
  V  V72  1  -0.00414981  0.12692679  0.62599320  1
  V  V73  1  0.25353652  0.25273071  -0.00476162  1
  V  V74  1  0.50796704  0.86987941  0.36571728  1
  V  V75  1  0.87549586  0.75905820  0.13200360  1
  V  V76  1  0.36954249  -0.00062106  0.37087754  1
  V  V77  1  0.50298632  0.38388944  0.88207583  1
  V  V78  1  0.37960231  0.37857157  0.00218214  1
  Zn  Zn79  1  0.64240350  0.74535052  0.34622775  1
  Zn  Zn80  1  -0.02867994  0.82563537  0.80997828  1
  Zn  Zn81  1  0.37384058  0.50352014  0.86723564  1
  Zn  Zn82  1  0.62591803  0.24990672  0.37538948  1
  Zn  Zn83  1  0.87875342  0.65900747  0.74977987  1
  Zn  Zn84  1  0.12273071  0.86597304  0.24629728  1
  Zn  Zn85  1  0.37454684  0.74263468  0.12600502  1
  Zn  Zn86  1  0.12226487  0.24656881  0.38044697  1
  Zn  Zn87  1  0.76843744  0.88196404  0.09358692  1
  Zn  Zn88  1  0.75687215  0.74541771  -0.01119083  1
  Zn  Zn89  1  0.51495339  0.49406522  0.51104895  1
  Zn  Zn90  1  0.50310835  0.73178891  0.24487141  1
  Zn  Zn91  1  0.63701464  0.61341664  0.48012909  1
  Zn  Zn92  1  0.75152559  0.24750559  0.50564509  1
  Zn  Zn93  1  0.19368644  -0.05442185  0.68946389  1
  Zn  Zn94  1  0.18688298  0.19224200  0.18690302  1
  Zn  Zn95  1  0.21007106  0.15001135  0.66798660  1
  Zn  Zn96  1  0.19137034  0.68283340  0.19466153  1
  Zn  Zn97  1  0.18288078  0.68650990  0.69107585  1
  Zn  Zn98  1  0.68766861  0.18567133  0.18720927  1
  Zn  Zn99  1  0.68649826  0.19140009  0.68665453  1
  Zn  Zn100  1  0.68420148  0.69737361  0.17318219  1
  Zn  Zn101  1  0.68618627  0.69970210  0.69005889  1
  Zn  Zn102  1  0.31367924  0.31202577  0.31388645  1
  Zn  Zn103  1  0.31610892  0.31137667  0.81571657  1
  Zn  Zn104  1  0.32645861  0.80625640  0.30864310  1
  Zn  Zn105  1  0.29651452  0.81082860  0.81510484  1
  Zn  Zn106  1  0.81495735  0.31543873  0.31375044  1
  Zn  Zn107  1  0.81554834  0.31062075  0.81089831  1
  Zn  Zn108  1  0.81783223  0.79652714  0.31600752  1
  Zn  Zn109  1  0.79981384  0.82011533  0.81071895  1
  Zn  Zn110  1  0.18572636  0.43527922  0.44855536  1
  Zn  Zn111  1  0.18495604  0.43691863  0.94006659  1
  Zn  Zn112  1  0.18703875  0.93659932  0.44002082  1
  Zn  Zn113  1  0.18649686  0.94126492  0.94491761  1
  Zn  Zn114  1  0.68976821  0.44173163  0.43595849  1
  Zn  Zn115  1  0.69619031  0.44718058  0.93212700  1
  Zn  Zn116  1  0.68892090  0.93520561  0.43685309  1
  Zn  Zn117  1  0.68334589  0.93346012  0.93202286  1
  Zn  Zn118  1  0.31118228  0.06490302  0.06278775  1
  Zn  Zn119  1  0.31232347  0.05331279  0.56148745  1
  Zn  Zn120  1  0.30858872  0.55477785  0.05874960  1
  Zn  Zn121  1  0.31423408  0.56400833  0.56486335  1
  Zn  Zn122  1  0.80854426  0.06281724  0.06225499  1
  Zn  Zn123  1  0.80682545  0.05399390  0.55648436  1
  Zn  Zn124  1  0.81304106  0.57117954  0.05804446  1
  Zn  Zn125  1  0.81869271  0.56154604  0.56717455  1
  Zn  Zn126  1  0.43869771  0.43908085  0.18532041  1
  Zn  Zn127  1  0.43521773  0.44272027  0.69499127  1
  Zn  Zn128  1  0.43537700  0.94130673  0.18429397  1
  Zn  Zn129  1  0.38301625  0.91446294  0.71201034  1
  Zn  Zn130  1  0.94085007  0.44452911  0.19191615  1
  Zn  Zn131  1  0.93007369  0.41584913  0.70094828  1
  Zn  Zn132  1  0.94163780  0.93836060  0.19252416  1
  Zn  Zn133  1  0.93321777  0.94176564  0.68343134  1
  Zn  Zn134  1  0.06211867  0.05816037  0.31266900  1
  Zn  Zn135  1  0.06382010  0.05380568  0.81916456  1
  Zn  Zn136  1  0.06694764  0.56373613  0.31519870  1
  Zn  Zn137  1  0.06473491  0.56427206  0.81420052  1
  Zn  Zn138  1  0.56124362  0.05834191  0.31047246  1
  Zn  Zn139  1  0.55947225  0.06791702  0.81738824  1
  Zn  Zn140  1  0.56577631  0.56328926  0.30577107  1
  Zn  Zn141  1  0.55985373  0.56008667  0.80373198  1
  Zn  Zn142  1  0.43671196  0.19085401  0.43389057  1
  Zn  Zn143  1  0.43721088  0.19603554  0.94111449  1
  Zn  Zn144  1  0.44282730  0.68208816  0.43551340  1
  Zn  Zn145  1  0.43525087  0.69204250  0.94229276  1
  Zn  Zn146  1  0.93065241  0.19459604  0.43079786  1
  Zn  Zn147  1  0.93489578  0.18519721  0.94074652  1
  Zn  Zn148  1  0.93774099  0.68793134  0.45331455  1
  Zn  Zn149  1  0.94010915  0.68972098  0.94696116  1
  Zn  Zn150  1  0.06560868  0.31319997  0.06191010  1
  Zn  Zn151  1  0.06348770  0.32070397  0.56250647  1
  Zn  Zn152  1  0.06125023  0.80792934  0.06213671  1
  Zn  Zn153  1  0.06850475  0.81057948  0.55381945  1
  Zn  Zn154  1  0.56553133  0.31199087  0.06372918  1
  Zn  Zn155  1  0.56666167  0.31073439  0.56147308  1
  Zn  Zn156  1  0.56307803  0.81059742  0.05400923  1
  Zn  Zn157  1  0.55458010  0.81054736  0.56118277  1
  O  O158  1  0.12202874  0.11822342  0.11861725  1
  O  O159  1  0.09970703  0.13670417  0.62406479  1
  O  O160  1  0.12231669  0.61850591  0.12373291  1
  O  O161  1  0.11877866  0.61419798  0.62359815  1
  O  O162  1  0.62063851  0.11821179  0.11828108  1
  O  O163  1  0.61527993  0.13187689  0.61589464  1
  O  O164  1  0.63196279  0.60757873  0.12472618  1
  O  O165  1  0.60917359  0.63309065  0.63225797  1
  O  O166  1  0.38443239  0.36709862  0.38628425  1
  O  O167  1  0.38853287  0.36953275  0.88437591  1
  O  O168  1  0.38134476  0.88201960  0.38459223  1
  O  O169  1  0.37939666  0.86936396  0.88494961  1
  O  O170  1  0.88218588  0.38341092  0.38020880  1
  O  O171  1  0.88879887  0.37937978  0.88223466  1
  O  O172  1  0.88492496  0.87576584  0.38068908  1
  O  O173  1  0.87694030  0.88931965  0.87200730  1
  O  O174  1  0.25944494  0.00884901  0.38496923  1
  O  O175  1  0.25218900  0.01447528  0.88049095  1
  O  O176  1  0.25090903  0.50116553  0.37793728  1
  O  O177  1  0.24295784  0.51652332  0.88187480  1
  O  O178  1  0.75583753  0.00774299  0.36861028  1
  O  O179  1  0.75988839  0.01139664  0.87899913  1
  O  O180  1  0.75987907  0.50050166  0.35989116  1
  O  O181  1  0.76853723  0.49745473  0.85964247  1
  O  O182  1  0.23625105  0.48384115  0.12212788  1
  O  O183  1  0.24558622  0.48595864  0.62193655  1
  O  O184  1  0.23869579  0.99103099  0.11617861  1
  O  O185  1  0.23425433  1.04042229  0.63926625  1
  O  O186  1  0.75329417  0.49236042  0.13477302  1
  O  O187  1  0.76147544  0.48931242  0.64223375  1
  O  O188  1  0.74461988  0.99262384  0.13195861  1
  O  O189  1  0.74444341  0.98637405  0.62202097  1
  O  O190  1  0.00737842  0.37169247  0.25846589  1
  O  O191  1  0.02199513  0.37546288  0.76344420  1
  O  O192  1  0.00306486  0.87337341  0.26790909  1
  O  O193  1  0.02790566  0.90211790  0.73694398  1
  O  O194  1  0.50703606  0.36802804  0.25327832  1
  O  O195  1  0.51132533  0.37318656  0.75716101  1
  O  O196  1  0.49215432  0.88303001  0.26574521  1
  O  O197  1  0.49452727  0.87003069  0.75850596  1
  O  O198  1  0.49288432  0.13157821  0.24557135  1
  O  O199  1  0.49861706  0.13529462  0.74490144  1
  O  O200  1  0.47708815  0.61499536  0.25316324  1
  O  O201  1  0.49326014  0.63704018  0.74282658  1
  O  O202  1  0.99473621  0.12978101  0.24614408  1
  O  O203  1  1.00067077  0.12268120  0.73065717  1
  O  O204  1  1.00790956  0.62664198  0.24112054  1
  O  O205  1  1.00329230  0.62589416  0.73630366  1
  O  O206  1  0.36542970  0.26218572  0.00337671  1
  O  O207  1  0.37090734  0.25699838  0.50842419  1
  O  O208  1  0.35871285  0.75864032  0.00403975  1
  O  O209  1  0.37989780  0.75923582  0.50697183  1
  O  O210  1  0.87279980  0.26102997  0.00696527  1
  O  O211  1  0.86910997  0.26814102  0.49285903  1
  O  O212  1  0.87457020  0.74136925  0.02008561  1
  O  O213  1  0.86141053  0.76407448  0.50020745  1
  O  O214  1  0.14030594  0.25903936  0.50156833  1
  O  O215  1  0.13123852  0.23691296  1.00340550  1
  O  O216  1  0.12585671  0.73530979  0.48755516  1
  O  O217  1  0.13340308  0.74261073  0.99650169  1
  O  O218  1  0.62866939  0.23685766  0.49546713  1
  O  O219  1  0.63423477  0.24385584  0.99561374  1
  O  O220  1  0.63416816  0.74899790  0.50392124  1
  O  O221  1  0.62152480  0.75335829  0.97610183  1
  O  O222  1  0.50826882  0.23854620  0.13668862  1
  O  O223  1  0.49380975  0.24361301  0.62864726  1
  O  O224  1  0.49342606  0.72380213  0.09409775  1
  O  O225  1  0.49194902  0.74266336  0.63439321  1
  O  O226  1  0.99618186  0.24651654  0.13089044  1
  O  O227  1  0.99019553  0.23256903  0.62843979  1
  O  O228  1  0.99400182  0.73837120  0.12551941  1
  O  O229  1  1.01375094  0.74538012  0.63025101  1
  O  O230  1  0.00221546  0.26132408  0.37016902  1
  O  O231  1  -0.00415896  0.25932832  0.87517230  1
  O  O232  1  0.00106713  0.75802248  0.38068671  1
  O  O233  1  0.01700249  0.75103906  0.88423734  1
  O  O234  1  0.50427361  0.25711955  0.36335665  1
  O  O235  1  0.50948389  0.25872624  0.86963868  1
  O  O236  1  0.49353836  0.76715760  0.37466154  1
  O  O237  1  0.49747910  0.75474436  0.86219910  1
  O  O238  1  0.26061492  0.13602435  0.48970843  1
  O  O239  1  0.24569697  0.13144347  0.99273706  1
  O  O240  1  0.24299668  0.61809521  0.48854004  1
  O  O241  1  0.23949981  0.63277208  1.00029366  1
  O  O242  1  0.74309734  0.12379806  0.49233607  1
  O  O243  1  0.74220805  0.13271030  0.99540384  1
  O  O244  1  0.75107135  0.64223396  0.51635689  1
  O  O245  1  0.75274362  0.63305506  0.99103132  1
  O  O246  1  0.25521110  0.36914738  0.00529154  1
  O  O247  1  0.25949439  0.36673301  0.51136576  1
  O  O248  1  0.25855705  0.86976055  0.00732375  1
  O  O249  1  0.26813497  0.87825997  0.49962990  1
  O  O250  1  0.76262505  0.37224303  0.00741455  1
  O  O251  1  0.75738757  0.37373467  0.50460321  1
  O  O252  1  0.74754756  0.86097658  -0.01437178  1
  O  O253  1  0.75148992  0.87047851  0.51187430  1
  O  O254  1  0.12398453  0.48723946  0.24487856  1
  O  O255  1  0.12972151  0.50053811  0.73845977  1
  O  O256  1  0.11781112  0.99351301  0.23483607  1
  O  O257  1  0.08877564  0.96192417  0.74954776  1
  O  O258  1  0.63973928  0.49071850  0.24263632  1
  O  O259  1  0.64400131  0.49517769  0.75723571  1
  O  O260  1  0.63563748  1.00563105  0.23974416  1
  O  O261  1  0.60959075  0.98888213  0.74977883  1
  O  O262  1  0.37728192  0.01111721  0.26159948  1
  O  O263  1  0.38665291  0.02225153  0.74773428  1
  O  O264  1  0.36825304  0.50338968  0.24908048  1
  O  O265  1  0.35775764  0.48228093  0.75924582  1
  O  O266  1  0.86772126  0.00422005  0.25746635  1
  O  O267  1  0.88198798  0.00265691  0.76640129  1
  O  O268  1  0.86396516  0.49901050  0.25950890  1
  O  O269  1  0.86917402  0.49871616  0.75945216  1
  O  O270  1  0.11677954  0.37814047  0.37166265  1
  O  O271  1  0.11843939  0.37145428  0.87031158  1
  O  O272  1  0.11514866  0.86353548  0.38355116  1
  O  O273  1  0.13517063  0.86060716  0.88341119  1
  O  O274  1  0.62193690  0.37244307  0.36287963  1
  O  O275  1  0.62342883  0.37251602  0.86892020  1
  O  O276  1  0.61064764  0.87512435  0.37717304  1
  O  O277  1  0.60544837  0.87173200  0.86230475  1
  O  O278  1  0.38381833  0.11721203  0.13484579  1
  O  O279  1  0.38378821  0.13537284  0.63176119  1
  O  O280  1  0.35412617  0.62068229  0.14123825  1
  O  O281  1  0.38365981  0.63994339  0.61729551  1
  O  O282  1  0.87941933  0.13187010  0.12951477  1
  O  O283  1  0.89139888  0.12007786  0.62781694  1
  O  O284  1  0.89317278  0.62015622  0.12748524  1
  O  O285  1  0.89456629  0.62794358  0.62586016  1
  O  O286  1  0.24261351  0.26269881  0.11260696  1
  O  O287  1  0.26056784  0.24829832  0.61896788  1
  O  O288  1  0.24514195  0.75917090  0.11935739  1
  O  O289  1  0.26226991  0.74283204  0.62635092  1
  O  O290  1  0.75672023  0.26001389  0.12203788  1
  O  O291  1  0.75048982  0.26585297  0.62551192  1
  O  O292  1  0.76388306  0.76039891  0.12138704  1
  O  O293  1  0.74484551  0.76956643  0.61736754  1
  O  O294  1  0.24869589  0.24337224  0.38417083  1
  O  O295  1  0.24969742  0.24578933  0.88980868  1
  O  O296  1  0.24583473  0.75566190  0.38068382  1
  O  O297  1  0.24099264  0.73925814  0.88642966  1
  O  O298  1  0.75203885  0.23406960  0.37257810  1
  O  O299  1  0.74992055  0.24153462  0.87834805  1
  O  O300  1  0.74604063  0.76019753  0.39596920  1
  O  O301  1  0.72580000  0.74892506  0.85788020  1
  O  O302  1  0.00694977  0.12198722  0.00646375  1
  O  O303  1  -0.00669822  0.13228719  0.52070354  1
  O  O304  1  0.01555649  0.62687428  0.01318867  1
  O  O305  1  0.01252617  0.62716328  0.51787496  1
  O  O306  1  0.51150586  0.13610662  0.00921547  1
  O  O307  1  0.50452005  0.12097226  0.50422701  1
  O  O308  1  0.49413185  0.66072067  0.03951269  1
  O  O309  1  0.50305053  0.62287306  0.51411832  1
  O  O310  1  0.49584885  0.37178246  0.49249663  1
  O  O311  1  0.49372519  0.36624760  0.99314140  1
  O  O312  1  0.49438486  0.88381621  0.49077278  1
  O  O313  1  0.48479662  0.86971461  0.98653242  1
  O  O314  1  0.98897686  0.37322777  0.49074596  1
  O  O315  1  0.99634221  0.37213400  0.98854309  1
  O  O316  1  0.98278145  0.86874976  0.49445989  1
  O  O317  1  1.00486466  0.89041052  1.00153581  1
  O  O318  1  0.50587412  0.48249252  0.37235980  1
  O  O319  1  0.50107741  0.48695259  0.87108144  1
  O  O320  1  0.49031030  0.99539616  0.38312401  1
  O  O321  1  0.49602307  0.98755613  0.87441387  1
  O  O322  1  0.98665431  0.49315191  0.36641855  1
  O  O323  1  0.98963472  0.48914150  0.86759837  1
  O  O324  1  0.98948664  0.99003806  0.37365195  1
  O  O325  1  0.98490737  1.01008231  0.89076722  1
  O  O326  1  0.00489723  0.00556533  0.11641696  1
  O  O327  1  0.00525558  0.02331926  0.61996678  1
  O  O328  1  0.01295107  0.51087252  0.13053003  1
  O  O329  1  0.01006905  0.49007045  0.63483451  1
  O  O330  1  0.50928825  0.01540475  0.13165469  1
  O  O331  1  0.49195177  0.01478014  0.61257465  1
  O  O332  1  0.51765604  0.49295827  0.12513700  1
  O  O333  1  0.49635984  0.51717118  0.63275461  1
  O  O334  1  0.24074344  0.36420923  0.24230399  1
  O  O335  1  0.24063458  0.36282476  0.74309405  1
  O  O336  1  0.25413789  0.87031458  0.23696666  1
  O  O337  1  0.27432365  0.88776218  0.73927070  1
  O  O338  1  0.74545715  0.37574934  0.24101931  1
  O  O339  1  0.74206354  0.38109201  0.74507395  1
  O  O340  1  0.75542633  0.88492551  0.26025190  1
  O  O341  1  0.72441543  0.87617938  0.73924586  1
  O  O342  1  0.26102064  0.13589138  0.25857020  1
  O  O343  1  0.26015199  0.13619341  0.77035539  1
  O  O344  1  0.25868338  0.62625287  0.27172032  1
  O  O345  1  0.24874915  0.63084603  0.76785775  1
  O  O346  1  0.75592037  0.11712125  0.25551089  1
  O  O347  1  0.74445774  0.12816201  0.76349934  1
  O  O348  1  0.74907770  0.61500014  0.24390586  1
  O  O349  1  0.75912887  0.61752279  0.73909674  1
  O  O350  1  0.36869763  0.11856925  0.36832335  1
  O  O351  1  0.36604113  0.13297544  0.87298020  1
  O  O352  1  0.36422562  0.62090439  0.37513717  1
  O  O353  1  0.35984089  0.62447218  0.88700478  1
  O  O354  1  0.86926463  0.11572327  0.37153147  1
  O  O355  1  0.86141005  0.12136609  0.87855409  1
  O  O356  1  0.88224848  0.61454234  0.38246434  1
  O  O357  1  0.89130962  0.61462160  0.86858167  1
  O  O358  1  0.12804307  0.38065673  0.13310750  1
  O  O359  1  0.13053307  0.37970110  0.63864138  1
  O  O360  1  0.13257791  0.88043475  0.12451944  1
  O  O361  1  0.12643074  0.90794964  0.58862160  1
  O  O362  1  0.63688219  0.37982418  0.13177541  1
  O  O363  1  0.63192841  0.37391084  0.63644217  1
  O  O364  1  0.61464389  0.89087810  0.11518550  1
  O  O365  1  0.62227265  0.87758642  0.63267016  1
  O  O366  1  0.11804332  0.26117142  0.25336757  1
  O  O367  1  0.12692355  0.25410978  0.75137290  1
  O  O368  1  0.13029283  0.74896201  0.27224752  1
  O  O369  1  0.13010837  0.75368525  0.76722874  1
  O  O370  1  0.61932155  0.25901501  0.24916279  1
  O  O371  1  0.62230858  0.26117819  0.75614658  1
  O  O372  1  0.61169456  0.75453378  0.23685194  1
  O  O373  1  0.60359597  0.76232115  0.75345266  1
  O  O374  1  0.38606147  0.24101658  0.25337772  1
  O  O375  1  0.38269240  0.24550547  0.74201840  1
  O  O376  1  0.38694086  0.73938140  0.24136887  1
  O  O377  1  0.38225957  0.75889340  0.73587707  1
  O  O378  1  0.88155215  0.24580539  0.24556863  1
  O  O379  1  0.89061337  0.30762098  0.73074193  1
  O  O380  1  0.87123187  0.74273593  0.23359843  1
  O  O381  1  0.88597715  0.77164870  0.75767551  1
  O  O382  1  0.38293710  0.48432848  0.51037505  1
  O  O383  1  0.36920397  0.48335160  0.99092090  1
  O  O384  1  0.38322806  0.99123239  0.49377812  1
  O  O385  1  0.37104665  0.98713386  0.99942362  1
  O  O386  1  0.86404276  0.49190101  0.48117697  1
  O  O387  1  0.87092895  0.49190485  0.98465614  1
  O  O388  1  0.86491579  0.98277224  0.48612613  1
  O  O389  1  0.88532750  1.00186501  1.00024282  1
  O  O390  1  0.11298446  0.01040676  0.00748544  1
  O  O391  1  0.12047853  -0.03397587  0.53359718  1
  O  O392  1  0.12735907  0.50826799  0.01191271  1
  O  O393  1  0.12623051  0.50730804  0.51755803  1
  O  O394  1  0.63114549  0.01308934  0.00647968  1
  O  O395  1  0.61468572  0.01144734  0.49405291  1
  O  O396  1  0.63339270  0.49233725  0.01210257  1
  O  O397  1  0.62799660  0.50327538  0.50398481  1
  O  O398  1  0.36441944  0.38044084  0.11829899  1
  O  O399  1  0.37158295  0.36426334  0.62080786  1
  O  O400  1  0.37051396  0.87523382  0.11287959  1
  O  O401  1  0.38457474  0.86269657  0.60912468  1
  O  O402  1  0.87363507  0.37503884  0.11959810  1
  O  O403  1  0.87051232  0.38958370  0.60196672  1
  O  O404  1  0.88326771  0.86438716  0.12817891  1
  O  O405  1  0.86378508  0.88359389  0.61489376  1
  O  O406  1  0.13783229  0.12361463  0.36977509  1
  O  O407  1  0.13679888  0.11736587  0.88290514  1
  O  O408  1  0.13793755  0.62978212  0.38172453  1
  O  O409  1  0.13173037  0.63243589  0.88468212  1
  O  O410  1  0.63272515  0.12361190  0.38081569  1
  O  O411  1  0.63455537  0.12948371  0.88234248  1
  O  O412  1  0.60722688  0.63995749  0.37480763  1
  O  O413  1  0.61103427  0.63822220  0.86696671  1
