# generated using pymatgen
data_V79Zn79O256
_symmetry_space_group_name_H-M   'P 1'
_cell_length_a   16.91051278
_cell_length_b   16.95122953
_cell_length_c   16.93998968
_cell_angle_alpha   90.40393639
_cell_angle_beta   90.00218188
_cell_angle_gamma   90.03705706
_symmetry_Int_Tables_number   1
_chemical_formula_structural   V79Zn79O256
_chemical_formula_sum   'V79 Zn79 O256'
_cell_volume   4855.79382889
_cell_formula_units_Z   1
loop_
 _symmetry_equiv_pos_site_id
 _symmetry_equiv_pos_as_xyz
  1  'x, y, z'
loop_
 _atom_site_type_symbol
 _atom_site_label
 _atom_site_symmetry_multiplicity
 _atom_site_fract_x
 _atom_site_fract_y
 _atom_site_fract_z
 _atom_site_occupancy
  V  V0  1  0.13332222  0.24717966  0.88166410  1
  V  V1  1  0.37675243  -0.00949740  0.37834170  1
  V  V2  1  0.37221270  0.24621702  0.61421481  1
  V  V3  1  0.12350876  0.74791318  0.87611877  1
  V  V4  1  0.12113982  0.00061125  0.62092921  1
  V  V5  1  0.88233114  0.49759069  0.39408242  1
  V  V6  1  -0.00251916  0.88934922  0.38061713  1
  V  V7  1  0.87784873  0.37901761  -0.00169419  1
  V  V8  1  0.62378265  0.37526592  0.25365405  1
  V  V9  1  0.24881042  -0.00306177  0.74718017  1
  V  V10  1  -0.00091769  0.75635832  0.25178365  1
  V  V11  1  0.10335394  0.00448769  0.12424390  1
  V  V12  1  0.87929200  0.12327801  0.24709276  1
  V  V13  1  0.24747150  0.87466763  0.12168160  1
  V  V14  1  0.37784280  0.49574003  0.35554207  1
  V  V15  1  0.51027538  -0.00609988  0.50081265  1
  V  V16  1  0.13164908  0.62492803  -0.00406688  1
  V  V17  1  0.37543373  0.12358908  0.74736186  1
  V  V18  1  -0.00716394  0.74548340  0.75085669  1
  V  V19  1  0.74589778  0.37893541  0.12487021  1
  V  V20  1  0.25180633  0.75266685  -0.00321306  1
  V  V21  1  0.75524811  0.26514138  0.50391856  1
  V  V22  1  0.75216844  -0.00735567  0.73817679  1
  V  V23  1  0.38320319  0.12301543  0.24907912  1
  V  V24  1  0.74839829  0.12600768  0.37873295  1
  V  V25  1  0.87425534  0.26290706  0.62297736  1
  V  V26  1  0.50550747  0.87230276  0.88111444  1
  V  V27  1  0.61902767  0.11706681  0.00893334  1
  V  V28  1  0.13356819  0.12997515  0.50146088  1
  V  V29  1  0.75366635  0.24657893  -0.00262966  1
  V  V30  1  0.37663699  0.24421219  0.11662160  1
  V  V31  1  -0.00667626  0.88860583  0.88053720  1
  V  V32  1  0.37363657  0.87832177  -0.00228195  1
  V  V33  1  0.88604507  0.01345648  0.39175475  1
  V  V34  1  0.13526859  0.49963443  0.12912880  1
  V  V35  1  0.11825788  0.87652152  0.24942968  1
  V  V36  1  0.12852576  0.49926223  0.61787687  1
  V  V37  1  0.39316349  0.50160332  0.86912289  1
  V  V38  1  0.25323997  0.51030272  0.76100123  1
  V  V39  1  0.00097645  0.37637905  0.87574461  1
  V  V40  1  -0.00075038  0.12506685  0.61863270  1
  V  V41  1  0.25265635  0.37053498  0.62229823  1
  V  V42  1  0.87328225  0.12178515  0.75592290  1
  V  V43  1  0.63231048  0.73901810  0.87406825  1
  V  V44  1  0.12258839  0.87613054  0.74616437  1
  V  V45  1  0.13351166  0.38075072  0.25259410  1
  V  V46  1  0.13400310  0.25278653  0.37979016  1
  V  V47  1  0.11843614  0.12095488  0.00676518  1
  V  V48  1  0.74737174  0.73364583  -0.00444881  1
  V  V49  1  0.62625643  0.87402563  0.73380955  1
  V  V50  1  0.00416332  0.25582052  0.25199563  1
  V  V51  1  0.00110359  0.50118060  -0.00249508  1
  V  V52  1  0.63253205  0.37382112  0.74929972  1
  V  V53  1  0.50254898  0.24867988  0.25184203  1
  V  V54  1  -0.00429099  0.61864772  0.62056864  1
  V  V55  1  0.86815330  0.88736266  -0.00116242  1
  V  V56  1  0.49183624  0.62236165  0.63342821  1
  V  V57  1  0.87603206  0.62272983  0.25067635  1
  V  V58  1  0.00723097  0.62784626  0.12754238  1
  V  V59  1  0.38129732  -0.00081516  0.87582601  1
  V  V60  1  0.62478400  0.25147949  0.38051944  1
  V  V61  1  0.88434616  0.25231941  0.12708400  1
  V  V62  1  0.87000937  0.75540597  0.12358378  1
  V  V63  1  0.51470404  0.11884177  0.61961228  1
  V  V64  1  0.53130298  0.49084244  0.02680314  1
  V  V65  1  0.74308221  0.62421559  0.38022123  1
  V  V66  1  0.36264285  0.86910322  0.52165886  1
  V  V67  1  0.38985155  0.38316587  0.49807641  1
  V  V68  1  0.12377102  0.75396547  0.38982108  1
  V  V69  1  0.75527793  0.49840872  0.76546843  1
  V  V70  1  0.50217348  0.25343245  0.75065935  1
  V  V71  1  0.61500876  0.62961455  0.49895644  1
  V  V72  1  0.62485920  0.24925014  0.87436267  1
  V  V73  1  0.63138287  0.49416008  0.61804837  1
  V  V74  1  0.25379310  0.36815597  0.11540777  1
  V  V75  1  0.87308417  0.61920969  0.77130426  1
  V  V76  1  0.24760576  0.00418997  0.25126170  1
  V  V77  1  0.00083576  0.25060050  0.75115409  1
  V  V78  1  0.74479594  0.50030292  0.24608318  1
  Zn  Zn79  1  0.75515480  0.11236639  0.87802765  1
  Zn  Zn80  1  0.13107762  0.64249803  0.51080557  1
  Zn  Zn81  1  0.00449441  0.38643709  0.39583441  1
  Zn  Zn82  1  0.48051716  0.74667484  0.74567578  1
  Zn  Zn83  1  0.25567339  0.12998588  0.88356663  1
  Zn  Zn84  1  0.85601544  0.88105814  0.52005600  1
  Zn  Zn85  1  0.65208620  0.87635865  0.24483533  1
  Zn  Zn86  1  0.66534183  0.95270116  0.09392846  1
  Zn  Zn87  1  0.38972175  0.36466303  -0.01856784  1
  Zn  Zn88  1  0.51600448  0.76403044  0.28363731  1
  Zn  Zn89  1  0.24946057  0.61209303  0.38464746  1
  Zn  Zn90  1  0.74937315  0.76465785  0.51840460  1
  Zn  Zn91  1  0.45480174  0.63326371  0.13135791  1
  Zn  Zn92  1  0.12924708  0.37486281  0.75257624  1
  Zn  Zn93  1  0.25499128  0.13108523  0.38203528  1
  Zn  Zn94  1  0.19048351  0.18820828  0.18623563  1
  Zn  Zn95  1  0.18980894  0.18669005  0.69128323  1
  Zn  Zn96  1  0.24390745  0.65935073  0.16232907  1
  Zn  Zn97  1  0.19302292  0.68828114  0.69293036  1
  Zn  Zn98  1  0.69503082  0.18835832  0.18991390  1
  Zn  Zn99  1  0.69373277  0.18574978  0.68530286  1
  Zn  Zn100  1  0.69015512  0.71604351  0.20229104  1
  Zn  Zn101  1  0.68772398  0.68812379  0.68822308  1
  Zn  Zn102  1  0.31590182  0.31768329  0.31078014  1
  Zn  Zn103  1  0.31418585  0.31709329  0.80514766  1
  Zn  Zn104  1  0.30375678  0.81484804  0.31864994  1
  Zn  Zn105  1  0.30608150  0.81675211  0.81533906  1
  Zn  Zn106  1  0.81480144  0.31639880  0.31653492  1
  Zn  Zn107  1  0.81406352  0.31265553  0.81197228  1
  Zn  Zn108  1  0.80043878  0.82442859  0.36546114  1
  Zn  Zn109  1  0.81102030  0.81324382  0.80998349  1
  Zn  Zn110  1  0.19789346  0.43385477  0.43945270  1
  Zn  Zn111  1  0.19177024  0.43341705  0.93820404  1
  Zn  Zn112  1  0.18774545  0.93683283  0.44128732  1
  Zn  Zn113  1  0.18395281  0.94396747  0.93438340  1
  Zn  Zn114  1  0.69248641  0.44111101  0.43316822  1
  Zn  Zn115  1  0.68408981  0.43431608  0.93748112  1
  Zn  Zn116  1  0.68051770  0.94243940  0.41476836  1
  Zn  Zn117  1  0.69521653  0.93584929  0.92359484  1
  Zn  Zn118  1  0.30213721  0.06456839  0.06207678  1
  Zn  Zn119  1  0.31276587  0.05536484  0.56423662  1
  Zn  Zn120  1  0.32087880  0.55185311  0.04277054  1
  Zn  Zn121  1  0.30792140  0.56358371  0.55654380  1
  Zn  Zn122  1  0.81305322  0.06407495  0.06830456  1
  Zn  Zn123  1  0.80557264  0.07468906  0.56491252  1
  Zn  Zn124  1  0.81452800  0.56413429  0.06378517  1
  Zn  Zn125  1  0.79594496  0.59594980  0.58546446  1
  Zn  Zn126  1  0.43944527  0.43450722  0.18534605  1
  Zn  Zn127  1  0.43988891  0.44028208  0.68839339  1
  Zn  Zn128  1  0.42839024  0.92289403  0.19773589  1
  Zn  Zn129  1  0.44487361  0.93600956  0.68931408  1
  Zn  Zn130  1  0.94380390  0.43846257  0.18824166  1
  Zn  Zn131  1  0.93861981  0.44232562  0.68675554  1
  Zn  Zn132  1  0.81969840  0.93328577  0.20125562  1
  Zn  Zn133  1  0.93579927  0.93831318  0.68696404  1
  Zn  Zn134  1  0.06264391  0.07121625  0.31032807  1
  Zn  Zn135  1  0.06177313  0.06710055  0.81353157  1
  Zn  Zn136  1  0.06390632  0.56629686  0.31666207  1
  Zn  Zn137  1  0.06758950  0.55978210  0.80982199  1
  Zn  Zn138  1  0.56512922  0.05166295  0.31026448  1
  Zn  Zn139  1  0.56949946  0.06038050  0.81251278  1
  Zn  Zn140  1  0.53517561  0.59050447  0.32658406  1
  Zn  Zn141  1  0.56154902  0.56089291  0.80974865  1
  Zn  Zn142  1  0.44133374  0.18084464  0.43524372  1
  Zn  Zn143  1  0.44563511  0.18010983  0.93607865  1
  Zn  Zn144  1  0.42153093  0.68329676  0.44249919  1
  Zn  Zn145  1  0.45817592  0.67687939  0.95074719  1
  Zn  Zn146  1  0.94496702  0.20266195  0.44038511  1
  Zn  Zn147  1  0.94241192  0.18620769  0.93870768  1
  Zn  Zn148  1  0.93351403  0.69299516  0.44069667  1
  Zn  Zn149  1  0.94054244  0.69134793  0.94115658  1
  Zn  Zn150  1  0.06808698  0.31151920  0.06175601  1
  Zn  Zn151  1  0.06482493  0.31502381  0.56163152  1
  Zn  Zn152  1  0.05875303  0.81732056  0.06244134  1
  Zn  Zn153  1  0.02307740  0.82175624  0.57394763  1
  Zn  Zn154  1  0.56180184  0.30584187  0.06547765  1
  Zn  Zn155  1  0.56562975  0.30933240  0.56550771  1
  Zn  Zn156  1  0.53476866  0.80151369  0.09974697  1
  Zn  Zn157  1  0.54762371  0.80379720  0.55473713  1
  O  O158  1  0.12735263  0.12098915  0.11527420  1
  O  O159  1  0.11974575  0.12257495  0.62100739  1
  O  O160  1  0.12952880  0.61713289  0.11878744  1
  O  O161  1  0.12112460  0.61417352  0.62980991  1
  O  O162  1  0.63620368  0.13624494  0.10738579  1
  O  O163  1  0.61306492  0.12723792  0.62721800  1
  O  O164  1  0.61034228  0.63237709  0.17113472  1
  O  O165  1  0.62061039  0.61336344  0.61428107  1
  O  O166  1  0.37109431  0.38064413  0.39021416  1
  O  O167  1  0.37220128  0.38342136  0.87089414  1
  O  O168  1  0.37589844  0.88780912  0.37025974  1
  O  O169  1  0.38235791  0.88063414  0.87587181  1
  O  O170  1  0.87893575  0.39432490  0.36922889  1
  O  O171  1  0.88737284  0.36696877  0.88832020  1
  O  O172  1  0.88500229  0.90941867  0.36661139  1
  O  O173  1  0.88559143  0.86974841  0.88322675  1
  O  O174  1  0.25481174  0.00012216  0.36319727  1
  O  O175  1  0.25979485  -0.00004970  0.86176677  1
  O  O176  1  0.26112462  0.49566521  0.37347204  1
  O  O177  1  0.25035802  0.49564615  0.86356413  1
  O  O178  1  0.76975963  0.02314566  0.37486535  1
  O  O179  1  0.74929978  0.00143285  0.84977721  1
  O  O180  1  0.76433471  0.50361730  0.36249134  1
  O  O181  1  0.74639866  0.49703853  0.86507702  1
  O  O182  1  0.23841809  0.48870610  0.11626256  1
  O  O183  1  0.24128711  0.49456408  0.63472243  1
  O  O184  1  0.24235580  0.99257782  0.13605792  1
  O  O185  1  0.23734014  1.00560615  0.63956406  1
  O  O186  1  0.75948438  0.48793797  0.13257082  1
  O  O187  1  0.73532410  0.50903713  0.64103307  1
  O  O188  1  0.75490876  1.00198672  0.13966748  1
  O  O189  1  0.74877169  1.00761319  0.63701338  1
  O  O190  1  0.01457196  0.36921968  0.25014126  1
  O  O191  1  -0.00121634  0.36744552  0.76077800  1
  O  O192  1  0.00701072  0.87186913  0.25677336  1
  O  O193  1  0.00181591  0.86502827  0.76343412  1
  O  O194  1  0.51397170  0.36213203  0.24399749  1
  O  O195  1  0.51187673  0.35731932  0.73867491  1
  O  O196  1  0.47428680  0.82384336  0.20261332  1
  O  O197  1  0.51077131  0.86627777  0.75672774  1
  O  O198  1  0.49126125  0.12980570  0.25652794  1
  O  O199  1  0.49466299  0.12680100  0.73958244  1
  O  O200  1  0.54093980  0.64099689  0.21510025  1
  O  O201  1  0.50451796  0.63074396  0.73880695  1
  O  O202  1  0.98971406  0.14319423  0.25430238  1
  O  O203  1  0.99400702  0.13466183  0.74462695  1
  O  O204  1  0.99654787  0.63523888  0.24705501  1
  O  O205  1  0.99170880  0.62699108  0.75212938  1
  O  O206  1  0.38738838  0.24625854  0.01335993  1
  O  O207  1  0.37984575  0.25094712  0.51027484  1
  O  O208  1  0.35537180  0.76475472  -0.01722983  1
  O  O209  1  0.38164937  0.77233830  0.49672497  1
  O  O210  1  0.87388195  0.25724491  0.00715763  1
  O  O211  1  0.86361167  0.24756563  0.50782110  1
  O  O212  1  0.86723700  0.75347484  0.00525755  1
  O  O213  1  0.85901561  0.77281920  0.46290135  1
  O  O214  1  0.12603034  0.24215832  0.49177317  1
  O  O215  1  0.12246512  0.23968404  0.99145230  1
  O  O216  1  0.10060353  0.75938014  0.49050810  1
  O  O217  1  0.12649044  0.74483653  0.99430233  1
  O  O218  1  0.63800284  0.25502887  0.49096688  1
  O  O219  1  0.63408445  0.24374770  0.99245944  1
  O  O220  1  0.62675555  0.73186138  0.50229681  1
  O  O221  1  0.64252283  0.74915967  0.98484360  1
  O  O222  1  0.48761154  0.24864143  0.13866940  1
  O  O223  1  0.49446864  0.23513253  0.63067611  1
  O  O224  1  0.48804827  0.71078579  0.05625523  1
  O  O225  1  0.49983900  0.72950847  0.62695051  1
  O  O226  1  0.99147228  0.25922854  0.13281645  1
  O  O227  1  0.99585299  0.24399923  0.63616845  1
  O  O228  1  0.99492491  0.74785123  0.13233946  1
  O  O229  1  1.01189970  0.72771348  0.64407333  1
  O  O230  1  0.01411469  0.25686229  0.36557113  1
  O  O231  1  0.00806581  0.25755160  0.86884428  1
  O  O232  1  0.00192303  0.76392101  0.36562931  1
  O  O233  1  0.00792422  0.75560534  0.86853464  1
  O  O234  1  0.51404223  0.24141109  0.36693451  1
  O  O235  1  0.51217420  0.24070186  0.86155496  1
  O  O236  1  0.49977642  0.69410064  0.36393871  1
  O  O237  1  0.51299426  0.75562415  0.87049193  1
  O  O238  1  0.23878695  0.12098397  0.50177730  1
  O  O239  1  0.23339361  0.12392391  0.99538254  1
  O  O240  1  0.24262475  0.63163705  0.49938135  1
  O  O241  1  0.23711459  0.63595440  1.00017966  1
  O  O242  1  0.75259006  0.13816470  0.48411888  1
  O  O243  1  0.75442511  0.13771791  0.99736433  1
  O  O244  1  0.74096216  0.61506596  0.48522926  1
  O  O245  1  0.75727451  0.63415295  0.99481445  1
  O  O246  1  0.25110129  0.36956895  0.01299992  1
  O  O247  1  0.26272065  0.37458900  0.51733623  1
  O  O248  1  0.24895589  0.87259276  0.00257444  1
  O  O249  1  0.26300077  0.88270016  0.50509263  1
  O  O250  1  0.76014629  0.36671216  0.00508409  1
  O  O251  1  0.75245833  0.36370601  0.49709389  1
  O  O252  1  0.76450706  0.86690108  -0.00881083  1
  O  O253  1  0.74695199  0.87257019  0.47069608  1
  O  O254  1  0.11923470  0.49363816  0.24031384  1
  O  O255  1  0.13635738  0.49453881  0.74480257  1
  O  O256  1  0.12893590  0.99763542  0.24533932  1
  O  O257  1  0.12985097  0.99647059  0.74599421  1
  O  O258  1  0.64062345  0.48701191  0.25616007  1
  O  O259  1  0.63813415  0.49053293  0.75007910  1
  O  O260  1  0.56786158  1.01147013  0.17242867  1
  O  O261  1  0.63162550  0.98285960  0.74758246  1
  O  O262  1  0.36915545  0.00423237  0.25593816  1
  O  O263  1  0.36987932  0.00494031  0.75443367  1
  O  O264  1  0.36608641  0.48664764  0.25550407  1
  O  O265  1  0.36141671  0.49479464  0.75589096  1
  O  O266  1  0.88132380  0.02319080  0.25515459  1
  O  O267  1  0.86464096  0.00837479  0.74254849  1
  O  O268  1  0.87252189  0.51312667  0.24478310  1
  O  O269  1  0.86541645  0.50470617  0.75318002  1
  O  O270  1  0.12627252  0.37090002  0.36867981  1
  O  O271  1  0.11560068  0.36503836  0.87792840  1
  O  O272  1  0.11624635  0.87860934  0.36637654  1
  O  O273  1  0.11092524  0.87077721  0.86969919  1
  O  O274  1  0.63584470  0.36346499  0.36379852  1
  O  O275  1  0.62979503  0.36027015  0.86324192  1
  O  O276  1  0.62310111  0.95626794  0.31927934  1
  O  O277  1  0.61684141  0.86778391  0.86989018  1
  O  O278  1  0.36860639  0.13499036  0.13478269  1
  O  O279  1  0.37814285  0.12832228  0.63328657  1
  O  O280  1  0.34392387  0.62039106  0.12588948  1
  O  O281  1  0.39502325  0.60431450  0.62007356  1
  O  O282  1  0.87112753  0.13944391  0.13983560  1
  O  O283  1  0.88363280  0.13555078  0.63340543  1
  O  O284  1  0.88510530  0.63308119  0.13075790  1
  O  O285  1  0.89561753  0.60945716  0.64224543  1
  O  O286  1  0.26671038  0.25429341  0.13048443  1
  O  O287  1  0.26237639  0.25643301  0.63516826  1
  O  O288  1  0.23821498  0.76691521  0.11079867  1
  O  O289  1  0.30220111  0.73936403  0.67163034  1
  O  O290  1  0.76417162  0.25996659  0.11719834  1
  O  O291  1  0.75714534  0.24551434  0.61107095  1
  O  O292  1  0.76059672  0.74094451  0.11130224  1
  O  O293  1  0.76591895  0.70779386  0.61245221  1
  O  O294  1  0.23768286  0.24979262  0.36610608  1
  O  O295  1  0.23596075  0.24999684  0.86153880  1
  O  O296  1  0.22210459  0.77105056  0.38767267  1
  O  O297  1  0.23086970  0.76023828  0.88265955  1
  O  O298  1  0.74863856  0.24739983  0.38533693  1
  O  O299  1  0.74510121  0.25062777  0.88470549  1
  O  O300  1  0.74280247  0.72113497  0.36892062  1
  O  O301  1  0.74428947  0.75161330  0.88254836  1
  O  O302  1  0.01675173  0.12629808  -0.00298972  1
  O  O303  1  0.01023982  0.13427911  0.51313576  1
  O  O304  1  0.01004453  0.61958508  0.00700357  1
  O  O305  1  -0.00074784  0.63160897  0.51861072  1
  O  O306  1  0.51910802  0.12158313  -0.00025433  1
  O  O307  1  0.49635639  0.11590840  0.51446843  1
  O  O308  1  0.51829498  0.57317978  -0.02747300  1
  O  O309  1  0.51330065  0.62008575  0.51056500  1
  O  O310  1  0.48896228  0.36778644  0.50549777  1
  O  O311  1  0.50444287  0.38637466  1.00864801  1
  O  O312  1  0.48879935  0.89004769  0.50715012  1
  O  O313  1  0.48397253  0.87131774  0.98884467  1
  O  O314  1  0.98800843  0.36289569  0.50245558  1
  O  O315  1  0.99681226  0.38126441  0.99624895  1
  O  O316  1  1.00435200  0.88581412  0.47916089  1
  O  O317  1  0.98960599  0.87104886  0.98709412  1
  O  O318  1  0.48177874  0.49701816  0.36028075  1
  O  O319  1  0.49046827  0.48250209  0.84730665  1
  O  O320  1  0.48609126  1.01336713  0.39420315  1
  O  O321  1  0.49034077  0.98863912  0.86480361  1
  O  O322  1  0.98792125  0.50558944  0.37631278  1
  O  O323  1  1.01040491  0.48910030  0.88708655  1
  O  O324  1  0.99282270  1.00685929  0.37442421  1
  O  O325  1  1.00019869  0.98671742  0.86912097  1
  O  O326  1  0.00783037  0.00123742  0.13153841  1
  O  O327  1  0.01066010  0.01710493  0.63708754  1
  O  O328  1  0.01289401  0.50493087  0.11574089  1
  O  O329  1  0.01780955  0.50843289  0.63622045  1
  O  O330  1  0.50007607  0.00170807  0.13721911  1
  O  O331  1  0.49776031  0.01155087  0.61736912  1
  O  O332  1  0.49348676  0.51324873  0.12221408  1
  O  O333  1  0.52199386  0.50773028  0.63949080  1
  O  O334  1  0.23814636  0.36948755  0.23820947  1
  O  O335  1  0.24874432  0.38282945  0.73585062  1
  O  O336  1  0.23927335  0.88300774  0.24177456  1
  O  O337  1  0.23228404  0.88401361  0.75542252  1
  O  O338  1  0.74784472  0.37950661  0.24209303  1
  O  O339  1  0.74618484  0.38517653  0.75189436  1
  O  O340  1  0.76765455  0.85590556  0.26086258  1
  O  O341  1  0.74361473  0.88258506  0.74444677  1
  O  O342  1  0.25857893  0.11489703  0.25041060  1
  O  O343  1  0.26190485  0.11727825  0.75398050  1
  O  O344  1  0.26648345  0.66641156  0.27583819  1
  O  O345  1  0.24627077  0.60893501  0.75442950  1
  O  O346  1  0.77134294  0.14489093  0.26611188  1
  O  O347  1  0.75831903  0.11747747  0.74974799  1
  O  O348  1  0.75838294  0.61640189  0.25556970  1
  O  O349  1  0.76530159  0.61349943  0.75594595  1
  O  O350  1  0.37069113  0.11641738  0.36646280  1
  O  O351  1  0.37871574  0.11699011  0.86484840  1
  O  O352  1  0.36854223  0.59766879  0.38853878  1
  O  O353  1  0.38990385  0.60367050  0.88255807  1
  O  O354  1  0.87732872  0.12668631  0.37063919  1
  O  O355  1  0.87656287  0.13318291  0.86026260  1
  O  O356  1  0.86756514  0.61588032  0.36831994  1
  O  O357  1  0.88435556  0.61818810  0.86992056  1
  O  O358  1  0.13246003  0.37965915  0.13090438  1
  O  O359  1  0.13279162  0.38344876  0.62776841  1
  O  O360  1  0.12643331  0.88492295  0.13093499  1
  O  O361  1  0.10581041  0.88595116  0.63990629  1
  O  O362  1  0.64028957  0.35869928  0.13846956  1
  O  O363  1  0.62598202  0.38422330  0.63512993  1
  O  O364  1  0.62745300  0.85656929  0.13095909  1
  O  O365  1  0.61732104  0.86193616  0.63666036  1
  O  O366  1  0.12050950  0.25672166  0.25465592  1
  O  O367  1  0.11313451  0.24940424  0.75716402  1
  O  O368  1  0.11297851  0.76454510  0.25921245  1
  O  O369  1  0.11868606  0.75698928  0.75735688  1
  O  O370  1  0.62186635  0.25369970  0.25822595  1
  O  O371  1  0.62445768  0.25343211  0.75373216  1
  O  O372  1  0.62923265  0.77008326  0.27909960  1
  O  O373  1  0.63839779  0.76354274  0.76137818  1
  O  O374  1  0.38470158  0.24187904  0.24976638  1
  O  O375  1  0.38505228  0.24001090  0.74271020  1
  O  O376  1  0.33524492  0.71466315  0.27283987  1
  O  O377  1  0.34919438  0.74148633  0.73806255  1
  O  O378  1  0.88613850  0.25370558  0.24508664  1
  O  O379  1  0.88198494  0.24384427  0.74436624  1
  O  O380  1  0.88544868  0.73858676  0.24186351  1
  O  O381  1  0.88239031  0.73294997  0.75973176  1
  O  O382  1  0.37964196  0.48233916  0.50776387  1
  O  O383  1  0.38066767  0.48421264  0.97970547  1
  O  O384  1  0.37733089  0.98985412  0.49505703  1
  O  O385  1  0.36391606  0.99246579  0.98456931  1
  O  O386  1  0.86754833  0.50991129  0.48950923  1
  O  O387  1  0.88896913  0.49011485  1.00881545  1
  O  O388  1  0.87519835  1.00842418  0.49260514  1
  O  O389  1  0.87046905  0.98617949  1.00275396  1
  O  O390  1  0.12459771  0.01047338  0.00839680  1
  O  O391  1  0.12750218  0.00880365  0.51446898  1
  O  O392  1  0.12032418  0.50654063  0.00567019  1
  O  O393  1  0.13020851  0.49796390  0.51720939  1
  O  O394  1  0.64235297  0.01354570  -0.00273888  1
  O  O395  1  0.60853626  -0.00563394  0.49410595  1
  O  O396  1  0.63348849  0.48167800  0.02553974  1
  O  O397  1  0.63229641  0.49831480  0.51471931  1
  O  O398  1  0.36905708  0.35801565  0.12718558  1
  O  O399  1  0.37416398  0.36472705  0.61950956  1
  O  O400  1  0.35644013  0.88779570  0.10794992  1
  O  O401  1  0.37374779  0.87865831  0.62194771  1
  O  O402  1  0.87080171  0.37006574  0.11749681  1
  O  O403  1  0.87804147  0.36139959  0.63520053  1
  O  O404  1  0.87830621  0.86369329  0.10985517  1
  O  O405  1  0.91698050  0.86101846  0.61079385  1
  O  O406  1  0.12743106  0.13385013  0.38441806  1
  O  O407  1  0.12655337  0.13129337  0.88334475  1
  O  O408  1  0.12360500  0.64564001  0.37714910  1
  O  O409  1  0.11602304  0.63543523  0.88539176  1
  O  O410  1  0.64329800  0.13427051  0.36285874  1
  O  O411  1  0.63173423  0.13370076  0.88280015  1
  O  O412  1  0.63495215  0.60155692  0.39023286  1
  O  O413  1  0.62576493  0.64132828  0.86174314  1
