# generated using pymatgen
data_V79Zn79O256
_symmetry_space_group_name_H-M   'P 1'
_cell_length_a   16.88421406
_cell_length_b   16.88662997
_cell_length_c   16.88737839
_cell_angle_alpha   89.82103709
_cell_angle_beta   90.09199820
_cell_angle_gamma   90.03685691
_symmetry_Int_Tables_number   1
_chemical_formula_structural   V79Zn79O256
_chemical_formula_sum   'V79 Zn79 O256'
_cell_volume   4814.85601403
_cell_formula_units_Z   1
loop_
 _symmetry_equiv_pos_site_id
 _symmetry_equiv_pos_as_xyz
  1  'x, y, z'
loop_
 _atom_site_type_symbol
 _atom_site_label
 _atom_site_symmetry_multiplicity
 _atom_site_fract_x
 _atom_site_fract_y
 _atom_site_fract_z
 _atom_site_occupancy
  V  V0  1  0.75370194  0.49014568  0.74602591  1
  V  V1  1  0.25289721  0.11949812  0.36488959  1
  V  V2  1  0.00750203  0.37822660  0.87208593  1
  V  V3  1  0.50184898  0.62483960  0.62419947  1
  V  V4  1  0.75617898  0.75573068  0.50351020  1
  V  V5  1  0.62503477  0.36750743  0.76111205  1
  V  V6  1  -0.00232837  0.36879311  0.36558886  1
  V  V7  1  0.25309403  0.37839936  0.13210865  1
  V  V8  1  -0.00623281  0.88909460  0.37837481  1
  V  V9  1  0.62815533  0.62228680  0.49867615  1
  V  V10  1  0.12701842  0.38933302  0.25464136  1
  V  V11  1  0.49734376  0.62373448  0.12325123  1
  V  V12  1  0.87868976  0.49948458  0.87936119  1
  V  V13  1  0.49320263  -0.00277746  0.50078368  1
  V  V14  1  0.75160541  0.62159555  0.35973747  1
  V  V15  1  0.24799232  0.62442398  0.37207040  1
  V  V16  1  0.62279538  0.12211986  0.50449586  1
  V  V17  1  0.37378399  0.00144144  0.36100784  1
  V  V18  1  0.48661019  0.48913513  -0.00709999  1
  V  V19  1  0.11867788  0.24878581  0.36602412  1
  V  V20  1  0.88471447  0.25531677  0.13294592  1
  V  V21  1  0.88405181  0.38276758  0.00211329  1
  V  V22  1  0.62098065  0.13215353  -0.01411149  1
  V  V23  1  0.62255760  0.88067356  0.24402081  1
  V  V24  1  0.75106874  0.25432957  0.51090835  1
  V  V25  1  0.24097432  0.75330989  -0.00914372  1
  V  V26  1  0.36048234  0.11201879  0.76027177  1
  V  V27  1  0.24499652  0.25587443  0.50229246  1
  V  V28  1  0.23794968  0.62123576  0.87825464  1
  V  V29  1  0.13143641  0.11533888  0.00596055  1
  V  V30  1  0.62580650  0.75377123  0.37384153  1
  V  V31  1  0.37524902  0.61889211  0.75698725  1
  V  V32  1  0.50241360  0.24781587  0.75550127  1
  V  V33  1  0.49941277  0.49666474  0.49897667  1
  V  V34  1  0.62297596  0.62562448  -0.00596204  1
  V  V35  1  0.37694064  0.75701705  0.11398312  1
  V  V36  1  0.77466028  0.12651396  0.87639055  1
  V  V37  1  0.49518083  0.12085186  0.62432406  1
  V  V38  1  0.25638016  0.75735566  0.49557557  1
  V  V39  1  0.74854927  -0.00004317  0.25107973  1
  V  V40  1  0.00374092  0.11401766  0.64195616  1
  V  V41  1  0.62564253  0.49950636  0.12622988  1
  V  V42  1  0.50661144  0.11982044  0.12512629  1
  V  V43  1  0.63071378  0.48925844  0.62458778  1
  V  V44  1  0.05712430  0.80486150  0.81236804  1
  V  V45  1  0.12895204  0.50633421  0.09871496  1
  V  V46  1  0.37884541  0.75435172  0.61962177  1
  V  V47  1  0.24483408  0.88296386  0.12552306  1
  V  V48  1  0.11870238  0.25128979  0.87432857  1
  V  V49  1  0.00112806  0.11922564  0.13091600  1
  V  V50  1  0.11901599  0.75293156  0.36592664  1
  V  V51  1  0.11704913  0.11193018  0.50147120  1
  V  V52  1  0.36969408  0.62182818  0.24717943  1
  V  V53  1  0.62337497  0.25250215  0.37745766  1
  V  V54  1  0.49390462  0.24244470  0.25095758  1
  V  V55  1  0.75179326  0.12580451  0.37845626  1
  V  V56  1  0.37396356  0.24715973  0.12617382  1
  V  V57  1  0.24129216  0.49177512  0.74207235  1
  V  V58  1  0.74536535  0.25588541  0.00006917  1
  V  V59  1  0.25157866  0.25753259  -0.00419724  1
  V  V60  1  0.49262208  0.86722333  0.87449920  1
  V  V61  1  0.75237645  0.38496507  0.12889673  1
  V  V62  1  0.36694235  0.49905740  0.37057304  1
  V  V63  1  -0.02867251  -0.01046876  0.00130199  1
  V  V64  1  0.24953120  0.88168302  0.63196766  1
  V  V65  1  0.36699963  0.25578704  0.62487702  1
  V  V66  1  0.49311085  0.87352397  0.38000738  1
  V  V67  1  0.62707295  0.37795950  0.25030962  1
  V  V68  1  0.48873256  -0.00185043  -0.01073471  1
  V  V69  1  0.87353870  0.37993077  0.50220036  1
  V  V70  1  0.63045335  0.87487232  0.74327867  1
  V  V71  1  0.87233868  0.50446754  0.35900276  1
  V  V72  1  0.49666438  0.37501768  0.37557886  1
  V  V73  1  0.00714929  0.61639815  0.62773963  1
  V  V74  1  0.74211867  0.62723976  0.87435631  1
  V  V75  1  0.87702431  0.12914201  0.25642564  1
  V  V76  1  0.88149118  0.75171659  0.62746191  1
  V  V77  1  -0.00956541  0.62426964  0.11704121  1
  V  V78  1  0.88945982  0.25092154  0.63433108  1
  Zn  Zn79  1  0.65729553  -0.03123883  0.09056066  1
  Zn  Zn80  1  0.49970637  0.75260825  0.24731492  1
  Zn  Zn81  1  0.36661232  0.37893528  0.50369954  1
  Zn  Zn82  1  0.12215283  0.36456834  0.73044743  1
  Zn  Zn83  1  0.12338604  0.89126763  0.24135316  1
  Zn  Zn84  1  0.01446496  0.49720794  0.49696994  1
  Zn  Zn85  1  0.09109335  -0.05610609  0.68812023  1
  Zn  Zn86  1  0.48560442  0.36898504  0.87785589  1
  Zn  Zn87  1  0.74153932  0.00230255  0.74722584  1
  Zn  Zn88  1  0.12858014  0.62126214  0.50452890  1
  Zn  Zn89  1  0.79467548  0.81908758  0.06196422  1
  Zn  Zn90  1  0.89134694  0.90339110  0.50601106  1
  Zn  Zn91  1  0.50967416  0.74305311  0.76038381  1
  Zn  Zn92  1  0.87887469  0.62869334  0.75312215  1
  Zn  Zn93  1  -0.01585089  0.75080367  0.23558251  1
  Zn  Zn94  1  0.18562529  0.18733293  0.18618715  1
  Zn  Zn95  1  0.18423307  0.18240612  0.68706354  1
  Zn  Zn96  1  0.18408340  0.68978172  0.18290773  1
  Zn  Zn97  1  0.18899700  0.69379551  0.68909870  1
  Zn  Zn98  1  0.68702805  0.19048485  0.18525853  1
  Zn  Zn99  1  0.69238101  0.17662355  0.68710612  1
  Zn  Zn100  1  0.68634722  0.69911694  0.18190692  1
  Zn  Zn101  1  0.68880491  0.68752211  0.69094881  1
  Zn  Zn102  1  0.30864015  0.30979762  0.31474929  1
  Zn  Zn103  1  0.31049687  0.30466975  0.80604125  1
  Zn  Zn104  1  0.31422389  0.81075317  0.30446287  1
  Zn  Zn105  1  0.31635937  0.80916020  0.80927818  1
  Zn  Zn106  1  0.81034107  0.31257805  0.31573631  1
  Zn  Zn107  1  0.81499941  0.31201236  0.81273390  1
  Zn  Zn108  1  0.81181930  0.81706949  0.31394339  1
  Zn  Zn109  1  0.80880621  0.80898828  0.81509350  1
  Zn  Zn110  1  0.18029137  0.44283776  0.56052729  1
  Zn  Zn111  1  0.30835926  0.43754847  0.93220312  1
  Zn  Zn112  1  0.18836501  0.93494820  0.43700627  1
  Zn  Zn113  1  0.17626930  0.92663984  0.93210622  1
  Zn  Zn114  1  0.69114564  0.43818143  0.43635890  1
  Zn  Zn115  1  0.68763051  0.44218861  0.93932627  1
  Zn  Zn116  1  0.72425272  0.96933953  0.47943506  1
  Zn  Zn117  1  0.68514832  0.94575139  0.91761851  1
  Zn  Zn118  1  0.31540249  0.06787380  0.06503258  1
  Zn  Zn119  1  0.31119472  0.06557226  0.55705704  1
  Zn  Zn120  1  0.30688098  0.56551818  0.06364670  1
  Zn  Zn121  1  0.31406506  0.56658054  0.56086224  1
  Zn  Zn122  1  0.81043010  0.07094180  0.06612540  1
  Zn  Zn123  1  0.82330179  0.04964252  0.60989483  1
  Zn  Zn124  1  0.79924668  0.61530971  0.07673283  1
  Zn  Zn125  1  0.81512033  0.56714763  0.55829939  1
  Zn  Zn126  1  0.43710328  0.43452548  0.18733143  1
  Zn  Zn127  1  0.43686570  0.43570972  0.69089664  1
  Zn  Zn128  1  0.44125486  0.93824868  0.18371289  1
  Zn  Zn129  1  0.44039682  0.93511611  0.69080463  1
  Zn  Zn130  1  0.94501763  0.44936555  0.18291278  1
  Zn  Zn131  1  0.94332704  0.43632719  0.68786666  1
  Zn  Zn132  1  0.93610292  0.93632377  0.19588054  1
  Zn  Zn133  1  0.92101156  0.92629728  0.70312558  1
  Zn  Zn134  1  0.06536049  0.06019212  0.31027266  1
  Zn  Zn135  1  0.04499640  0.06853774  0.83303335  1
  Zn  Zn136  1  0.05633666  0.56680362  0.30804575  1
  Zn  Zn137  1  0.06123488  0.56516725  0.81343481  1
  Zn  Zn138  1  0.56478893  0.06113765  0.31698109  1
  Zn  Zn139  1  0.55804038  0.06030062  0.80911537  1
  Zn  Zn140  1  0.55929709  0.56400872  0.31174268  1
  Zn  Zn141  1  0.56115897  0.55264899  0.80997186  1
  Zn  Zn142  1  0.43201566  0.18759377  0.43870214  1
  Zn  Zn143  1  0.42965086  0.18423018  0.93593130  1
  Zn  Zn144  1  0.43876734  0.68461389  0.43735681  1
  Zn  Zn145  1  0.43844392  0.68466235  0.94041833  1
  Zn  Zn146  1  0.93610881  0.18595311  0.44398687  1
  Zn  Zn147  1  0.94388384  0.19318542  0.95249988  1
  Zn  Zn148  1  0.93912596  0.68243630  0.44021847  1
  Zn  Zn149  1  0.93882968  0.68964803  0.93675826  1
  Zn  Zn150  1  0.06783262  0.31681119  0.06415704  1
  Zn  Zn151  1  0.05784889  0.30686369  0.55165624  1
  Zn  Zn152  1  0.06205895  0.80798462  0.05498510  1
  Zn  Zn153  1  0.06630445  0.80574748  0.55665199  1
  Zn  Zn154  1  0.56113399  0.31137684  0.06398952  1
  Zn  Zn155  1  0.55746766  0.30875101  0.56646900  1
  Zn  Zn156  1  0.60765179  0.83432183  0.01456996  1
  Zn  Zn157  1  0.57067832  0.81467734  0.56333589  1
  O  O158  1  0.11300085  0.13292208  0.11631596  1
  O  O159  1  0.11303435  0.13132820  0.61218239  1
  O  O160  1  0.13813468  0.60840150  0.11906863  1
  O  O161  1  0.11126415  0.63486259  0.62579522  1
  O  O162  1  0.61416449  0.13292881  0.11368123  1
  O  O163  1  0.60219150  0.14374073  0.61145751  1
  O  O164  1  0.61459969  0.61517087  0.11927856  1
  O  O165  1  0.61791048  0.61496722  0.62112781  1
  O  O166  1  0.37871703  0.38339831  0.37338847  1
  O  O167  1  0.37225674  0.36795372  0.87371755  1
  O  O168  1  0.38637119  0.87979393  0.36925020  1
  O  O169  1  0.39134440  0.87612151  0.86575425  1
  O  O170  1  0.87791887  0.38317008  0.37806867  1
  O  O171  1  0.88552309  0.37872661  0.88291786  1
  O  O172  1  0.89015172  0.86917624  0.37924403  1
  O  O173  1  0.86746437  0.84370568  0.91071185  1
  O  O174  1  0.25866180  0.01088157  0.38121986  1
  O  O175  1  0.20012381  -0.01410786  0.82708127  1
  O  O176  1  0.26454141  0.51271778  0.37537711  1
  O  O177  1  0.25724936  0.51620312  0.86156355  1
  O  O178  1  0.74200420  0.01922171  0.36626185  1
  O  O179  1  0.75172828  0.02435228  0.86884004  1
  O  O180  1  0.76155128  0.50639362  0.37621002  1
  O  O181  1  0.75929778  0.49798436  0.86407578  1
  O  O182  1  0.24379076  0.48676978  0.11856412  1
  O  O183  1  0.25120191  0.50402763  0.63520341  1
  O  O184  1  0.26137736  0.98059276  0.11233729  1
  O  O185  1  0.26204165  0.98032385  0.61552302  1
  O  O186  1  0.73634304  0.49351315  0.12132139  1
  O  O187  1  0.74082682  0.50710702  0.63285473  1
  O  O188  1  0.74470919  1.01582333  0.14564801  1
  O  O189  1  0.72005817  1.06791095  0.65306266  1
  O  O190  1  0.00802005  0.38013044  0.25817703  1
  O  O191  1  0.00820262  0.37977335  0.76603737  1
  O  O192  1  0.00460471  0.86851980  0.26372552  1
  O  O193  1  0.01171618  0.87899374  0.74826652  1
  O  O194  1  0.50796983  0.36454654  0.25416929  1
  O  O195  1  0.50678895  0.36647513  0.75225138  1
  O  O196  1  0.50574856  0.87487683  0.26096037  1
  O  O197  1  0.50819974  0.87053071  0.75999653  1
  O  O198  1  0.51168241  0.13571234  0.24236314  1
  O  O199  1  0.49508784  0.13079675  0.74029895  1
  O  O200  1  0.49226049  0.62661501  0.23847215  1
  O  O201  1  0.49333114  0.62042519  0.74154564  1
  O  O202  1  0.98580243  0.12141139  0.24693112  1
  O  O203  1  1.01281679  0.12680219  0.74082661  1
  O  O204  1  1.00979405  0.63466522  0.23194030  1
  O  O205  1  0.99515110  0.61726607  0.73422270  1
  O  O206  1  0.35910793  0.24251020  0.00920055  1
  O  O207  1  0.36458150  0.25120430  0.50694441  1
  O  O208  1  0.36945344  0.74393059  0.01093308  1
  O  O209  1  0.36969625  0.74238340  0.50782665  1
  O  O210  1  0.86880553  0.26286374  0.01522710  1
  O  O211  1  0.86885616  0.25977096  0.50388359  1
  O  O212  1  0.86871373  0.78658449  -0.03059571  1
  O  O213  1  0.86276879  0.74701914  0.50207298  1
  O  O214  1  0.12916886  0.24078825  0.48559994  1
  O  O215  1  0.13538867  0.24705904  0.99875528  1
  O  O216  1  0.13791279  0.74340754  0.48421470  1
  O  O217  1  0.14363098  0.74064614  1.00268535  1
  O  O218  1  0.63044803  0.24861463  0.49660294  1
  O  O219  1  0.63557277  0.24731503  1.00619941  1
  O  O220  1  0.63332112  0.74245146  0.49169529  1
  O  O221  1  0.61080749  0.72384786  0.99806143  1
  O  O222  1  0.49306759  0.24515707  0.13176403  1
  O  O223  1  0.48595160  0.24314965  0.63173899  1
  O  O224  1  0.48701796  0.73439098  0.11989243  1
  O  O225  1  0.49753955  0.73629527  0.61831190  1
  O  O226  1  0.99034991  0.24280432  0.11959356  1
  O  O227  1  0.99405441  0.24211164  0.62359524  1
  O  O228  1  1.00740207  0.73306025  0.12086701  1
  O  O229  1  0.98710748  0.73848553  0.61629128  1
  O  O230  1  0.00488380  0.25785061  0.37781657  1
  O  O231  1  0.01034434  0.25967201  0.88369731  1
  O  O232  1  0.01423871  0.74497979  0.37150185  1
  O  O233  1  -0.01071638  0.73860625  0.84958546  1
  O  O234  1  0.50233431  0.25331445  0.36942245  1
  O  O235  1  0.49469212  0.24650110  0.85915445  1
  O  O236  1  0.50785978  0.75502931  0.37602482  1
  O  O237  1  0.49658455  0.76112608  0.87910461  1
  O  O238  1  0.23762860  0.13335149  0.49352359  1
  O  O239  1  0.23708526  0.13834609  1.01274809  1
  O  O240  1  0.25352672  0.63521049  0.48648436  1
  O  O241  1  0.25955658  0.63102951  0.98267483  1
  O  O242  1  0.73797954  0.13802419  0.49193937  1
  O  O243  1  0.74245276  0.13522887  0.99328182  1
  O  O244  1  0.74442220  0.63163896  0.48604859  1
  O  O245  1  0.73666469  0.60418017  0.98175040  1
  O  O246  1  0.25148074  0.36275127  0.01282259  1
  O  O247  1  0.24733603  0.35961793  0.49879635  1
  O  O248  1  0.24883740  0.86025554  0.00103213  1
  O  O249  1  0.25265824  0.86177529  0.50309220  1
  O  O250  1  0.75578531  0.37371233  0.01177700  1
  O  O251  1  0.75864327  0.36468462  0.49497935  1
  O  O252  1  0.71171798  0.88720169  0.01640869  1
  O  O253  1  0.74204228  0.85460241  0.49423597  1
  O  O254  1  0.12993920  0.48941348  0.25814767  1
  O  O255  1  0.14060723  0.50334671  0.75172552  1
  O  O256  1  0.13246739  1.00217078  0.24695247  1
  O  O257  1  0.13614619  1.00495185  0.78243696  1
  O  O258  1  0.61265824  0.48809016  0.23950825  1
  O  O259  1  0.63141664  0.48826794  0.74252705  1
  O  O260  1  0.63302898  0.99468247  0.25333005  1
  O  O261  1  0.62355398  0.98352753  0.75899979  1
  O  O262  1  0.38197500  0.00169576  0.26129371  1
  O  O263  1  0.38213494  0.01430659  0.74613627  1
  O  O264  1  0.38187584  0.51016121  0.25696656  1
  O  O265  1  0.36701364  0.51323708  0.74275046  1
  O  O266  1  0.85810389  0.01357523  0.25068735  1
  O  O267  1  0.85094680  0.00690736  0.71692612  1
  O  O268  1  0.87157052  0.49406296  0.26061588  1
  O  O269  1  0.86676773  0.49584670  0.75725618  1
  O  O270  1  0.11334711  0.36425922  0.36765699  1
  O  O271  1  0.11526100  0.36184859  0.88273218  1
  O  O272  1  0.11829227  0.86358564  0.37580403  1
  O  O273  1  0.10303704  0.85346623  0.88841935  1
  O  O274  1  0.61920179  0.37345078  0.36768910  1
  O  O275  1  0.62049953  0.37884628  0.86397981  1
  O  O276  1  0.61431821  0.86223470  0.36566963  1
  O  O277  1  0.60740557  0.87405262  0.87135266  1
  O  O278  1  0.38746844  0.13823916  0.12539352  1
  O  O279  1  0.38220500  0.13340220  0.62553804  1
  O  O280  1  0.37831288  0.62791239  0.13020031  1
  O  O281  1  0.38596716  0.63029644  0.63001995  1
  O  O282  1  0.87985603  0.13773471  0.13484530  1
  O  O283  1  0.89818710  0.13879141  0.61747952  1
  O  O284  1  0.89246311  0.60242444  0.13330010  1
  O  O285  1  0.88330204  0.63300935  0.62471460  1
  O  O286  1  0.25504934  0.25661671  0.12078991  1
  O  O287  1  0.25674504  0.24167950  0.61545547  1
  O  O288  1  0.26232246  0.75127927  0.11216566  1
  O  O289  1  0.26017468  0.75345298  0.61445453  1
  O  O290  1  0.75915727  0.26318956  0.12023202  1
  O  O291  1  0.76649846  0.24201207  0.61454049  1
  O  O292  1  0.75473455  0.71872567  0.09866008  1
  O  O293  1  0.75815947  0.73711210  0.60839986  1
  O  O294  1  0.24325323  0.23835047  0.38164362  1
  O  O295  1  0.23860897  0.25469894  0.89121217  1
  O  O296  1  0.24826137  0.74520824  0.37761924  1
  O  O297  1  0.25887864  0.73918945  0.88345235  1
  O  O298  1  0.74224628  0.24524486  0.38300745  1
  O  O299  1  0.76280135  0.25245430  0.89749611  1
  O  O300  1  0.74422533  0.74284718  0.37946263  1
  O  O301  1  0.74766494  0.72545061  0.87149420  1
  O  O302  1  0.00625964  0.11274084  0.01306352  1
  O  O303  1  0.01352716  0.12244266  0.49909654  1
  O  O304  1  -0.00790297  0.62779714  0.01314347  1
  O  O305  1  0.00293790  0.62047918  0.51072946  1
  O  O306  1  0.50344926  0.12302901  0.00443922  1
  O  O307  1  0.50352233  0.11868551  0.50191695  1
  O  O308  1  0.50109376  0.60904625  0.00602245  1
  O  O309  1  0.50700532  0.61647958  0.50589757  1
  O  O310  1  0.49700211  0.37923406  0.49264782  1
  O  O311  1  0.50084882  0.38531179  1.00116155  1
  O  O312  1  0.51085087  0.88501757  0.49003781  1
  O  O313  1  0.50499675  0.88950111  0.99134889  1
  O  O314  1  0.98924990  0.37690828  0.48326318  1
  O  O315  1  0.99028567  0.37331674  0.99519527  1
  O  O316  1  1.00238204  0.87056369  0.48451878  1
  O  O317  1  0.99790453  0.89432739  1.02187582  1
  O  O318  1  0.49163495  0.49581509  0.37965200  1
  O  O319  1  0.49858254  0.49695167  0.89042768  1
  O  O320  1  0.49414647  0.99362491  0.38026343  1
  O  O321  1  0.49687816  0.99697670  0.88524807  1
  O  O322  1  0.98448414  0.49459291  0.37380056  1
  O  O323  1  0.98817232  0.49475073  0.87226202  1
  O  O324  1  0.99891278  0.98836319  0.37380472  1
  O  O325  1  0.99082010  1.00014161  0.90169737  1
  O  O326  1  -0.01265942  0.01364217  0.12284578  1
  O  O327  1  0.00683323  0.01052768  0.63585652  1
  O  O328  1  0.02158868  0.51012894  0.12521184  1
  O  O329  1  -0.00362719  0.51169801  0.61873012  1
  O  O330  1  0.49968540  0.01083370  0.11463151  1
  O  O331  1  0.49274642  0.00990538  0.61363315  1
  O  O332  1  0.50366848  0.50425116  0.11723449  1
  O  O333  1  0.50734506  0.50690256  0.62035068  1
  O  O334  1  0.24082537  0.36787326  0.24091484  1
  O  O335  1  0.24388067  0.38875514  0.75361731  1
  O  O336  1  0.25250417  0.87033107  0.22964349  1
  O  O337  1  0.25558505  0.86864060  0.73188859  1
  O  O338  1  0.73776184  0.37040677  0.24174395  1
  O  O339  1  0.74158421  0.38154844  0.75305434  1
  O  O340  1  0.73985861  0.89402781  0.26094395  1
  O  O341  1  0.73532674  0.87800593  0.76409498  1
  O  O342  1  0.24526197  0.12863363  0.26606383  1
  O  O343  1  0.26163812  0.12069031  0.74115966  1
  O  O344  1  0.26175659  0.63251242  0.25721452  1
  O  O345  1  0.26126640  0.62367186  0.75647287  1
  O  O346  1  0.75266800  0.12494476  0.25905697  1
  O  O347  1  0.75345375  0.15946515  0.78364241  1
  O  O348  1  0.74227187  0.62953231  0.26084898  1
  O  O349  1  0.74803489  0.60935321  0.76012424  1
  O  O350  1  0.36022036  0.11975658  0.37786210  1
  O  O351  1  0.36880756  0.12646007  0.86040060  1
  O  O352  1  0.37158515  0.62034464  0.36570708  1
  O  O353  1  0.37899168  0.62746793  0.85839867  1
  O  O354  1  0.86368269  0.13751969  0.36748725  1
  O  O355  1  0.87451686  0.13127058  0.88609727  1
  O  O356  1  0.86930251  0.61196218  0.37493877  1
  O  O357  1  0.86173689  0.61436091  0.87525244  1
  O  O358  1  0.13067906  0.38602800  0.13372250  1
  O  O359  1  0.11715840  0.37156582  0.62001973  1
  O  O360  1  0.14183434  0.86773822  0.12163827  1
  O  O361  1  0.14232363  0.87162794  0.61714102  1
  O  O362  1  0.63170582  0.38024185  0.13131164  1
  O  O363  1  0.61939046  0.38547770  0.63093493  1
  O  O364  1  0.61263326  0.87037367  0.14186589  1
  O  O365  1  0.62229747  0.87804472  0.64080281  1
  O  O366  1  0.12661934  0.25527066  0.26154387  1
  O  O367  1  0.13542281  0.24840614  0.77169827  1
  O  O368  1  0.13307226  0.75805463  0.26222076  1
  O  O369  1  0.12648227  0.75704573  0.75706197  1
  O  O370  1  0.61706246  0.25983881  0.25491798  1
  O  O371  1  0.61463719  0.25868764  0.73694415  1
  O  O372  1  0.62281406  0.75766761  0.25739739  1
  O  O373  1  0.62366767  0.76107435  0.74753387  1
  O  O374  1  0.38655075  0.25154591  0.24562371  1
  O  O375  1  0.37929521  0.23767425  0.74013244  1
  O  O376  1  0.37920670  0.73891883  0.23607909  1
  O  O377  1  0.38119634  0.73452867  0.73724024  1
  O  O378  1  0.86818664  0.24426133  0.24185136  1
  O  O379  1  0.87714428  0.26016294  0.73253184  1
  O  O380  1  0.86594275  0.78287096  0.21489258  1
  O  O381  1  0.86223320  0.74804220  0.73091012  1
  O  O382  1  0.38050439  0.49917540  0.49059232  1
  O  O383  1  0.38281356  0.49777599  1.00412550  1
  O  O384  1  0.38869107  1.00439864  0.48732174  1
  O  O385  1  0.38992619  1.00902749  1.00000331  1
  O  O386  1  0.87211236  0.48784081  0.49350179  1
  O  O387  1  0.86631055  0.48802719  0.98838785  1
  O  O388  1  0.82974360  0.99556654  0.51263761  1
  O  O389  1  0.87004748  0.99233992  1.01111130  1
  O  O390  1  0.13552013  0.01582543  -0.00388358  1
  O  O391  1  0.13012219  0.01320133  0.49839803  1
  O  O392  1  0.12882088  0.49738195  0.00320463  1
  O  O393  1  0.12862341  0.50912181  0.48674414  1
  O  O394  1  0.61159498  0.01729702  -0.00280756  1
  O  O395  1  0.61767341  0.01576310  0.49599602  1
  O  O396  1  0.61191078  0.50210639  0.00990593  1
  O  O397  1  0.62196648  0.50212940  0.50605476  1
  O  O398  1  0.36676353  0.36115101  0.13206307  1
  O  O399  1  0.37713527  0.36154267  0.62463193  1
  O  O400  1  0.37388407  0.85980021  0.12588888  1
  O  O401  1  0.37324207  0.85982302  0.62767488  1
  O  O402  1  0.87168013  0.37651709  0.12315198  1
  O  O403  1  0.88796224  0.36366457  0.61232910  1
  O  O404  1  0.86493319  0.84869275  0.15766918  1
  O  O405  1  0.88255647  0.85538035  0.61543831  1
  O  O406  1  0.13189504  0.12892574  0.38271523  1
  O  O407  1  0.11394268  0.14129335  0.89759395  1
  O  O408  1  0.13647885  0.63700393  0.36683520  1
  O  O409  1  0.13937240  0.62582903  0.87182720  1
  O  O410  1  0.62819898  0.13464996  0.38431026  1
  O  O411  1  0.62036056  0.13097497  0.88481886  1
  O  O412  1  0.62875660  0.63256739  0.37701001  1
  O  O413  1  0.63353512  0.60999514  0.87858662  1
