# generated using pymatgen
data_V79Zn79O256
_symmetry_space_group_name_H-M   'P 1'
_cell_length_a   16.94355011
_cell_length_b   16.94888028
_cell_length_c   16.94409302
_cell_angle_alpha   89.94595968
_cell_angle_beta   90.21373590
_cell_angle_gamma   89.84364670
_symmetry_Int_Tables_number   1
_chemical_formula_structural   V79Zn79O256
_chemical_formula_sum   'V79 Zn79 O256'
_cell_volume   4865.85221212
_cell_formula_units_Z   1
loop_
 _symmetry_equiv_pos_site_id
 _symmetry_equiv_pos_as_xyz
  1  'x, y, z'
loop_
 _atom_site_type_symbol
 _atom_site_label
 _atom_site_symmetry_multiplicity
 _atom_site_fract_x
 _atom_site_fract_y
 _atom_site_fract_z
 _atom_site_occupancy
  V  V0  1  0.48615764  0.62615854  0.63016423  1
  V  V1  1  0.12540907  0.49591684  0.12693814  1
  V  V2  1  0.87361512  0.26689704  0.62603909  1
  V  V3  1  0.75417974  0.61964253  0.37424452  1
  V  V4  1  -0.00304790  0.12676906  0.63000945  1
  V  V5  1  0.49333866  0.62406035  0.12588409  1
  V  V6  1  0.00495623  0.35181133  0.87442804  1
  V  V7  1  0.12772211  0.75183331  0.37545028  1
  V  V8  1  0.25840974  0.87092852  0.12459739  1
  V  V9  1  0.62529609  0.13243013  -0.00021404  1
  V  V10  1  0.12787049  0.62785699  0.50276821  1
  V  V11  1  0.26035856  0.62385788  0.37596376  1
  V  V12  1  0.00252655  0.23684883  0.25328489  1
  V  V13  1  0.62695858  0.36703719  0.25071143  1
  V  V14  1  0.37719008  -0.00218459  0.38564072  1
  V  V15  1  0.87645477  0.61644251  0.76730601  1
  V  V16  1  0.86825665  0.86014282  0.50796165  1
  V  V17  1  0.87601755  0.37030762  -0.00182115  1
  V  V18  1  0.12999163  0.75054711  0.87567569  1
  V  V19  1  0.12163927  0.12791094  -0.00220063  1
  V  V20  1  0.24012377  0.12824756  0.37670309  1
  V  V21  1  0.12799746  0.50187731  0.63031459  1
  V  V22  1  -0.00129824  0.49861559  -0.00956155  1
  V  V23  1  0.12070617  0.00101988  0.12238882  1
  V  V24  1  0.26092627  0.75588931  0.50287429  1
  V  V25  1  -0.00817273  0.62868856  0.62494172  1
  V  V26  1  0.75301701  0.27378824  0.49870351  1
  V  V27  1  0.37471166  0.12852980  0.24889620  1
  V  V28  1  0.24946340  0.24850326  -0.00336039  1
  V  V29  1  0.00025888  -0.00033435  0.50178548  1
  V  V30  1  0.87988454  0.23591100  0.12762145  1
  V  V31  1  -0.00562038  0.75500519  0.75112714  1
  V  V32  1  0.25942738  0.50614192  0.76564498  1
  V  V33  1  0.12563648  0.36702426  0.75782928  1
  V  V34  1  0.25069763  0.12320785  0.87535989  1
  V  V35  1  0.25155054  0.36719809  0.12569221  1
  V  V36  1  0.00286396  0.74840207  0.24880841  1
  V  V37  1  0.37492924  0.37063456  0.00210016  1
  V  V38  1  0.25742441  0.00018943  0.75474549  1
  V  V39  1  0.87607914  0.00203265  0.36789171  1
  V  V40  1  0.74499556  0.12286982  0.38847475  1
  V  V41  1  0.12667093  0.87423529  0.24737034  1
  V  V42  1  0.87278234  0.12456342  0.75030064  1
  V  V43  1  0.63303371  0.75323353  0.36186449  1
  V  V44  1  0.00090460  0.87321767  0.37505004  1
  V  V45  1  0.49927391  0.37037742  0.86910277  1
  V  V46  1  0.49263964  0.13174925  0.11768688  1
  V  V47  1  0.75101215  0.87554892  0.12875255  1
  V  V48  1  0.37363449  0.14618798  0.74216256  1
  V  V49  1  0.37317057  0.37882120  0.48084504  1
  V  V50  1  0.62133133  0.49770876  0.11827473  1
  V  V51  1  0.69987613  0.64918886  0.95311157  1
  V  V52  1  0.62692535  0.62858727  0.50443441  1
  V  V53  1  0.13152161  0.62553540  -0.00412078  1
  V  V54  1  -0.00521032  0.49025395  0.48976665  1
  V  V55  1  -0.00244291  0.62210755  0.12489701  1
  V  V56  1  0.37227178  0.62995670  0.76834100  1
  V  V57  1  0.38330575  0.88896717  -0.01124523  1
  V  V58  1  0.87290127  0.74926780  0.12220270  1
  V  V59  1  0.60272955  0.75594452  0.86901680  1
  V  V60  1  0.26034803  0.74773805  0.00296514  1
  V  V61  1  0.64634811  -0.02315433  0.61309222  1
  V  V62  1  0.49591448  0.75818625  0.24208331  1
  V  V63  1  0.00034369  -0.00138530  -0.00621967  1
  V  V64  1  0.74644950  0.12870858  0.87754242  1
  V  V65  1  0.75781780  0.49640325  0.24656485  1
  V  V66  1  0.25164058  0.87637076  0.62332669  1
  V  V67  1  0.49440764  0.50094403  -0.00154525  1
  V  V68  1  0.49828642  0.38445148  0.36679660  1
  V  V69  1  0.12355224  0.87807437  0.75647250  1
  V  V70  1  0.61579129  -0.00689746  0.12265712  1
  V  V71  1  0.26554590  0.37250428  0.62914549  1
  V  V72  1  0.75164906  0.00903262  0.24554343  1
  V  V73  1  0.50123033  0.87437783  0.38418508  1
  V  V74  1  0.86701944  -0.00418521  0.87159026  1
  V  V75  1  0.87682259  0.87374806  -0.00139024  1
  V  V76  1  0.75016285  0.36488525  0.11607183  1
  V  V77  1  0.62285779  0.25091162  0.85838276  1
  V  V78  1  0.25634308  0.50010110  0.25303780  1
  Zn  Zn79  1  0.51531500  0.02744838  0.49579702  1
  Zn  Zn80  1  0.23786453  0.25715552  0.49735782  1
  Zn  Zn81  1  0.37574022  0.62654807  0.25101966  1
  Zn  Zn82  1  0.06016778  0.31403558  0.41630168  1
  Zn  Zn83  1  0.60947094  0.23729004  0.38457996  1
  Zn  Zn84  1  0.49552174  0.50685949  0.49200284  1
  Zn  Zn85  1  0.63151248  0.47565289  0.62471393  1
  Zn  Zn86  1  0.11927714  0.37042425  0.26194531  1
  Zn  Zn87  1  0.12405387  0.00476444  0.62740722  1
  Zn  Zn88  1  0.49276926  0.25216495  0.24665207  1
  Zn  Zn89  1  0.25157769  -0.00219406  0.25037154  1
  Zn  Zn90  1  0.11555329  0.13560276  0.49695149  1
  Zn  Zn91  1  0.75368691  0.48572082  0.73702650  1
  Zn  Zn92  1  0.87884887  0.61901473  0.25381946  1
  Zn  Zn93  1  0.38694730  0.76363180  0.63228886  1
  Zn  Zn94  1  0.18495771  0.18371500  0.18791265  1
  Zn  Zn95  1  0.18859999  0.18779345  0.68551419  1
  Zn  Zn96  1  0.18958287  0.68627792  0.18533306  1
  Zn  Zn97  1  0.19094573  0.69072667  0.68928757  1
  Zn  Zn98  1  0.68717234  0.18379245  0.18656978  1
  Zn  Zn99  1  0.70096757  0.19456385  0.68820857  1
  Zn  Zn100  1  0.69197523  0.67710482  0.17064573  1
  Zn  Zn101  1  0.66900585  0.64525640  0.71964072  1
  Zn  Zn102  1  0.30233059  0.31032854  0.30941042  1
  Zn  Zn103  1  0.30969076  0.31610564  0.81986299  1
  Zn  Zn104  1  0.31632124  0.81383307  0.31332714  1
  Zn  Zn105  1  0.31224911  0.81171415  0.81512374  1
  Zn  Zn106  1  0.82013566  0.30840654  0.31100602  1
  Zn  Zn107  1  0.81214560  0.31492604  0.81323208  1
  Zn  Zn108  1  0.81563705  0.81489921  0.30786925  1
  Zn  Zn109  1  0.76832948  0.81387383  0.85345428  1
  Zn  Zn110  1  0.18771756  0.44456554  0.43961724  1
  Zn  Zn111  1  0.18455308  0.43584505  0.94003822  1
  Zn  Zn112  1  0.18735313  0.94197826  0.43756511  1
  Zn  Zn113  1  0.19282089  0.93615261  0.93797425  1
  Zn  Zn114  1  0.68141551  0.44410376  0.43298657  1
  Zn  Zn115  1  0.70223705  0.43751248  0.91374143  1
  Zn  Zn116  1  0.69070344  0.93188066  0.43571352  1
  Zn  Zn117  1  0.68370387  0.93995355  0.94394019  1
  Zn  Zn118  1  0.31039807  0.05766934  0.06159531  1
  Zn  Zn119  1  0.30802359  0.06601310  0.56265322  1
  Zn  Zn120  1  0.31503380  0.55857535  0.06190982  1
  Zn  Zn121  1  0.31166029  0.55588065  0.56272879  1
  Zn  Zn122  1  0.80749582  0.05927893  0.05583627  1
  Zn  Zn123  1  0.81628982  0.05339586  0.56375585  1
  Zn  Zn124  1  0.80039648  0.54836260  0.04330548  1
  Zn  Zn125  1  0.81059079  0.55261214  0.56258891  1
  Zn  Zn126  1  0.43444011  0.43613859  0.18495339  1
  Zn  Zn127  1  0.47254677  0.41662346  0.66374994  1
  Zn  Zn128  1  0.43585726  0.93972959  0.19154522  1
  Zn  Zn129  1  0.42957186  0.96099011  0.66478812  1
  Zn  Zn130  1  0.93758547  0.42412892  0.19193417  1
  Zn  Zn131  1  0.94641840  0.44250348  0.69257292  1
  Zn  Zn132  1  0.93995357  0.93953633  0.18597785  1
  Zn  Zn133  1  0.93245559  0.93742252  0.68802780  1
  Zn  Zn134  1  0.05892613  0.06006596  0.30699055  1
  Zn  Zn135  1  0.06020525  0.06413836  0.81580213  1
  Zn  Zn136  1  0.06995850  0.56292204  0.31305554  1
  Zn  Zn137  1  0.06522715  0.56450162  0.81224940  1
  Zn  Zn138  1  0.56306288  0.05797630  0.30535233  1
  Zn  Zn139  1  0.51619252  0.11809199  0.65163744  1
  Zn  Zn140  1  0.56872706  0.56538353  0.30421347  1
  Zn  Zn141  1  0.56276085  0.55643280  0.81643728  1
  Zn  Zn142  1  0.42227484  0.20006641  0.43054039  1
  Zn  Zn143  1  0.43513361  0.18639580  0.93266802  1
  Zn  Zn144  1  0.44431414  0.69509500  0.43683905  1
  Zn  Zn145  1  0.44708680  0.69312370  0.94109147  1
  Zn  Zn146  1  0.92735940  0.18648641  0.43950464  1
  Zn  Zn147  1  0.93561840  0.18352511  0.94272524  1
  Zn  Zn148  1  0.93995868  0.68220458  0.43734434  1
  Zn  Zn149  1  0.94364678  0.69194359  0.93709711  1
  Zn  Zn150  1  0.06088777  0.30784420  0.06780087  1
  Zn  Zn151  1  0.06396240  0.31210592  0.58106494  1
  Zn  Zn152  1  0.06274789  0.81395464  0.06106571  1
  Zn  Zn153  1  0.06289785  0.81414115  0.56675291  1
  Zn  Zn154  1  0.56206985  0.31166823  0.06039660  1
  Zn  Zn155  1  0.55977208  0.29915765  0.55451253  1
  Zn  Zn156  1  0.56722161  0.80496586  0.05307405  1
  Zn  Zn157  1  0.57251008  0.80341026  0.56249712  1
  O  O158  1  0.13600672  0.10915129  0.11155228  1
  O  O159  1  0.10977782  0.12694247  0.62560015  1
  O  O160  1  0.11637663  0.61774406  0.11814036  1
  O  O161  1  0.12450882  0.61945981  0.62017403  1
  O  O162  1  0.61434533  0.11784440  0.11979121  1
  O  O163  1  0.63614760  0.10246218  0.64859945  1
  O  O164  1  0.60617393  0.60618806  0.13699760  1
  O  O165  1  0.62814805  0.64121194  0.60551071  1
  O  O166  1  0.37483881  0.37856185  0.37587444  1
  O  O167  1  0.38781374  0.36602994  0.89004588  1
  O  O168  1  0.38681440  0.88763840  0.36776420  1
  O  O169  1  0.37066326  0.87294111  0.88934191  1
  O  O170  1  0.88190964  0.37932749  0.36862325  1
  O  O171  1  0.89585063  0.36313459  0.88550458  1
  O  O172  1  0.88335000  0.88135794  0.37905494  1
  O  O173  1  0.85719670  0.88120298  0.88798113  1
  O  O174  1  0.25900103  0.00699804  0.37388126  1
  O  O175  1  0.24531643  0.01007105  0.86649768  1
  O  O176  1  0.24341032  0.51412019  0.36505051  1
  O  O177  1  0.24681728  0.49580431  0.86443949  1
  O  O178  1  0.75472568  0.00544796  0.36606766  1
  O  O179  1  0.75945440  0.01074411  0.88169044  1
  O  O180  1  0.74380896  0.51241146  0.36087018  1
  O  O181  1  0.73283168  0.54924908  0.93452721  1
  O  O182  1  0.24192597  0.49322601  0.13020401  1
  O  O183  1  0.24324129  0.49307377  0.63572979  1
  O  O184  1  0.23885513  0.98835048  0.12477750  1
  O  O185  1  0.24350098  0.99347127  0.63278032  1
  O  O186  1  0.73994173  0.48546178  0.12836556  1
  O  O187  1  0.74496308  0.48978887  0.62409154  1
  O  O188  1  0.74424036  0.99691416  0.12989671  1
  O  O189  1  0.74758057  0.98021436  0.61451464  1
  O  O190  1  0.00403863  0.35697522  0.24974409  1
  O  O191  1  0.00935865  0.37920827  0.76822854  1
  O  O192  1  0.00707744  0.86858439  0.25447162  1
  O  O193  1  0.00857418  0.86242743  0.74273986  1
  O  O194  1  0.50747955  0.37412926  0.24967133  1
  O  O195  1  0.48801147  0.38158270  0.77266084  1
  O  O196  1  0.50123660  0.86247213  0.25276993  1
  O  O197  1  0.51770837  0.92222486  0.78113965  1
  O  O198  1  0.49341037  0.12601754  0.23923394  1
  O  O199  1  0.47306415  0.13125026  0.75522532  1
  O  O200  1  0.49513710  0.63275899  0.24569025  1
  O  O201  1  0.48155116  0.61808496  0.74002986  1
  O  O202  1  0.99931981  0.13534004  0.24737571  1
  O  O203  1  0.98740806  0.12187931  0.74281728  1
  O  O204  1  1.00169166  0.62745431  0.24103936  1
  O  O205  1  0.99737916  0.63103148  0.74338839  1
  O  O206  1  0.36179633  0.25620702  0.00053739  1
  O  O207  1  0.35841387  0.27389538  0.49412414  1
  O  O208  1  0.36202720  0.74996627  -0.00200100  1
  O  O209  1  0.36306853  0.74981656  0.50301736  1
  O  O210  1  0.88371142  0.26074420  0.01204189  1
  O  O211  1  0.86334051  0.24738666  0.51428894  1
  O  O212  1  0.88617175  0.75874443  0.01280960  1
  O  O213  1  0.88785413  0.76151208  0.49716079  1
  O  O214  1  0.12065045  0.25169105  0.50088671  1
  O  O215  1  0.13257409  0.23636808  1.00997849  1
  O  O216  1  0.13238187  0.74199887  0.49736611  1
  O  O217  1  0.12844998  0.74386046  0.99420492  1
  O  O218  1  0.64901609  0.25597535  0.49411085  1
  O  O219  1  0.62313302  0.23600394  1.00078398  1
  O  O220  1  0.62347506  0.73613023  0.47824071  1
  O  O221  1  0.62736389  0.73843662  0.98283384  1
  O  O222  1  0.50018982  0.23477303  0.12708048  1
  O  O223  1  0.50498488  0.19620971  0.56615567  1
  O  O224  1  0.51154307  0.74057799  0.13702355  1
  O  O225  1  0.49954874  0.73282834  0.62022850  1
  O  O226  1  0.98682957  0.24806140  0.13176182  1
  O  O227  1  0.98190689  0.23918149  0.62029175  1
  O  O228  1  0.99715130  0.74158336  0.12916904  1
  O  O229  1  1.01426421  0.73910206  0.64115936  1
  O  O230  1  -0.00991024  0.24265038  0.36218267  1
  O  O231  1  0.00696402  0.25322234  0.87819506  1
  O  O232  1  0.00870607  0.75154401  0.36823654  1
  O  O233  1  0.01600731  0.74622811  0.86130733  1
  O  O234  1  0.49731394  0.26657561  0.36631240  1
  O  O235  1  0.51024968  0.25757590  0.87927139  1
  O  O236  1  0.50898466  0.75545225  0.36126029  1
  O  O237  1  0.50315873  0.76637947  0.87298967  1
  O  O238  1  0.24386377  0.12688292  0.48717188  1
  O  O239  1  0.24578225  0.12977427  0.99422643  1
  O  O240  1  0.24452384  0.63191825  0.49702855  1
  O  O241  1  0.23892553  0.63200963  1.01249286  1
  O  O242  1  0.74968411  0.11702291  0.48851201  1
  O  O243  1  0.74074400  0.12459201  0.98777486  1
  O  O244  1  0.74134341  0.61803824  0.48232088  1
  O  O245  1  0.73280323  0.64215622  1.05381664  1
  O  O246  1  0.25437131  0.36832978  0.00495435  1
  O  O247  1  0.25933354  0.38626121  0.51587605  1
  O  O248  1  0.25927482  0.86726368  0.00627993  1
  O  O249  1  0.23920254  0.86755601  0.51101265  1
  O  O250  1  0.76258351  0.38157293  0.00655482  1
  O  O251  1  0.75708180  0.37148192  0.48438067  1
  O  O252  1  0.76513722  0.88414130  0.01779885  1
  O  O253  1  0.76938584  0.86846241  0.48900254  1
  O  O254  1  0.13465417  0.50087544  0.23866086  1
  O  O255  1  0.13463947  0.49766613  0.74568769  1
  O  O256  1  0.12412778  0.99182484  0.23868790  1
  O  O257  1  0.12896107  0.99174577  0.75172639  1
  O  O258  1  0.63329177  0.48589191  0.23991586  1
  O  O259  1  0.63909770  0.53371429  0.73667878  1
  O  O260  1  0.63533419  1.00269574  0.23114247  1
  O  O261  1  0.63571239  1.03793203  0.70645806  1
  O  O262  1  0.37479412  0.01108655  0.26096843  1
  O  O263  1  0.35929045  0.00655575  0.74693745  1
  O  O264  1  0.35925287  0.50086335  0.24538842  1
  O  O265  1  0.36154632  0.51261097  0.75233219  1
  O  O266  1  0.87043788  -0.00457804  0.25933093  1
  O  O267  1  0.87924885  0.00649581  0.76345507  1
  O  O268  1  0.86195880  0.49981897  0.23615119  1
  O  O269  1  0.87779524  0.51398042  0.74674831  1
  O  O270  1  0.14648956  0.36837664  0.37194471  1
  O  O271  1  0.11390226  0.37541520  0.87300237  1
  O  O272  1  0.12145239  0.87097577  0.36857836  1
  O  O273  1  0.12947646  0.86742792  0.86542588  1
  O  O274  1  0.61657588  0.37316022  0.36447177  1
  O  O275  1  0.61177754  0.35787938  0.88561455  1
  O  O276  1  0.62176318  0.85878569  0.37264544  1
  O  O277  1  0.65817128  0.85152491  0.87614660  1
  O  O278  1  0.38741144  0.11356531  0.13086381  1
  O  O279  1  0.36194507  0.12672721  0.64113624  1
  O  O280  1  0.38791019  0.61931324  0.12874536  1
  O  O281  1  0.38235161  0.62641928  0.62350360  1
  O  O282  1  0.86687994  0.13823522  0.11326239  1
  O  O283  1  0.87857300  0.12312902  0.63465454  1
  O  O284  1  0.88932519  0.63144054  0.12182884  1
  O  O285  1  0.89095019  0.62318700  0.62363689  1
  O  O286  1  0.24275013  0.26089637  0.11766036  1
  O  O287  1  0.24394569  0.27207290  0.62396594  1
  O  O288  1  0.24184171  0.76034034  0.11502791  1
  O  O289  1  0.25031342  0.75929767  0.61741123  1
  O  O290  1  0.75913042  0.25875898  0.13010866  1
  O  O291  1  0.75898687  0.25708547  0.61131753  1
  O  O292  1  0.76378837  0.76399334  0.14042514  1
  O  O293  1  0.75275139  0.79807822  0.67672179  1
  O  O294  1  0.25041615  0.23095367  0.37364144  1
  O  O295  1  0.24477288  0.24457961  0.88927603  1
  O  O296  1  0.24648986  0.74651009  0.38326626  1
  O  O297  1  0.23788671  0.75132691  0.88752968  1
  O  O298  1  0.76110492  0.23403861  0.38645589  1
  O  O299  1  0.73484387  0.24221722  0.87104752  1
  O  O300  1  0.73920226  0.73865044  0.35733939  1
  O  O301  1  0.76115391  0.71018731  0.90081793  1
  O  O302  1  0.01082146  0.11294353  -0.00351054  1
  O  O303  1  -0.00624556  0.11570570  0.50926329  1
  O  O304  1  0.00928148  0.61820262  0.00801557  1
  O  O305  1  0.01357983  0.62095204  0.50678475  1
  O  O306  1  0.50202817  0.12654201  0.01225430  1
  O  O307  1  0.50997145  0.15136667  0.49114811  1
  O  O308  1  0.49157446  0.61083122  0.00951943  1
  O  O309  1  0.50949759  0.62674565  0.50368022  1
  O  O310  1  0.48367225  0.37367530  0.48501954  1
  O  O311  1  0.48945003  0.37872616  1.00121041  1
  O  O312  1  0.50349134  0.86218827  0.48316527  1
  O  O313  1  0.47976001  0.86570377  1.01109066  1
  O  O314  1  1.01352197  0.38853493  0.50317748  1
  O  O315  1  1.00076155  0.37828389  0.99092851  1
  O  O316  1  0.99972155  0.88162084  0.49351020  1
  O  O317  1  0.98831597  0.88368326  1.00234779  1
  O  O318  1  0.50525486  0.48878282  0.36940206  1
  O  O319  1  0.51084869  0.48294008  0.88939772  1
  O  O320  1  0.49942060  0.99346393  0.37943317  1
  O  O321  1  0.51821826  0.95954963  0.84352297  1
  O  O322  1  1.01191872  0.50694229  0.39162027  1
  O  O323  1  1.00785701  0.49883368  0.88939659  1
  O  O324  1  0.99373937  0.99510407  0.37983477  1
  O  O325  1  0.98657722  1.00171200  0.88517667  1
  O  O326  1  0.01160995  -0.00599371  0.11280851  1
  O  O327  1  -0.00114615  0.00859985  0.61829394  1
  O  O328  1  0.00924263  0.50419630  0.11916716  1
  O  O329  1  0.01372013  0.50865702  0.61970147  1
  O  O330  1  0.51279762  0.00550284  0.13040635  1
  O  O331  1  0.51188725  0.00874821  0.61097336  1
  O  O332  1  0.50255130  0.50233132  0.11938818  1
  O  O333  1  0.50648190  0.52229737  0.61707912  1
  O  O334  1  0.24636620  0.38211121  0.23911847  1
  O  O335  1  0.24794165  0.38797749  0.74518660  1
  O  O336  1  0.24465305  0.87375636  0.24207417  1
  O  O337  1  0.24233528  0.88219251  0.74643051  1
  O  O338  1  0.74408663  0.37765639  0.24123734  1
  O  O339  1  0.74958394  0.40705561  0.81408383  1
  O  O340  1  0.75620247  0.89013723  0.23790371  1
  O  O341  1  0.76646648  0.84660582  0.73005973  1
  O  O342  1  0.25533757  0.12009404  0.25773422  1
  O  O343  1  0.24803544  0.11913816  0.75748048  1
  O  O344  1  0.25169417  0.62029757  0.25762024  1
  O  O345  1  0.25753871  0.61514587  0.74955106  1
  O  O346  1  0.75111662  0.11389141  0.25546218  1
  O  O347  1  0.76386111  0.12731990  0.76304649  1
  O  O348  1  0.75053042  0.61330084  0.25359807  1
  O  O349  1  0.78002914  0.63617675  0.74624992  1
  O  O350  1  0.36569731  0.11735663  0.36799436  1
  O  O351  1  0.35721442  0.13283971  0.86458182  1
  O  O352  1  0.36287930  0.63183578  0.37796378  1
  O  O353  1  0.38200045  0.62938551  0.86612146  1
  O  O354  1  0.86207002  0.10897878  0.37983221  1
  O  O355  1  0.86785775  0.12061293  0.87172468  1
  O  O356  1  0.85854236  0.63131777  0.37201274  1
  O  O357  1  0.89017718  0.62076415  0.86660568  1
  O  O358  1  0.13326645  0.38565864  0.11994536  1
  O  O359  1  0.13130204  0.38773185  0.63847816  1
  O  O360  1  0.13261360  0.88115324  0.12724253  1
  O  O361  1  0.13396262  0.87628060  0.63870702  1
  O  O362  1  0.63112582  0.37535819  0.13073304  1
  O  O363  1  0.57412585  0.37715766  0.62989302  1
  O  O364  1  0.63328342  0.88763150  0.11272105  1
  O  O365  1  0.62164600  0.87972892  0.62919257  1
  O  O366  1  0.10833388  0.24837218  0.24095217  1
  O  O367  1  0.13289576  0.26849531  0.74723697  1
  O  O368  1  0.12199796  0.75400334  0.25457846  1
  O  O369  1  0.12618108  0.75692072  0.75924332  1
  O  O370  1  0.62602215  0.25995927  0.25178439  1
  O  O371  1  0.62274456  0.24702855  0.75908522  1
  O  O372  1  0.61436504  0.74059744  0.25776550  1
  O  O373  1  0.62789754  0.73767052  0.77151570  1
  O  O374  1  0.37130666  0.23352274  0.25235087  1
  O  O375  1  0.36065565  0.24584859  0.74781994  1
  O  O376  1  0.39149689  0.74849322  0.25220313  1
  O  O377  1  0.36147813  0.73334657  0.74594154  1
  O  O378  1  0.88233022  0.24732902  0.23445111  1
  O  O379  1  0.86320903  0.24281536  0.73431277  1
  O  O380  1  0.88557223  0.74696093  0.23873204  1
  O  O381  1  0.89637782  0.74224491  0.75613304  1
  O  O382  1  0.37755000  0.48476131  0.50244421  1
  O  O383  1  0.38264129  0.48597722  1.00224020  1
  O  O384  1  0.38081093  1.01074606  0.48805461  1
  O  O385  1  0.37392904  0.98910394  0.99730270  1
  O  O386  1  0.89721362  0.50580515  0.50334970  1
  O  O387  1  0.88930386  0.48398229  1.00942354  1
  O  O388  1  0.88609003  0.98924564  0.48919845  1
  O  O389  1  0.88246333  0.99422647  0.99387453  1
  O  O390  1  0.11842253  0.00207205  0.00252362  1
  O  O391  1  0.10970025  0.00379159  0.50118713  1
  O  O392  1  0.12085536  0.50729712  0.00869856  1
  O  O393  1  0.12536563  0.51240461  0.51202624  1
  O  O394  1  0.62842538  0.01361867  0.01410079  1
  O  O395  1  0.62811646  -0.00621608  0.50749065  1
  O  O396  1  0.60968644  0.48586576  0.01514411  1
  O  O397  1  0.61978627  0.51697509  0.49795524  1
  O  O398  1  0.36158663  0.37640778  0.11652231  1
  O  O399  1  0.36672857  0.37994302  0.62820109  1
  O  O400  1  0.36181318  0.88257168  0.12090248  1
  O  O401  1  0.35858226  0.87686549  0.63426399  1
  O  O402  1  0.86715834  0.36444232  0.11721697  1
  O  O403  1  0.88444554  0.36463685  0.63268840  1
  O  O404  1  0.87244332  0.86832686  0.12008052  1
  O  O405  1  0.88276531  0.87708100  0.60699696  1
  O  O406  1  0.13793130  0.11496439  0.37251158  1
  O  O407  1  0.13422088  0.12065241  0.88749066  1
  O  O408  1  0.13610953  0.63272393  0.38511929  1
  O  O409  1  0.12280324  0.63199314  0.88879145  1
  O  O410  1  0.64046312  0.12399491  0.36755181  1
  O  O411  1  0.62995100  0.13843793  0.88242921  1
  O  O412  1  0.63417284  0.63252962  0.37650748  1
  O  O413  1  0.61218780  0.63848195  0.88491098  1
