# generated using pymatgen
data_V79Zn79O256
_symmetry_space_group_name_H-M   'P 1'
_cell_length_a   16.91609926
_cell_length_b   16.91540862
_cell_length_c   16.86921024
_cell_angle_alpha   90.08215121
_cell_angle_beta   90.06103979
_cell_angle_gamma   90.19142339
_symmetry_Int_Tables_number   1
_chemical_formula_structural   V79Zn79O256
_chemical_formula_sum   'V79 Zn79 O256'
_cell_volume   4826.96722618
_cell_formula_units_Z   1
loop_
 _symmetry_equiv_pos_site_id
 _symmetry_equiv_pos_as_xyz
  1  'x, y, z'
loop_
 _atom_site_type_symbol
 _atom_site_label
 _atom_site_symmetry_multiplicity
 _atom_site_fract_x
 _atom_site_fract_y
 _atom_site_fract_z
 _atom_site_occupancy
  V  V0  1  0.37767542  0.25320701  0.61917548  1
  V  V1  1  0.24068628  -0.00219888  0.24226549  1
  V  V2  1  0.49610005  0.63697862  0.12869148  1
  V  V3  1  -0.00236637  0.13296130  0.13854722  1
  V  V4  1  0.87658463  0.12653151  0.75072853  1
  V  V5  1  0.25505574  0.75145089  0.49973622  1
  V  V6  1  0.38502341  0.12146629  0.24967152  1
  V  V7  1  0.73939042  0.74286945  0.49545238  1
  V  V8  1  0.12755370  0.62590245  0.49984128  1
  V  V9  1  0.44593875  0.48083241  0.46934760  1
  V  V10  1  0.25178207  0.37984258  0.12749131  1
  V  V11  1  0.00398196  0.87330514  0.87613871  1
  V  V12  1  0.74098750  0.62228332  0.37029949  1
  V  V13  1  0.13371100  0.24998640  0.88042078  1
  V  V14  1  0.87063993  0.62344281  0.75570608  1
  V  V15  1  0.24981173  0.50075513  0.75152449  1
  V  V16  1  0.24564322  0.88061701  0.62470613  1
  V  V17  1  0.12565800  0.38288274  0.25275568  1
  V  V18  1  0.00712278  0.75270488  0.75356102  1
  V  V19  1  0.24291130  0.64173699  0.88223375  1
  V  V20  1  0.25117651  0.62015775  0.35144438  1
  V  V21  1  0.63595323  -0.00225765  0.12033771  1
  V  V22  1  0.64236118  0.64089319  -0.01287143  1
  V  V23  1  0.00180837  0.62132439  0.62282082  1
  V  V24  1  0.87721901  0.25019751  0.62570492  1
  V  V25  1  0.36965872  0.86500154  -0.00477858  1
  V  V26  1  0.74293631  -0.00262726  0.74838027  1
  V  V27  1  0.88554326  0.87597304  0.48768439  1
  V  V28  1  0.12161252  0.24680504  0.36982241  1
  V  V29  1  0.61555893  0.25780281  0.37142017  1
  V  V30  1  0.36958862  0.37035446  -0.00075190  1
  V  V31  1  0.00562476  0.11154859  0.62395374  1
  V  V32  1  0.12173553  0.37454673  0.75598138  1
  V  V33  1  0.00342192  0.00446877  0.00603522  1
  V  V34  1  0.51211564  0.87585501  0.87382946  1
  V  V35  1  0.25505227  0.11786257  0.87818048  1
  V  V36  1  0.74657168  0.00695765  0.27137104  1
  V  V37  1  0.86014229  0.87959214  0.01440177  1
  V  V38  1  0.00214000  0.25064160  0.75686232  1
  V  V39  1  0.50986417  0.75249946  0.75460371  1
  V  V40  1  0.25184874  0.24920513  0.49847811  1
  V  V41  1  0.61683123  0.51098343  0.61669156  1
  V  V42  1  0.23458170  0.87187614  0.11920728  1
  V  V43  1  0.38301023  0.75364532  0.62352530  1
  V  V44  1  0.74281551  0.87487041  0.62516911  1
  V  V45  1  0.89216737  0.62164096  0.25551950  1
  V  V46  1  0.74822198  0.24481834  0.49442383  1
  V  V47  1  0.63162211  0.49941465  0.13888205  1
  V  V48  1  0.11807694  0.76191644  0.36823633  1
  V  V49  1  0.88516424  0.01865022  0.38001257  1
  V  V50  1  0.38224642  -0.01677855  0.37196925  1
  V  V51  1  0.87672418  0.49882031  0.37777461  1
  V  V52  1  0.49330262  0.00440620  0.00259926  1
  V  V53  1  0.62733724  0.37713541  0.75176534  1
  V  V54  1  0.50712761  0.50515268  -0.00188484  1
  V  V55  1  0.49961656  -0.01884669  0.49422797  1
  V  V56  1  0.11965140  0.11536548  0.50264414  1
  V  V57  1  0.62222957  0.86308680  0.25831293  1
  V  V58  1  0.37326499  0.50080185  0.87706293  1
  V  V59  1  0.50327931  0.12547934  0.61668906  1
  V  V60  1  0.50271217  0.24870436  0.74875851  1
  V  V61  1  0.12489106  0.49846059  0.61877082  1
  V  V62  1  0.88676833  0.49477571  0.88082671  1
  V  V63  1  0.74969783  0.37785473  0.62721047  1
  V  V64  1  0.25407211  0.37404409  0.62438020  1
  V  V65  1  0.87823272  0.75078369  0.62252970  1
  V  V66  1  0.10789661  0.50511712  0.11828174  1
  V  V67  1  0.74732008  0.12721522  0.88273714  1
  V  V68  1  0.37517430  0.11594720  0.75205210  1
  V  V69  1  0.86992052  0.73580136  0.12813303  1
  V  V70  1  0.74904788  0.25737500  0.00723585  1
  V  V71  1  0.62606578  0.24899571  0.88110232  1
  V  V72  1  0.37659454  0.62868012  0.74827580  1
  V  V73  1  0.89204149  0.37376006  0.00260169  1
  V  V74  1  0.50177026  0.26732845  0.24701439  1
  V  V75  1  0.00541218  0.37851545  0.37884843  1
  V  V76  1  0.13001379  0.12417321  0.00540649  1
  V  V77  1  0.87453204  -0.00015971  0.87687400  1
  V  V78  1  0.88199723  0.37883365  0.50359057  1
  Zn  Zn79  1  -0.00862773  0.78132349  0.26107216  1
  Zn  Zn80  1  0.87435301  0.25050734  0.14410210  1
  Zn  Zn81  1  0.50071957  0.37470746  0.87687356  1
  Zn  Zn82  1  0.48112217  0.75120430  0.27861015  1
  Zn  Zn83  1  0.11987289  0.88472478  0.74520632  1
  Zn  Zn84  1  0.36611778  0.24205524  0.11876502  1
  Zn  Zn85  1  0.24240064  0.00269086  0.74493025  1
  Zn  Zn86  1  0.62085979  -0.00481883  0.62529381  1
  Zn  Zn87  1  0.25239593  0.12159000  0.37268935  1
  Zn  Zn88  1  0.74887323  0.37935825  0.14294177  1
  Zn  Zn89  1  0.36233921  0.74294456  0.12777717  1
  Zn  Zn90  1  0.63211975  0.11748040  0.49305629  1
  Zn  Zn91  1  0.12536497  0.61922143  -0.00162655  1
  Zn  Zn92  1  0.74664854  0.51043807  0.76087824  1
  Zn  Zn93  1  0.50512649  0.12863976  0.11955563  1
  Zn  Zn94  1  0.19143301  0.18712611  0.18527981  1
  Zn  Zn95  1  0.18850265  0.18432106  0.68860699  1
  Zn  Zn96  1  0.17572881  0.69127257  0.18251133  1
  Zn  Zn97  1  0.19168331  0.69020726  0.68998410  1
  Zn  Zn98  1  0.68410874  0.18231097  0.18926779  1
  Zn  Zn99  1  0.68837952  0.18665347  0.68761608  1
  Zn  Zn100  1  0.68995286  0.68093432  0.18302738  1
  Zn  Zn101  1  0.68764940  0.69195990  0.68490438  1
  Zn  Zn102  1  0.30943259  0.30941229  0.30246262  1
  Zn  Zn103  1  0.31316428  0.30838521  0.81020153  1
  Zn  Zn104  1  0.30277069  0.80817201  0.30474037  1
  Zn  Zn105  1  0.31498460  0.81910549  0.81077439  1
  Zn  Zn106  1  0.80774900  0.31404810  0.31351883  1
  Zn  Zn107  1  0.81455966  0.31639349  0.81763921  1
  Zn  Zn108  1  0.80142497  0.81110995  0.30581462  1
  Zn  Zn109  1  0.80486616  0.81426711  0.81279301  1
  Zn  Zn110  1  0.22732464  0.44781618  0.44254113  1
  Zn  Zn111  1  0.18590156  0.43979364  0.94163015  1
  Zn  Zn112  1  0.20128895  0.93715535  0.43935892  1
  Zn  Zn113  1  0.18711999  0.94029115  0.93674506  1
  Zn  Zn114  1  0.68687373  0.43982153  0.43546886  1
  Zn  Zn115  1  0.69683002  0.44254440  0.93996576  1
  Zn  Zn116  1  0.68920875  0.93078307  0.43953097  1
  Zn  Zn117  1  0.68309322  0.93902590  0.93623861  1
  Zn  Zn118  1  0.31501011  0.05840897  0.06312891  1
  Zn  Zn119  1  0.31890176  0.06382863  0.55669695  1
  Zn  Zn120  1  0.30817262  0.56063013  0.06462894  1
  Zn  Zn121  1  0.32393644  0.56384233  0.55607160  1
  Zn  Zn122  1  0.81383761  0.06744575  0.06825004  1
  Zn  Zn123  1  0.81904539  0.06132725  0.56215336  1
  Zn  Zn124  1  0.81425328  0.55742900  0.06090673  1
  Zn  Zn125  1  0.80817839  0.56056694  0.56400295  1
  Zn  Zn126  1  0.44114391  0.44550195  0.18155119  1
  Zn  Zn127  1  0.44027377  0.43773190  0.68914846  1
  Zn  Zn128  1  0.43911681  0.92355612  0.18474921  1
  Zn  Zn129  1  0.43820025  0.93325448  0.68362363  1
  Zn  Zn130  1  0.93463009  0.43030456  0.19404630  1
  Zn  Zn131  1  0.93961713  0.43948958  0.69134481  1
  Zn  Zn132  1  0.93082234  0.95231522  0.19223255  1
  Zn  Zn133  1  0.92984049  0.93419274  0.68847473  1
  Zn  Zn134  1  0.06412900  -0.05402188  0.31959572  1
  Zn  Zn135  1  0.06617363  0.06198639  0.81439565  1
  Zn  Zn136  1  0.07106060  0.55792080  0.31870673  1
  Zn  Zn137  1  0.05967019  0.56274502  0.81344585  1
  Zn  Zn138  1  0.56971260  0.06669324  0.31363105  1
  Zn  Zn139  1  0.56030232  0.06285803  0.81519098  1
  Zn  Zn140  1  0.55120539  0.57104774  0.31731753  1
  Zn  Zn141  1  0.56463254  0.56658965  0.81134802  1
  Zn  Zn142  1  0.43987255  0.18531805  0.43102343  1
  Zn  Zn143  1  0.43863578  0.18733264  0.93569488  1
  Zn  Zn144  1  0.43508893  0.66079707  0.44548560  1
  Zn  Zn145  1  0.44041464  0.68864484  0.93780940  1
  Zn  Zn146  1  0.94319769  0.18323514  0.31567753  1
  Zn  Zn147  1  0.93868428  0.18992037  0.94235309  1
  Zn  Zn148  1  0.93938489  0.68832135  0.43904239  1
  Zn  Zn149  1  0.89790920  0.70488610  0.92685242  1
  Zn  Zn150  1  0.06936158  0.30724888  0.06811602  1
  Zn  Zn151  1  0.06460516  0.30508738  0.56357035  1
  Zn  Zn152  1  0.04148943  0.81604277  0.07157643  1
  Zn  Zn153  1  0.06470087  0.81367668  0.55864957  1
  Zn  Zn154  1  0.56117743  0.31924923  0.06404536  1
  Zn  Zn155  1  0.56095366  0.32520478  0.55503842  1
  Zn  Zn156  1  0.57206821  0.81824335  0.06288257  1
  Zn  Zn157  1  0.55938497  0.79862845  0.43599550  1
  O  O158  1  0.11683699  0.13251902  0.11347420  1
  O  O159  1  0.12112776  0.12951337  0.61326839  1
  O  O160  1  0.12416863  0.60967250  0.12180125  1
  O  O161  1  0.12173716  0.61890070  0.62203253  1
  O  O162  1  0.61729371  0.10352882  0.13359624  1
  O  O163  1  0.61338483  0.12173060  0.62416487  1
  O  O164  1  0.61734157  0.61752123  0.11253534  1
  O  O165  1  0.63475829  0.60922876  0.62934513  1
  O  O166  1  0.36807378  0.41414870  0.32916892  1
  O  O167  1  0.37407605  0.38305529  0.87932146  1
  O  O168  1  0.37439910  0.88496761  0.36934935  1
  O  O169  1  0.37872906  0.87504127  0.88909332  1
  O  O170  1  0.88443276  0.38158639  0.38491332  1
  O  O171  1  0.87868682  0.37920531  0.88971551  1
  O  O172  1  0.87266262  0.86794775  0.38685516  1
  O  O173  1  0.88031678  0.88982915  0.88233758  1
  O  O174  1  0.26742926  -0.00099724  0.36352344  1
  O  O175  1  0.24939773  0.01427421  0.87138940  1
  O  O176  1  0.22134128  0.52177147  0.36119606  1
  O  O177  1  0.25995254  0.50317718  0.87107883  1
  O  O178  1  0.75107487  0.00625735  0.37575190  1
  O  O179  1  0.75419972  0.00830639  0.87032517  1
  O  O180  1  0.76515123  0.51256077  0.38671437  1
  O  O181  1  0.77303559  0.49189281  0.87179144  1
  O  O182  1  0.23879602  0.48668493  0.12171181  1
  O  O183  1  0.24568481  0.49224139  0.63152060  1
  O  O184  1  0.25058261  0.99256228  0.13472921  1
  O  O185  1  0.26351980  0.98235809  0.61714508  1
  O  O186  1  0.73513377  0.50417877  0.12550283  1
  O  O187  1  0.74363611  0.48888144  0.63111999  1
  O  O188  1  0.73883594  1.00361642  0.12799498  1
  O  O189  1  0.75324788  0.99393391  0.63252187  1
  O  O190  1  0.01151136  0.37451258  0.26578980  1
  O  O191  1  0.01236899  0.36376116  0.74234061  1
  O  O192  1  0.00752332  0.89049804  0.24207723  1
  O  O193  1  -0.00317276  0.86976344  0.75693311  1
  O  O194  1  0.49896608  0.36538397  0.24357085  1
  O  O195  1  0.51081857  0.36713837  0.75299292  1
  O  O196  1  0.51488631  0.86771733  0.25153905  1
  O  O197  1  0.49325740  0.86744094  0.76309920  1
  O  O198  1  0.49231099  0.12877968  0.24933224  1
  O  O199  1  0.49505824  0.12849746  0.74162106  1
  O  O200  1  0.50421641  0.63337326  0.23161514  1
  O  O201  1  0.48782892  0.64135630  0.76232653  1
  O  O202  1  1.00437015  0.11960530  0.23761307  1
  O  O203  1  0.99659791  0.13246868  0.74526810  1
  O  O204  1  0.99203763  0.62464588  0.25790112  1
  O  O205  1  0.99448274  0.63305260  0.74110528  1
  O  O206  1  0.38793881  0.26594749  0.00323674  1
  O  O207  1  0.36849369  0.24430200  0.51065684  1
  O  O208  1  0.37597638  0.76151272  0.00257996  1
  O  O209  1  0.36933708  0.73646294  0.51720572  1
  O  O210  1  0.86714872  0.26215214  -0.00112779  1
  O  O211  1  0.85941634  0.26392254  0.50885658  1
  O  O212  1  0.87568879  0.76890209  0.02367117  1
  O  O213  1  0.87322072  0.75661101  0.50812324  1
  O  O214  1  0.13476922  0.24392186  0.49276650  1
  O  O215  1  0.12161276  0.24151055  0.98785442  1
  O  O216  1  0.13432859  0.74389591  0.49392802  1
  O  O217  1  0.05761164  0.71713533  1.00036737  1
  O  O218  1  0.63496674  0.25419423  0.49715259  1
  O  O219  1  0.63187892  0.25908399  0.98952395  1
  O  O220  1  0.64162868  0.74962899  0.50495928  1
  O  O221  1  0.62781411  0.73991551  1.00148825  1
  O  O222  1  0.50340820  0.24836208  0.13733978  1
  O  O223  1  0.49540687  0.24538498  0.62638737  1
  O  O224  1  0.50305246  0.73775326  0.11456715  1
  O  O225  1  0.48416886  0.75434974  0.64123792  1
  O  O226  1  1.00120334  0.23720325  0.12706848  1
  O  O227  1  0.99692024  0.24071817  0.63608840  1
  O  O228  1  0.97319298  0.76396599  0.14511026  1
  O  O229  1  0.99523884  0.74280175  0.62931005  1
  O  O230  1  0.01764222  0.25662669  0.37670621  1
  O  O231  1  0.01190704  0.24230138  0.86299338  1
  O  O232  1  0.01423101  0.75215878  0.37891544  1
  O  O233  1  -0.01687618  0.76346870  0.86160653  1
  O  O234  1  0.50533338  0.25674368  0.36491925  1
  O  O235  1  0.51129950  0.25022646  0.86934629  1
  O  O236  1  0.50848214  0.71543439  0.38257928  1
  O  O237  1  0.49469100  0.76242092  0.86475428  1
  O  O238  1  0.24497640  0.13593869  0.50045127  1
  O  O239  1  0.24234712  0.11832087  0.99419528  1
  O  O240  1  0.23985261  0.63551772  0.50308552  1
  O  O241  1  0.24901692  0.62563878  0.98664049  1
  O  O242  1  0.74929098  0.14209227  0.51384321  1
  O  O243  1  0.75699283  0.13595605  0.98846751  1
  O  O244  1  0.75966637  0.63710862  0.49317504  1
  O  O245  1  0.74096845  0.62460406  1.00491928  1
  O  O246  1  0.26003464  0.37849635  0.00884821  1
  O  O247  1  0.23975304  0.36064103  0.51569268  1
  O  O248  1  0.26058056  0.88499809  0.00655651  1
  O  O249  1  0.25361313  0.86075628  0.50901131  1
  O  O250  1  0.75642591  0.36573656  0.00690585  1
  O  O251  1  0.75653717  0.36897650  0.51145532  1
  O  O252  1  0.76296177  0.88218544  -0.00678403  1
  O  O253  1  0.76006259  0.86062475  0.50466457  1
  O  O254  1  0.12024234  0.48971091  0.23774362  1
  O  O255  1  0.12970123  0.49239814  0.74191825  1
  O  O256  1  0.14474829  1.00870147  0.26182550  1
  O  O257  1  0.12818822  0.99827528  0.74844427  1
  O  O258  1  0.61541239  0.51079330  0.23634502  1
  O  O259  1  0.62946456  0.48985594  0.74977696  1
  O  O260  1  0.63205492  0.99188306  0.24871740  1
  O  O261  1  0.63908513  1.00498957  0.74896467  1
  O  O262  1  0.37856252  0.00277294  0.25806951  1
  O  O263  1  0.37544575  0.01379232  0.74197193  1
  O  O264  1  0.36867825  0.46953044  0.27504746  1
  O  O265  1  0.37177441  0.50756179  0.75764255  1
  O  O266  1  0.85839231  -0.00394775  0.27145359  1
  O  O267  1  0.86688975  0.00655936  0.76046727  1
  O  O268  1  0.88063927  0.51101321  0.26304499  1
  O  O269  1  0.87416556  0.50615054  0.75643033  1
  O  O270  1  0.12339715  0.36816754  0.37211912  1
  O  O271  1  0.13545434  0.36720336  0.86353719  1
  O  O272  1  0.12907983  0.86646369  0.38136430  1
  O  O273  1  0.10681494  0.87788273  0.87989263  1
  O  O274  1  0.62960713  0.35804097  0.38033346  1
  O  O275  1  0.62816652  0.36742340  0.86690922  1
  O  O276  1  0.62362100  0.86853268  0.36769342  1
  O  O277  1  0.61161141  0.87062433  0.87700950  1
  O  O278  1  0.38098323  0.12567564  0.13323255  1
  O  O279  1  0.38362216  0.13381230  0.63050528  1
  O  O280  1  0.39057022  0.62502724  0.11407034  1
  O  O281  1  0.36195832  0.63594637  0.64180334  1
  O  O282  1  0.89174900  0.13160429  0.12001509  1
  O  O283  1  0.88420639  0.13122329  0.63042341  1
  O  O284  1  0.87267082  0.62819959  0.13984961  1
  O  O285  1  0.88536401  0.62917605  0.62726979  1
  O  O286  1  0.25132707  0.26888153  0.12772537  1
  O  O287  1  0.25811459  0.25476171  0.62089909  1
  O  O288  1  0.24379705  0.76711971  0.12584758  1
  O  O289  1  0.25696313  0.75775466  0.61966423  1
  O  O290  1  0.74789729  0.24686846  0.11597112  1
  O  O291  1  0.75497859  0.25995440  0.62229750  1
  O  O292  1  0.77238159  0.75521760  0.14493391  1
  O  O293  1  0.76012741  0.75420892  0.61630258  1
  O  O294  1  0.24805412  0.25491036  0.38479195  1
  O  O295  1  0.24097240  0.23878187  0.86919634  1
  O  O296  1  0.23854614  0.74476315  0.38122260  1
  O  O297  1  0.25018809  0.74023609  0.87052086  1
  O  O298  1  0.74317432  0.25090164  0.39125250  1
  O  O299  1  0.74485972  0.24537337  0.88269432  1
  O  O300  1  0.75390225  0.73758593  0.38756986  1
  O  O301  1  0.79658708  0.73386653  0.88275216  1
  O  O302  1  0.01011060  0.12011323  0.00041940  1
  O  O303  1  0.01741072  0.12516804  0.50925311  1
  O  O304  1  -0.00521537  0.66311648  -0.00284456  1
  O  O305  1  0.01426020  0.63156015  0.51205206  1
  O  O306  1  0.49586655  0.10875195  -0.00255809  1
  O  O307  1  0.49940564  0.12238135  0.50966328  1
  O  O308  1  0.50855657  0.61846436  0.00225043  1
  O  O309  1  0.45143564  0.57308713  0.51898504  1
  O  O310  1  0.48469921  0.39532101  0.51089212  1
  O  O311  1  0.49109904  0.38889518  0.99844288  1
  O  O312  1  0.50135323  0.88287660  0.49731890  1
  O  O313  1  0.49232929  0.87828560  0.98958696  1
  O  O314  1  0.99214756  0.36538476  0.49453522  1
  O  O315  1  0.99021538  0.36606719  1.00524599  1
  O  O316  1  0.98466317  0.87331427  0.50408090  1
  O  O317  1  0.98605503  0.88712182  0.99480136  1
  O  O318  1  0.49035887  0.50098381  0.38038728  1
  O  O319  1  0.48819774  0.50177145  0.87957932  1
  O  O320  1  0.49357680  1.00199033  0.38433703  1
  O  O321  1  0.50784647  0.98812804  0.88678550  1
  O  O322  1  0.99414333  0.48926122  0.37945605  1
  O  O323  1  0.98845688  0.49062028  0.86612369  1
  O  O324  1  0.98343249  1.00322880  0.37618885  1
  O  O325  1  0.98980452  0.99765466  0.88239764  1
  O  O326  1  -0.00614647  0.01471472  0.11141254  1
  O  O327  1  -0.00804555  0.01267556  0.63094769  1
  O  O328  1  0.00922082  0.49315049  0.12806725  1
  O  O329  1  0.01256467  0.50996019  0.63100099  1
  O  O330  1  0.50384964  -0.00472333  0.11114453  1
  O  O331  1  0.49704092  0.00379382  0.61020797  1
  O  O332  1  0.50723565  0.51235655  0.11585423  1
  O  O333  1  0.51831624  0.50043087  0.64003089  1
  O  O334  1  0.23904303  0.37587680  0.23806192  1
  O  O335  1  0.24187375  0.37759925  0.74192923  1
  O  O336  1  0.24852874  0.88797439  0.23443402  1
  O  O337  1  0.24810275  0.87710868  0.73658492  1
  O  O338  1  0.75081867  0.38529238  0.25472937  1
  O  O339  1  0.74278721  0.37045864  0.74210932  1
  O  O340  1  0.73547342  0.89055931  0.25743362  1
  O  O341  1  0.76059212  0.88660360  0.74082848  1
  O  O342  1  0.26387030  0.11414346  0.24630890  1
  O  O343  1  0.25959576  0.12414962  0.75526704  1
  O  O344  1  0.24765258  0.63519759  0.25226651  1
  O  O345  1  0.25572779  0.62092284  0.76187004  1
  O  O346  1  0.74357446  0.10593463  0.25117524  1
  O  O347  1  0.75747798  0.11998246  0.75834040  1
  O  O348  1  0.76110962  0.62851344  0.26774557  1
  O  O349  1  0.76772159  0.62845780  0.74172431  1
  O  O350  1  0.37327505  0.11792413  0.36388024  1
  O  O351  1  0.36688691  0.13484725  0.86363537  1
  O  O352  1  0.34772874  0.62528679  0.37693135  1
  O  O353  1  0.36431412  0.61956069  0.87045991  1
  O  O354  1  0.87928989  0.11762774  0.38641867  1
  O  O355  1  0.86826886  0.11877845  0.87230475  1
  O  O356  1  0.87767596  0.61692695  0.37085279  1
  O  O357  1  0.88758536  0.60576848  0.86555120  1
  O  O358  1  0.13163929  0.38144800  0.13083753  1
  O  O359  1  0.13228246  0.37961283  0.63342834  1
  O  O360  1  0.13550303  0.87430537  0.10435460  1
  O  O361  1  0.14161659  0.87187001  0.62147150  1
  O  O362  1  0.62413856  0.39518601  0.12216955  1
  O  O363  1  0.63246650  0.37901429  0.63532461  1
  O  O364  1  0.62197301  0.88988120  0.13892791  1
  O  O365  1  0.64326078  0.87646042  0.62181563  1
  O  O366  1  0.13622663  0.25664250  0.26577066  1
  O  O367  1  0.12109501  0.25566691  0.75643555  1
  O  O368  1  0.11994266  0.75149741  0.26578526  1
  O  O369  1  0.11060099  0.75525283  0.74335964  1
  O  O370  1  0.61307303  0.24703291  0.26012471  1
  O  O371  1  0.62294299  0.25734774  0.75782159  1
  O  O372  1  0.63268197  0.76330153  0.24338666  1
  O  O373  1  0.60828133  0.74787100  0.74514750  1
  O  O374  1  0.38861955  0.24344297  0.24938068  1
  O  O375  1  0.38240706  0.24232975  0.73900417  1
  O  O376  1  0.37821151  0.76303370  0.23824622  1
  O  O377  1  0.37713290  0.74447161  0.74389493  1
  O  O378  1  0.87880496  0.25207533  0.25685082  1
  O  O379  1  0.88347338  0.24765397  0.74821169  1
  O  O380  1  0.87776801  0.73452140  0.25586787  1
  O  O381  1  0.88435978  0.74423620  0.73441056  1
  O  O382  1  0.33929887  0.47603745  0.47945331  1
  O  O383  1  0.38195360  0.49442248  0.99174434  1
  O  O384  1  0.38699768  1.00181857  0.48398504  1
  O  O385  1  0.38904640  0.98923723  1.00221383  1
  O  O386  1  0.87343426  0.48709222  0.49759053  1
  O  O387  1  0.87895473  0.48820037  0.99286270  1
  O  O388  1  0.86529368  0.98594778  0.48781485  1
  O  O389  1  0.87916062  0.99885157  0.99287341  1
  O  O390  1  0.11355943  0.01210213  -0.00663173  1
  O  O391  1  0.13677922  0.01790752  0.48876507  1
  O  O392  1  0.11860726  0.49893428  0.01130659  1
  O  O393  1  0.13775184  0.50883192  0.51349452  1
  O  O394  1  0.61571268  -0.00831652  0.01336088  1
  O  O395  1  0.61133715  -0.00002163  0.49913557  1
  O  O396  1  0.61646238  0.50541869  0.00042140  1
  O  O397  1  0.62655864  0.49380702  0.51675970  1
  O  O398  1  0.36403426  0.38174918  0.11872716  1
  O  O399  1  0.36438489  0.36567715  0.63638080  1
  O  O400  1  0.36627166  0.87322638  0.10909611  1
  O  O401  1  0.36557475  0.85907439  0.62902747  1
  O  O402  1  0.87124964  0.37353967  0.11402082  1
  O  O403  1  0.87081523  0.37191124  0.62308368  1
  O  O404  1  0.86654412  0.89375799  0.11400878  1
  O  O405  1  0.86865028  0.86659031  0.61483090  1
  O  O406  1  0.13232788  0.14175448  0.38608028  1
  O  O407  1  0.13489283  0.13220942  0.88287257  1
  O  O408  1  0.12908021  0.63888938  0.38354174  1
  O  O409  1  0.13920319  0.61882946  0.87512281  1
  O  O410  1  0.61757882  0.14629964  0.38255342  1
  O  O411  1  0.63593192  0.13709687  0.86865910  1
  O  O412  1  0.64330210  0.61365979  0.37406257  1
  O  O413  1  0.62724390  0.62350814  0.88704956  1
