# generated using pymatgen
data_V79Zn79O256
_symmetry_space_group_name_H-M   'P 1'
_cell_length_a   16.91296890
_cell_length_b   16.90766591
_cell_length_c   16.91934790
_cell_angle_alpha   89.79747375
_cell_angle_beta   90.01167979
_cell_angle_gamma   89.97614258
_symmetry_Int_Tables_number   1
_chemical_formula_structural   V79Zn79O256
_chemical_formula_sum   'V79 Zn79 O256'
_cell_volume   4838.20614380
_cell_formula_units_Z   1
loop_
 _symmetry_equiv_pos_site_id
 _symmetry_equiv_pos_as_xyz
  1  'x, y, z'
loop_
 _atom_site_type_symbol
 _atom_site_label
 _atom_site_symmetry_multiplicity
 _atom_site_fract_x
 _atom_site_fract_y
 _atom_site_fract_z
 _atom_site_occupancy
  V  V0  1  0.37114746  0.86452092  0.50998053  1
  V  V1  1  0.12551627  0.37273124  0.75158895  1
  V  V2  1  0.25068633  0.37475611  0.14865396  1
  V  V3  1  -0.01270386  0.87328035  0.37559035  1
  V  V4  1  0.63037553  0.87786644  0.76422381  1
  V  V5  1  0.37743497  -0.00484109  0.87241425  1
  V  V6  1  0.00478980  0.40103444  0.38387461  1
  V  V7  1  0.25546616  0.61168995  0.37930195  1
  V  V8  1  0.74157194  0.49309211  0.75021632  1
  V  V9  1  0.62578199  0.61866025  0.51325792  1
  V  V10  1  0.75393576  0.12614614  0.85625924  1
  V  V11  1  0.62957356  0.38147579  0.24551362  1
  V  V12  1  0.75351766  0.24801301  0.00793971  1
  V  V13  1  0.13215840  0.49881376  0.14479836  1
  V  V14  1  0.37712139  0.12322304  0.74660032  1
  V  V15  1  0.75699441  0.00289557  0.24847477  1
  V  V16  1  0.13460038  0.75849604  0.37410810  1
  V  V17  1  0.87806611  0.00444915  0.86231158  1
  V  V18  1  -0.00049284  0.62613103  0.62332079  1
  V  V19  1  0.75816284  0.60860300  0.36190552  1
  V  V20  1  0.50751158  0.00592570  0.50773994  1
  V  V21  1  0.00505261  0.36986479  0.87689251  1
  V  V22  1  0.11567572  0.75528935  0.86840634  1
  V  V23  1  0.35298445  0.11966829  0.25266488  1
  V  V24  1  0.64209896  0.62557727  0.00571407  1
  V  V25  1  0.74001200  0.87662096  0.61506282  1
  V  V26  1  0.75087816  0.64348371  0.87829946  1
  V  V27  1  0.88192195  0.76148570  0.62059567  1
  V  V28  1  0.12638356  0.62614763  0.50030164  1
  V  V29  1  0.50331091  0.60989543  0.11970823  1
  V  V30  1  0.37240780  0.61090245  0.25579982  1
  V  V31  1  -0.00033865  0.14110868  0.11397600  1
  V  V32  1  -0.00120293  0.24666894  0.75154903  1
  V  V33  1  0.62739462  0.12342283  0.00091444  1
  V  V34  1  -0.00021688  0.75532867  0.25035779  1
  V  V35  1  0.49547980  0.37620677  0.89375615  1
  V  V36  1  0.87547470  0.36920327  0.00763020  1
  V  V37  1  0.24208106  0.88046038  0.13411045  1
  V  V38  1  0.12616470  0.11998000  0.48437639  1
  V  V39  1  0.49801534  0.50207968  0.51963314  1
  V  V40  1  0.49587011  0.12305021  0.12408005  1
  V  V41  1  0.62759130  0.74483113  0.37905961  1
  V  V42  1  0.00867845  0.12601896  0.62740776  1
  V  V43  1  0.38895677  0.62740861  0.73825167  1
  V  V44  1  0.36629149  0.25061082  0.11483679  1
  V  V45  1  0.49721764  0.25899945  0.75258866  1
  V  V46  1  0.62318953  0.25865649  0.87353571  1
  V  V47  1  0.49763322  0.74842747  0.24778070  1
  V  V48  1  0.36511194  0.00139753  0.37314076  1
  V  V49  1  0.24246407  0.24592356  0.48858103  1
  V  V50  1  0.87568181  0.49974064  0.87984636  1
  V  V51  1  -0.00118886  0.62398356  0.13287103  1
  V  V52  1  0.12735120  0.62040369  0.00126397  1
  V  V53  1  0.49940011  0.87565214  0.37854603  1
  V  V54  1  0.36982897  0.25286134  0.62350617  1
  V  V55  1  0.24935910  0.85582824  0.62417477  1
  V  V56  1  0.50209212  -0.00599130  -0.00511176  1
  V  V57  1  0.51138196  0.75359200  0.75119713  1
  V  V58  1  0.62584161  0.24299551  0.38590564  1
  V  V59  1  0.62620984  0.87575101  0.24836304  1
  V  V60  1  0.49814154  0.24299859  0.25166756  1
  V  V61  1  0.24119164  0.13240757  0.88496628  1
  V  V62  1  0.75367997  0.87122763  0.11794858  1
  V  V63  1  0.24348513  -0.00526459  0.73959428  1
  V  V64  1  0.25547662  0.62273996  0.87293529  1
  V  V65  1  0.74411059  0.38377784  0.12401623  1
  V  V66  1  0.25288557  0.75084988  0.00061230  1
  V  V67  1  0.12076617  0.49999716  0.62399160  1
  V  V68  1  0.88270246  0.63100846  0.75186060  1
  V  V69  1  0.49587326  0.38475975  0.37438191  1
  V  V70  1  0.01045510  -0.00598092  0.00138383  1
  V  V71  1  0.38003270  0.87266048  -0.00236920  1
  V  V72  1  0.87393031  0.25088136  0.61714049  1
  V  V73  1  -0.00175498  -0.00615356  0.50428268  1
  V  V74  1  -0.00174567  0.25906286  0.27332306  1
  V  V75  1  0.74981902  0.12830351  0.39166113  1
  V  V76  1  0.86982733  0.39491008  0.49864629  1
  V  V77  1  0.38092342  0.49646882  0.89003652  1
  V  V78  1  0.87459763  0.75174845  0.11986825  1
  Zn  Zn79  1  0.36711656  0.38282658  0.49627547  1
  Zn  Zn80  1  0.37603999  0.74903592  0.12680802  1
  Zn  Zn81  1  0.00269794  0.49645797  0.00561660  1
  Zn  Zn82  1  0.64912200  0.02392669  0.63999685  1
  Zn  Zn83  1  0.87080523  -0.00021668  0.37935792  1
  Zn  Zn84  1  0.50601556  0.13282310  0.61499059  1
  Zn  Zn85  1  0.10185045  0.86995518  0.74155123  1
  Zn  Zn86  1  0.62597273  -0.00184385  0.12383140  1
  Zn  Zn87  1  0.73621697  0.38460856  0.62047089  1
  Zn  Zn88  1  0.87780340  0.87581361  -0.01229851  1
  Zn  Zn89  1  0.76099426  0.74817231  0.49376369  1
  Zn  Zn90  1  0.25593708  0.49748489  0.74732652  1
  Zn  Zn91  1  0.24642650  0.37461961  0.62387037  1
  Zn  Zn92  1  0.12952306  0.00878605  0.15612060  1
  Zn  Zn93  1  0.86315283  0.15052145  0.23670208  1
  Zn  Zn94  1  0.17322194  0.19557839  0.19251130  1
  Zn  Zn95  1  0.18564187  0.18458157  0.68735841  1
  Zn  Zn96  1  0.18882391  0.69037376  0.19211489  1
  Zn  Zn97  1  0.19009075  0.68462335  0.69071714  1
  Zn  Zn98  1  0.68286707  0.18971634  0.18991703  1
  Zn  Zn99  1  0.66721099  0.22248454  0.66296549  1
  Zn  Zn100  1  0.68744311  0.68596128  0.18505625  1
  Zn  Zn101  1  0.69559203  0.69231203  0.69261299  1
  Zn  Zn102  1  0.31415336  0.30905547  0.31261519  1
  Zn  Zn103  1  0.31106359  0.31414809  0.81617504  1
  Zn  Zn104  1  0.31644063  0.81173550  0.31577659  1
  Zn  Zn105  1  0.31632002  0.80779402  0.81053922  1
  Zn  Zn106  1  0.81498359  0.31909357  0.31820426  1
  Zn  Zn107  1  0.81598068  0.31012932  0.81382503  1
  Zn  Zn108  1  0.81386886  0.80386120  0.30555684  1
  Zn  Zn109  1  0.81987544  0.82185932  0.80069583  1
  Zn  Zn110  1  0.18698956  0.43682606  0.44049321  1
  Zn  Zn111  1  0.19153199  0.43757289  0.93871604  1
  Zn  Zn112  1  0.15779845  0.96620838  0.36634050  1
  Zn  Zn113  1  0.19181309  0.93816509  0.93390677  1
  Zn  Zn114  1  0.68554686  0.43632197  0.43743221  1
  Zn  Zn115  1  0.68492906  0.44570006  0.94219968  1
  Zn  Zn116  1  0.68810459  0.93910468  0.43806570  1
  Zn  Zn117  1  0.69676403  0.94287493  0.93444967  1
  Zn  Zn118  1  0.30972198  0.06067537  0.06465560  1
  Zn  Zn119  1  0.31396455  0.05902929  0.55665535  1
  Zn  Zn120  1  0.31461000  0.56183145  0.06938099  1
  Zn  Zn121  1  0.31013611  0.56298400  0.56146162  1
  Zn  Zn122  1  0.82096756  0.05870041  0.06065197  1
  Zn  Zn123  1  0.82162296  0.06456376  0.57063576  1
  Zn  Zn124  1  0.82739446  0.54544970  0.09402754  1
  Zn  Zn125  1  0.80692865  0.56814009  0.56486855  1
  Zn  Zn126  1  0.43534541  0.43178981  0.18681103  1
  Zn  Zn127  1  0.43391588  0.43794363  0.69444894  1
  Zn  Zn128  1  0.43243061  0.93893819  0.18490507  1
  Zn  Zn129  1  0.44358268  0.93177911  0.68920449  1
  Zn  Zn130  1  0.93195163  0.43668423  0.20394251  1
  Zn  Zn131  1  0.93441879  0.43852713  0.68819305  1
  Zn  Zn132  1  0.94294965  0.94000164  0.18472617  1
  Zn  Zn133  1  0.93792723  0.94119168  0.68701457  1
  Zn  Zn134  1  0.04650025  0.07516470  0.30719271  1
  Zn  Zn135  1  0.06380848  0.05882813  0.81431456  1
  Zn  Zn136  1  0.06273934  0.56920748  0.31606565  1
  Zn  Zn137  1  0.06340544  0.56087888  0.81223766  1
  Zn  Zn138  1  0.56212591  0.06049704  0.31635139  1
  Zn  Zn139  1  0.56641423  0.06568394  0.80903228  1
  Zn  Zn140  1  0.56793339  0.56410880  0.31190189  1
  Zn  Zn141  1  0.56442916  0.56513603  0.82263323  1
  Zn  Zn142  1  0.43079760  0.18663802  0.43425133  1
  Zn  Zn143  1  0.43316222  0.18238094  0.93429170  1
  Zn  Zn144  1  0.44068919  0.68270572  0.44146562  1
  Zn  Zn145  1  0.44439158  0.68871962  0.93326018  1
  Zn  Zn146  1  0.93242119  0.18622362  0.44182579  1
  Zn  Zn147  1  0.93899992  0.18390580  0.93655576  1
  Zn  Zn148  1  0.93897844  0.68132277  0.43723779  1
  Zn  Zn149  1  0.93735124  0.68696895  0.94529834  1
  Zn  Zn150  1  0.07263745  0.31913653  0.06538229  1
  Zn  Zn151  1  0.05815361  0.31455648  0.55762319  1
  Zn  Zn152  1  0.06431417  0.81188084  0.05826183  1
  Zn  Zn153  1  0.06718233  0.81132895  0.56041590  1
  Zn  Zn154  1  0.56062587  0.30771615  0.06493669  1
  Zn  Zn155  1  0.55870988  0.32082313  0.56504758  1
  Zn  Zn156  1  0.56714379  0.80414650  0.05844356  1
  Zn  Zn157  1  0.55597301  0.80523222  0.56854790  1
  O  O158  1  0.10468411  0.12315486  0.13514027  1
  O  O159  1  0.11431099  0.12735133  0.61418792  1
  O  O160  1  0.12594914  0.61869853  0.12012565  1
  O  O161  1  0.12029839  0.62346264  0.62068518  1
  O  O162  1  0.61650670  0.12501715  0.11420712  1
  O  O163  1  0.61652853  0.12867505  0.63371501  1
  O  O164  1  0.61624610  0.62372145  0.11657901  1
  O  O165  1  0.63488110  0.63047893  0.61095859  1
  O  O166  1  0.39307723  0.36704368  0.37742425  1
  O  O167  1  0.37827029  0.38864397  0.87424805  1
  O  O168  1  0.38478409  0.87957776  0.38194246  1
  O  O169  1  0.36973914  0.88302415  0.88553977  1
  O  O170  1  0.87737614  0.37973334  0.39341198  1
  O  O171  1  0.88365775  0.38154419  0.88430806  1
  O  O172  1  0.88360882  0.86944797  0.37648760  1
  O  O173  1  0.85972595  0.89883195  0.87297835  1
  O  O174  1  0.26711648  -0.01213668  0.38190054  1
  O  O175  1  0.26239099  0.00250100  0.86252847  1
  O  O176  1  0.24983883  0.51285340  0.37744354  1
  O  O177  1  0.26122422  0.50651937  0.87539376  1
  O  O178  1  0.74703271  0.01250350  0.36909512  1
  O  O179  1  0.75899679  0.01982383  0.87658872  1
  O  O180  1  0.74579609  0.50912227  0.37302751  1
  O  O181  1  0.76378828  0.50587807  0.87174507  1
  O  O182  1  0.24261393  0.48753163  0.12118024  1
  O  O183  1  0.23682035  0.49838566  0.62660804  1
  O  O184  1  0.24297714  0.98586303  0.12055648  1
  O  O185  1  0.25493823  0.99651376  0.63739286  1
  O  O186  1  0.73138695  0.48152395  0.10602982  1
  O  O187  1  0.75349943  0.50268424  0.64532118  1
  O  O188  1  0.74776183  0.99158024  0.13376629  1
  O  O189  1  0.75530290  0.98328110  0.61720613  1
  O  O190  1  -0.01041185  0.37335283  0.27451882  1
  O  O191  1  0.00640030  0.37109294  0.75845928  1
  O  O192  1  -0.00171637  0.86545042  0.26035609  1
  O  O193  1  -0.00689792  0.87277980  0.75193115  1
  O  O194  1  0.50460538  0.36470669  0.25855592  1
  O  O195  1  0.49177656  0.36228048  0.76405888  1
  O  O196  1  0.50560501  0.86978156  0.25633825  1
  O  O197  1  0.51397640  0.86471549  0.75107188  1
  O  O198  1  0.50073629  0.13121835  0.24389492  1
  O  O199  1  0.48675236  0.13594753  0.75644379  1
  O  O200  1  0.49315937  0.62940662  0.24723738  1
  O  O201  1  0.49408241  0.62597700  0.75116073  1
  O  O202  1  0.98613546  0.14702426  0.24491309  1
  O  O203  1  1.01306780  0.13601505  0.74193813  1
  O  O204  1  1.00683682  0.63603382  0.23889070  1
  O  O205  1  0.99213795  0.62281544  0.74142654  1
  O  O206  1  0.37497788  0.24031954  0.01633823  1
  O  O207  1  0.36330009  0.24667665  0.50828257  1
  O  O208  1  0.36986360  0.75638110  -0.00155593  1
  O  O209  1  0.38502533  0.76619217  0.49534599  1
  O  O210  1  0.86283020  0.25831993  -0.00931763  1
  O  O211  1  0.87753338  0.25793403  0.51351615  1
  O  O212  1  0.88512475  0.76248348  0.01311097  1
  O  O213  1  0.87725222  0.74437292  0.51673104  1
  O  O214  1  0.13710254  0.24314593  0.50501159  1
  O  O215  1  0.16982225  0.29526535  1.00414658  1
  O  O216  1  0.12029985  0.73779429  0.48571459  1
  O  O217  1  0.13550767  0.73974884  0.99238342  1
  O  O218  1  0.61384921  0.25090438  0.48285208  1
  O  O219  1  0.63009978  0.24075922  0.99294847  1
  O  O220  1  0.61435419  0.73560726  0.49089795  1
  O  O221  1  0.61209393  0.72420526  0.99432086  1
  O  O222  1  0.48796589  0.24503900  0.13406873  1
  O  O223  1  0.48641332  0.25182580  0.63399980  1
  O  O224  1  0.50067657  0.74075018  0.13744134  1
  O  O225  1  0.49941709  0.74736361  0.64679138  1
  O  O226  1  1.00134543  0.24306112  0.11137075  1
  O  O227  1  0.99625795  0.24552806  0.63142932  1
  O  O228  1  1.00011666  0.74569266  0.13217539  1
  O  O229  1  0.99047400  0.74425138  0.62306524  1
  O  O230  1  -0.00130839  0.25353680  0.37460631  1
  O  O231  1  -0.00415828  0.26090111  0.86833315  1
  O  O232  1  0.00441164  0.75310689  0.36883453  1
  O  O233  1  0.01749693  0.74206833  0.88254969  1
  O  O234  1  0.50734341  0.25238528  0.36837894  1
  O  O235  1  0.50165691  0.25663722  0.87418864  1
  O  O236  1  0.50734451  0.75595559  0.36817592  1
  O  O237  1  0.50177660  0.74206437  0.85518480  1
  O  O238  1  0.23736070  0.13190245  0.50356845  1
  O  O239  1  0.25298136  0.11489143  0.98418114  1
  O  O240  1  0.24677208  0.62738143  0.48655547  1
  O  O241  1  0.24797002  0.63139500  0.99558574  1
  O  O242  1  0.75082656  0.11920655  0.48993565  1
  O  O243  1  0.74116263  0.13134855  1.00310509  1
  O  O244  1  0.73592589  0.62571254  0.48973179  1
  O  O245  1  0.74777874  0.62519603  0.99243946  1
  O  O246  1  0.22590930  0.35480861  0.01419577  1
  O  O247  1  0.24988383  0.36140691  0.50244920  1
  O  O248  1  0.25911095  0.86703512  0.00564502  1
  O  O249  1  0.26514964  0.87359539  0.51599034  1
  O  O250  1  0.75387581  0.36640690  0.00234355  1
  O  O251  1  0.76224556  0.38250476  0.50502402  1
  O  O252  1  0.74919518  0.88104042  0.01585232  1
  O  O253  1  0.74371929  0.86703697  0.50895141  1
  O  O254  1  0.13326133  0.51301482  0.24218399  1
  O  O255  1  0.12778947  0.49302914  0.74189569  1
  O  O256  1  0.11638043  0.99848883  0.26780541  1
  O  O257  1  0.14194053  0.98851892  0.75556653  1
  O  O258  1  0.61905488  0.47962321  0.25306948  1
  O  O259  1  0.64336379  0.50442731  0.76485536  1
  O  O260  1  0.63093671  0.98870504  0.25031788  1
  O  O261  1  0.61601576  0.98358193  0.74598849  1
  O  O262  1  0.38053262  0.00859153  0.25931390  1
  O  O263  1  0.37554770  0.00424026  0.75549717  1
  O  O264  1  0.37947210  0.51233303  0.25400532  1
  O  O265  1  0.37462983  0.51186941  0.76058865  1
  O  O266  1  0.86187069  -0.00478378  0.25504859  1
  O  O267  1  0.88246003  0.01049895  0.76271112  1
  O  O268  1  0.86538090  0.52068540  0.19878709  1
  O  O269  1  0.87168652  0.51042041  0.76136944  1
  O  O270  1  0.10435748  0.38574545  0.38453718  1
  O  O271  1  0.11380786  0.38669885  0.86555826  1
  O  O272  1  0.11302545  0.85967748  0.38191981  1
  O  O273  1  0.13404765  0.85665710  0.87496275  1
  O  O274  1  0.61800138  0.36227953  0.36527305  1
  O  O275  1  0.61574613  0.36491587  0.88624836  1
  O  O276  1  0.61719844  0.86761046  0.36886879  1
  O  O277  1  0.63851301  0.87638227  0.86322893  1
  O  O278  1  0.37599291  0.12880566  0.13470424  1
  O  O279  1  0.37756397  0.13135699  0.63301593  1
  O  O280  1  0.38214701  0.62656903  0.14149629  1
  O  O281  1  0.37165348  0.61927205  0.64043790  1
  O  O282  1  0.89261719  0.11924632  0.12702650  1
  O  O283  1  0.89432216  0.13852356  0.61935605  1
  O  O284  1  0.89273858  0.64048806  0.10749570  1
  O  O285  1  0.88256051  0.63165106  0.63240946  1
  O  O286  1  0.25347407  0.26487955  0.14088110  1
  O  O287  1  0.25809369  0.24921317  0.62052041  1
  O  O288  1  0.25260922  0.75382402  0.11372426  1
  O  O289  1  0.25823838  0.75719199  0.63146347  1
  O  O290  1  0.74168492  0.25787588  0.11271120  1
  O  O291  1  0.77677393  0.24451570  0.63810355  1
  O  O292  1  0.76227069  0.75844292  0.13401248  1
  O  O293  1  0.76193431  0.75804634  0.62038661  1
  O  O294  1  0.25420782  0.24957867  0.38981003  1
  O  O295  1  0.25910904  0.23120198  0.87072854  1
  O  O296  1  0.23692421  0.74933586  0.37165593  1
  O  O297  1  0.24887343  0.74011770  0.88460727  1
  O  O298  1  0.73620668  0.24021738  0.37227837  1
  O  O299  1  0.74277272  0.24272056  0.88196931  1
  O  O300  1  0.73735566  0.74849475  0.37569246  1
  O  O301  1  0.76776460  0.74060070  0.87231816  1
  O  O302  1  -0.00076913  0.11831645  0.00946096  1
  O  O303  1  0.01084675  0.12073332  0.50395127  1
  O  O304  1  0.01428067  0.62317573  0.01154834  1
  O  O305  1  0.01109027  0.62726610  0.51258237  1
  O  O306  1  0.50753117  0.11693932  0.00274558  1
  O  O307  1  0.49197661  0.10937391  0.49628332  1
  O  O308  1  0.48787887  0.62552283  0.02107505  1
  O  O309  1  0.50998807  0.61057929  0.49846231  1
  O  O310  1  0.50408702  0.38754534  0.48834407  1
  O  O311  1  0.49624962  0.36953884  0.99355659  1
  O  O312  1  0.49438466  0.88139009  0.49452318  1
  O  O313  1  0.49366332  0.88223344  1.00684341  1
  O  O314  1  0.98761086  0.37753840  0.49115192  1
  O  O315  1  0.99449129  0.37380758  0.99409980  1
  O  O316  1  1.00640047  0.88837361  0.49571562  1
  O  O317  1  0.99929135  0.88929823  1.00321499  1
  O  O318  1  0.50355595  0.48570665  0.37310982  1
  O  O319  1  0.48837876  0.49194777  0.87438290  1
  O  O320  1  0.49516364  0.98938166  0.38232774  1
  O  O321  1  0.49129197  1.00703171  0.88558118  1
  O  O322  1  0.99524071  0.50120696  0.37561916  1
  O  O323  1  0.99093488  0.49277339  0.87801654  1
  O  O324  1  0.99416927  0.99092462  0.38329013  1
  O  O325  1  0.98590267  1.01455979  0.88635183  1
  O  O326  1  0.00931180  0.00387491  0.11394832  1
  O  O327  1  -0.00168409  0.00778922  0.61111553  1
  O  O328  1  0.02032392  0.50652441  0.12653846  1
  O  O329  1  0.01072642  0.51194519  0.63151579  1
  O  O330  1  0.50106833  0.00436182  0.11288483  1
  O  O331  1  0.49803119  0.00027893  0.61177674  1
  O  O332  1  0.49733059  0.51091587  0.13205323  1
  O  O333  1  0.50658445  0.48766448  0.61738242  1
  O  O334  1  0.25317598  0.38183775  0.24803284  1
  O  O335  1  0.23828923  0.37594645  0.74908769  1
  O  O336  1  0.25951604  0.86642257  0.23230763  1
  O  O337  1  0.26355563  0.88345346  0.73739582  1
  O  O338  1  0.73609338  0.36728818  0.24206035  1
  O  O339  1  0.75846926  0.39050000  0.75459481  1
  O  O340  1  0.74153730  0.88099620  0.24654411  1
  O  O341  1  0.73575394  0.86915481  0.73449941  1
  O  O342  1  0.25446997  0.12863490  0.24628174  1
  O  O343  1  0.25848250  0.11044497  0.75122606  1
  O  O344  1  0.26459797  0.63041468  0.26115322  1
  O  O345  1  0.26098957  0.62441672  0.76266186  1
  O  O346  1  0.74918126  0.11629176  0.25007881  1
  O  O347  1  0.74466655  0.13237035  0.76053740  1
  O  O348  1  0.74091628  0.62625402  0.26324269  1
  O  O349  1  0.76148176  0.61912467  0.76321418  1
  O  O350  1  0.37673687  0.11337126  0.36444850  1
  O  O351  1  0.36756112  0.11361330  0.86543961  1
  O  O352  1  0.36570720  0.62995131  0.36871671  1
  O  O353  1  0.37136609  0.61323996  0.87298908  1
  O  O354  1  0.85605528  0.12899236  0.37203531  1
  O  O355  1  0.86068614  0.12384935  0.87572577  1
  O  O356  1  0.85579245  0.63154574  0.37967516  1
  O  O357  1  0.87317444  0.61946633  0.87356187  1
  O  O358  1  0.13353728  0.39078120  0.13633440  1
  O  O359  1  0.12001401  0.38528937  0.63142133  1
  O  O360  1  0.14065000  0.86957057  0.12294856  1
  O  O361  1  0.14390383  0.86488035  0.62811904  1
  O  O362  1  0.62567502  0.36571862  0.13907486  1
  O  O363  1  0.63913703  0.33257237  0.63805232  1
  O  O364  1  0.63210915  0.87048827  0.13478782  1
  O  O365  1  0.63578564  0.87329720  0.62526777  1
  O  O366  1  0.09621676  0.26050889  0.24467352  1
  O  O367  1  0.11543341  0.26428993  0.74178229  1
  O  O368  1  0.11620797  0.74419484  0.26575757  1
  O  O369  1  0.13048960  0.74820922  0.76513509  1
  O  O370  1  0.61222085  0.25512752  0.25718181  1
  O  O371  1  0.60937172  0.24135787  0.76939286  1
  O  O372  1  0.61710683  0.75748042  0.25807690  1
  O  O373  1  0.62086470  0.75978621  0.74901227  1
  O  O374  1  0.38261979  0.23786056  0.24758449  1
  O  O375  1  0.37777179  0.24257060  0.74389084  1
  O  O376  1  0.38782493  0.74334119  0.25256539  1
  O  O377  1  0.38358928  0.73320555  0.75564873  1
  O  O378  1  0.88720885  0.26288874  0.25029785  1
  O  O379  1  0.89303036  0.25975368  0.74120436  1
  O  O380  1  0.88918631  0.75003047  0.23645097  1
  O  O381  1  0.87046573  0.73896788  0.73606483  1
  O  O382  1  0.39215858  0.49985763  0.50588139  1
  O  O383  1  0.37183210  0.50239114  0.98893056  1
  O  O384  1  0.38494696  0.98908989  0.49195210  1
  O  O385  1  0.38294060  0.99238041  0.99278862  1
  O  O386  1  0.87683077  0.49371725  0.51175965  1
  O  O387  1  0.87809429  0.48980540  0.99514567  1
  O  O388  1  0.89394478  1.00891257  0.49610042  1
  O  O389  1  0.88665454  0.99720745  0.99084268  1
  O  O390  1  0.11069459  -0.00160113  -0.01226236  1
  O  O391  1  0.11358725  0.01327947  0.48522936  1
  O  O392  1  0.12827115  0.51131516  0.00514967  1
  O  O393  1  0.13086826  0.51536378  0.51054175  1
  O  O394  1  0.61867175  0.00709361  -0.00177086  1
  O  O395  1  0.60885604  -0.00369457  0.49926304  1
  O  O396  1  0.61535944  0.52851542  -0.01925584  1
  O  O397  1  0.61519636  0.50996112  0.49860210  1
  O  O398  1  0.35972706  0.36754611  0.12970547  1
  O  O399  1  0.37153091  0.36474933  0.62325520  1
  O  O400  1  0.36651379  0.87302130  0.11273007  1
  O  O401  1  0.37240302  0.87608077  0.61536362  1
  O  O402  1  0.86441143  0.37687209  0.11134214  1
  O  O403  1  0.87892643  0.36725343  0.61558702  1
  O  O404  1  0.86705124  0.86941826  0.12756279  1
  O  O405  1  0.86573398  0.86461977  0.62949924  1
  O  O406  1  0.11822346  0.13355591  0.38670063  1
  O  O407  1  0.14282044  0.12143306  0.86683836  1
  O  O408  1  0.13801070  0.63154645  0.38092021  1
  O  O409  1  0.13604326  0.62807867  0.88166081  1
  O  O410  1  0.63371346  0.13445579  0.37122446  1
  O  O411  1  0.63473993  0.13053429  0.88417499  1
  O  O412  1  0.63102450  0.63142480  0.38067202  1
  O  O413  1  0.64814962  0.63220513  0.87559146  1
