# generated using pymatgen
data_V79Zn79O256
_symmetry_space_group_name_H-M   'P 1'
_cell_length_a   16.96775131
_cell_length_b   16.97492580
_cell_length_c   16.92063926
_cell_angle_alpha   90.20518253
_cell_angle_beta   90.28512638
_cell_angle_gamma   90.05960902
_symmetry_Int_Tables_number   1
_chemical_formula_structural   V79Zn79O256
_chemical_formula_sum   'V79 Zn79 O256'
_cell_volume   4873.49512487
_cell_formula_units_Z   1
loop_
 _symmetry_equiv_pos_site_id
 _symmetry_equiv_pos_as_xyz
  1  'x, y, z'
loop_
 _atom_site_type_symbol
 _atom_site_label
 _atom_site_symmetry_multiplicity
 _atom_site_fract_x
 _atom_site_fract_y
 _atom_site_fract_z
 _atom_site_occupancy
  V  V0  1  0.62820847  0.38439677  0.24538486  1
  V  V1  1  -0.00006101  0.00125346  -0.00154431  1
  V  V2  1  0.49703902  0.24668058  0.23351792  1
  V  V3  1  0.00579277  0.50588482  0.00480764  1
  V  V4  1  0.24926742  0.73705543  0.00047898  1
  V  V5  1  0.37900073  0.88672502  -0.00329740  1
  V  V6  1  0.75393155  0.88056091  0.62901731  1
  V  V7  1  0.25046310  0.49854798  0.24827708  1
  V  V8  1  0.63221736  0.87831957  0.74795486  1
  V  V9  1  0.37706931  0.49944294  0.37640082  1
  V  V10  1  0.37974616  0.74790271  0.12347840  1
  V  V11  1  0.87455860  0.38224796  0.49034129  1
  V  V12  1  0.13038250  0.24997130  0.87521410  1
  V  V13  1  0.12878878  -0.01660100  0.63100276  1
  V  V14  1  0.00038149  0.25218975  0.26464938  1
  V  V15  1  0.87550414  0.12214868  0.25699552  1
  V  V16  1  0.50078959  0.00095945  0.49917019  1
  V  V17  1  0.37273238  0.87805600  0.49883184  1
  V  V18  1  0.74097434  0.38960375  0.62865212  1
  V  V19  1  0.86751126  0.87455619  0.00742182  1
  V  V20  1  0.37648648  0.62594264  0.24985887  1
  V  V21  1  0.86920361  0.36798632  0.00023862  1
  V  V22  1  0.50032100  0.88160888  0.87404380  1
  V  V23  1  0.25373212  0.36549283  0.11854394  1
  V  V24  1  0.37905979  0.75426842  0.62535433  1
  V  V25  1  0.12793221  0.37989426  0.74730944  1
  V  V26  1  0.49901575  0.26205056  0.75534535  1
  V  V27  1  0.11676510  0.86621206  0.26183242  1
  V  V28  1  0.62317381  0.61519984  0.00610494  1
  V  V29  1  0.50511384  0.50003371  0.50024325  1
  V  V30  1  0.49882248  0.62649720  0.62187359  1
  V  V31  1  0.49770507  0.12324099  0.61950269  1
  V  V32  1  0.12376577  0.74497696  0.88210182  1
  V  V33  1  0.24898849  0.75245843  0.50202824  1
  V  V34  1  0.37102672  0.37203839  0.49574959  1
  V  V35  1  0.87338516  0.86916502  0.49579519  1
  V  V36  1  0.25329277  0.88002427  0.12410742  1
  V  V37  1  0.13736957  0.12919384  0.50046214  1
  V  V38  1  0.86874413  0.61594797  0.74985314  1
  V  V39  1  0.49283066  0.48238018  0.00127132  1
  V  V40  1  0.74455951  0.62905559  0.87148864  1
  V  V41  1  -0.00114567  0.61785631  0.62107627  1
  V  V42  1  0.72542013  0.88136049  0.13009188  1
  V  V43  1  0.87256869  0.25368291  0.12086227  1
  V  V44  1  0.50603788  0.74841902  0.74938842  1
  V  V45  1  0.38035875  0.12091750  0.25143683  1
  V  V46  1  0.86707260  0.01047793  0.86047610  1
  V  V47  1  0.62722289  0.62709523  0.49890379  1
  V  V48  1  0.13383169  0.00248798  0.12685019  1
  V  V49  1  0.49547927  0.87917230  0.37390084  1
  V  V50  1  0.73672505  0.00230604  0.25026283  1
  V  V51  1  0.64039053  0.26595543  0.87748912  1
  V  V52  1  0.14064231  0.24816478  0.37958391  1
  V  V53  1  0.24807547  0.63120502  0.37721535  1
  V  V54  1  0.86548043  0.49628712  0.86982920  1
  V  V55  1  0.88184227  -0.00666214  0.37153721  1
  V  V56  1  0.00035861  0.74808081  0.75286698  1
  V  V57  1  0.12479371  0.63057181  0.49762326  1
  V  V58  1  0.13326170  0.13186440  -0.00085749  1
  V  V59  1  0.00405900  0.87524355  0.87253920  1
  V  V60  1  -0.00602538  0.24387706  0.74356413  1
  V  V61  1  0.51562729  0.00568399  0.01419680  1
  V  V62  1  0.74679373  0.59901004  0.37021825  1
  V  V63  1  0.62840300  0.23706694  0.37731921  1
  V  V64  1  0.86445813  0.24526468  0.61851623  1
  V  V65  1  0.36684109  0.24794051  0.61827715  1
  V  V66  1  0.12175616  0.50884780  0.12207576  1
  V  V67  1  0.00431222  0.12850251  0.12758324  1
  V  V68  1  0.24962121  0.11581734  0.86997379  1
  V  V69  1  0.25370543  0.00551412  0.27009899  1
  V  V70  1  0.24667763  0.37565630  0.62010330  1
  V  V71  1  0.36811971  0.11450865  0.75114698  1
  V  V72  1  0.11822736  0.37622906  0.25738418  1
  V  V73  1  0.00200355  -0.00421204  0.49661799  1
  V  V74  1  0.00031041  0.37536163  0.87393373  1
  V  V75  1  0.13188250  0.50365190  0.62466829  1
  V  V76  1  0.63308720  0.76235371  0.37742684  1
  V  V77  1  0.50342176  0.75788539  0.25113902  1
  V  V78  1  0.86602500  0.74627970  0.61989424  1
  Zn  Zn79  1  0.76397333  0.71966453  0.03435141  1
  Zn  Zn80  1  0.37372324  0.35844724  -0.01726177  1
  Zn  Zn81  1  0.91217598  0.74596093  0.15068022  1
  Zn  Zn82  1  0.74903006  0.38773190  0.13522934  1
  Zn  Zn83  1  0.25098527  0.62238572  0.85205861  1
  Zn  Zn84  1  0.24811439  0.96389453  0.74763356  1
  Zn  Zn85  1  0.00262428  0.49327016  0.47312153  1
  Zn  Zn86  1  0.65283539  0.14563785  0.50850130  1
  Zn  Zn87  1  0.62870022  0.75322497  0.88196798  1
  Zn  Zn88  1  0.51588534  0.61930998  0.13045968  1
  Zn  Zn89  1  0.84775233  0.62582269  0.23539565  1
  Zn  Zn90  1  0.50061204  0.36846837  0.37229201  1
  Zn  Zn91  1  -0.00119677  0.11891760  0.62705291  1
  Zn  Zn92  1  0.63811165  0.01029683  0.62832279  1
  Zn  Zn93  1  0.35974031  0.49895536  0.86769164  1
  Zn  Zn94  1  0.18872464  0.18727468  0.19730969  1
  Zn  Zn95  1  0.18406011  0.18761779  0.68384087  1
  Zn  Zn96  1  0.19022857  0.68836275  0.18675999  1
  Zn  Zn97  1  0.20721914  0.75399323  0.70800695  1
  Zn  Zn98  1  0.69220490  0.19242188  0.19338870  1
  Zn  Zn99  1  0.68011433  0.19490476  0.69405018  1
  Zn  Zn100  1  0.69063900  0.69365142  0.19198717  1
  Zn  Zn101  1  0.67301879  0.56960379  0.68835097  1
  Zn  Zn102  1  0.31454417  0.31135003  0.30400499  1
  Zn  Zn103  1  0.31359074  0.30939818  0.80756875  1
  Zn  Zn104  1  0.31118027  0.81596421  0.31157465  1
  Zn  Zn105  1  0.32258477  0.80472816  0.81855022  1
  Zn  Zn106  1  0.80462907  0.30338990  0.31392499  1
  Zn  Zn107  1  0.81115960  0.31032169  0.80693541  1
  Zn  Zn108  1  0.81317463  0.81606843  0.30508278  1
  Zn  Zn109  1  0.82037857  0.81389905  0.81403956  1
  Zn  Zn110  1  0.18786063  0.44239991  0.43716687  1
  Zn  Zn111  1  0.19347593  0.44165072  0.93595114  1
  Zn  Zn112  1  0.18239907  0.93414960  0.44222114  1
  Zn  Zn113  1  0.18921474  0.93681578  0.93756245  1
  Zn  Zn114  1  0.68581505  0.42176702  0.43827940  1
  Zn  Zn115  1  0.67485644  0.43685540  0.80759767  1
  Zn  Zn116  1  0.70807444  0.97677719  0.45501003  1
  Zn  Zn117  1  0.68800097  0.94291767  0.93225791  1
  Zn  Zn118  1  0.31698216  0.19053938  0.06662411  1
  Zn  Zn119  1  0.31014948  0.05462944  0.56453409  1
  Zn  Zn120  1  0.31687154  0.55445393  0.06349073  1
  Zn  Zn121  1  0.32338242  0.58516588  0.70153658  1
  Zn  Zn122  1  0.81536387  0.05841170  0.06900179  1
  Zn  Zn123  1  0.82029670  0.06039083  0.56838324  1
  Zn  Zn124  1  0.83033454  0.55708251  0.06128492  1
  Zn  Zn125  1  0.81044791  0.55891081  0.55509618  1
  Zn  Zn126  1  0.44177219  0.43576721  0.18185025  1
  Zn  Zn127  1  0.43507853  0.43804890  0.67919231  1
  Zn  Zn128  1  0.43705254  0.94291520  0.18585825  1
  Zn  Zn129  1  0.43964244  0.93580299  0.68680540  1
  Zn  Zn130  1  0.92368597  0.43960450  0.30178798  1
  Zn  Zn131  1  0.93640412  0.43159680  0.68150725  1
  Zn  Zn132  1  0.94317405  0.93810171  0.18806034  1
  Zn  Zn133  1  0.94076677  0.93601232  0.68519147  1
  Zn  Zn134  1  0.06712444  0.06134023  0.31658800  1
  Zn  Zn135  1  0.06180672  0.06023326  0.81093421  1
  Zn  Zn136  1  0.06545924  0.56522151  0.30818077  1
  Zn  Zn137  1  0.06307949  0.56368266  0.81267368  1
  Zn  Zn138  1  0.55499952  0.06450264  0.31523291  1
  Zn  Zn139  1  0.55722686  0.06027682  0.80786753  1
  Zn  Zn140  1  0.56322892  0.56701093  0.31332712  1
  Zn  Zn141  1  0.51115846  0.53909511  0.79461913  1
  Zn  Zn142  1  0.43715702  0.18700081  0.42719218  1
  Zn  Zn143  1  0.44742774  0.18457156  0.93990527  1
  Zn  Zn144  1  0.43715925  0.68985529  0.43703938  1
  Zn  Zn145  1  0.43869136  0.68281790  0.93024976  1
  Zn  Zn146  1  0.93780125  0.18361399  0.44421357  1
  Zn  Zn147  1  0.93985811  0.18688819  0.93521162  1
  Zn  Zn148  1  0.92848500  0.67715091  0.43236841  1
  Zn  Zn149  1  0.95915722  0.70736520  0.97739665  1
  Zn  Zn150  1  0.06230942  0.31797374  0.06602314  1
  Zn  Zn151  1  0.05747362  0.31297406  0.55675697  1
  Zn  Zn152  1  0.06772967  0.81658886  0.06933199  1
  Zn  Zn153  1  0.05469091  0.80770765  0.56078975  1
  Zn  Zn154  1  0.57454005  0.30610250  0.05646761  1
  Zn  Zn155  1  0.55743570  0.31140025  0.56232115  1
  Zn  Zn156  1  0.56761460  0.80391622  0.05325645  1
  Zn  Zn157  1  0.56836829  0.81479835  0.56004619  1
  O  O158  1  0.12261146  0.12126563  0.12013383  1
  O  O159  1  0.12019264  0.12170284  0.61202882  1
  O  O160  1  0.13041815  0.60812379  0.13239901  1
  O  O161  1  0.11439381  0.61646581  0.61394993  1
  O  O162  1  0.66474725  0.13189549  0.08757127  1
  O  O163  1  0.61233186  0.12879414  0.62228196  1
  O  O164  1  0.63525369  0.63086822  0.11119766  1
  O  O165  1  0.61370024  0.62821651  0.60824620  1
  O  O166  1  0.37344551  0.38156842  0.37910359  1
  O  O167  1  0.35660386  0.38472474  0.87424771  1
  O  O168  1  0.38540444  0.86798025  0.38578864  1
  O  O169  1  0.38877691  0.86774546  0.88573270  1
  O  O170  1  0.86791813  0.36993374  0.38439113  1
  O  O171  1  0.88241201  0.37605258  0.87894725  1
  O  O172  1  0.87275473  0.88326676  0.38204625  1
  O  O173  1  0.88426169  0.88730406  0.88665978  1
  O  O174  1  0.24974403  -0.00638631  0.36783313  1
  O  O175  1  0.23673397  0.01182651  0.86297991  1
  O  O176  1  0.25942133  0.50824733  0.36987858  1
  O  O177  1  0.24084574  0.51031312  0.86631633  1
  O  O178  1  0.76634613  -0.00475496  0.35526651  1
  O  O179  1  0.76906778  -0.00574868  0.87529940  1
  O  O180  1  0.74201619  0.50041998  0.37340175  1
  O  O181  1  0.76285035  0.49913851  0.86867904  1
  O  O182  1  0.24137403  0.49034671  0.13004140  1
  O  O183  1  0.23696199  0.49007312  0.63027524  1
  O  O184  1  0.24037104  0.99359217  0.13079838  1
  O  O185  1  0.23317881  0.99700215  0.62783520  1
  O  O186  1  0.81676844  0.48515452  0.15453371  1
  O  O187  1  0.74396523  0.49444232  0.62548981  1
  O  O188  1  0.75595009  0.99083184  0.13943930  1
  O  O189  1  0.75732143  0.98470788  0.63378984  1
  O  O190  1  0.00731783  0.36399882  0.25268054  1
  O  O191  1  0.00697726  0.36599428  0.75536084  1
  O  O192  1  0.01802705  0.87253028  0.23946489  1
  O  O193  1  -0.01490658  0.85997880  0.76337250  1
  O  O194  1  0.50811481  0.36116666  0.24552795  1
  O  O195  1  0.49406527  0.35947827  0.73720285  1
  O  O196  1  0.48909385  0.86762463  0.25950581  1
  O  O197  1  0.50598957  0.87004160  0.75547687  1
  O  O198  1  0.48804443  0.12909785  0.24679823  1
  O  O199  1  0.48426481  0.12708969  0.74035188  1
  O  O200  1  0.49413407  0.63746119  0.24827288  1
  O  O201  1  0.50934742  0.63919703  0.73257588  1
  O  O202  1  0.99800666  0.12968881  0.24406829  1
  O  O203  1  1.00642766  0.14180904  0.74857702  1
  O  O204  1  1.01122761  0.67140860  0.28300641  1
  O  O205  1  0.99037797  0.62914467  0.74276408  1
  O  O206  1  0.37706785  0.24773915  -0.00364002  1
  O  O207  1  0.38298215  0.26150769  0.50646710  1
  O  O208  1  0.36541970  0.75688481  0.00836596  1
  O  O209  1  0.37101754  0.75764791  0.50486257  1
  O  O210  1  0.88282169  0.25097211  0.01162816  1
  O  O211  1  0.87903214  0.25834245  0.51276151  1
  O  O212  1  0.86140828  0.77273088  -0.01286461  1
  O  O213  1  0.88815077  0.75905687  0.50599313  1
  O  O214  1  0.12022203  0.23797767  0.49477524  1
  O  O215  1  0.11270636  0.24154448  0.98783607  1
  O  O216  1  0.13249108  0.74061556  0.50639282  1
  O  O217  1  0.14370342  0.75849468  0.99750183  1
  O  O218  1  0.61680322  0.25200916  0.48387105  1
  O  O219  1  0.60686515  0.24001901  0.97057274  1
  O  O220  1  0.61723390  0.74024989  0.48488697  1
  O  O221  1  0.64455438  0.73880300  0.99723714  1
  O  O222  1  0.51032013  0.24477237  0.13514681  1
  O  O223  1  0.48939715  0.23992745  0.63008115  1
  O  O224  1  0.49242670  0.75261455  0.13257699  1
  O  O225  1  0.49764471  0.74666582  0.62561138  1
  O  O226  1  1.00177071  0.23876099  0.13591130  1
  O  O227  1  0.99348571  0.25325683  0.63548971  1
  O  O228  1  0.99693618  0.73547245  0.08277214  1
  O  O229  1  0.99288300  0.73789091  0.63384226  1
  O  O230  1  0.00577233  0.24299270  0.36695415  1
  O  O231  1  0.00547838  0.25713939  0.86345387  1
  O  O232  1  0.00637020  0.71556342  0.34623379  1
  O  O233  1  0.00383483  0.75664125  0.87692782  1
  O  O234  1  0.50802511  0.25030893  0.36083969  1
  O  O235  1  0.48842254  0.24968185  0.85482604  1
  O  O236  1  0.50223500  0.75765030  0.36719422  1
  O  O237  1  0.50398616  0.75737764  0.86526938  1
  O  O238  1  0.23599203  0.12038647  0.50377312  1
  O  O239  1  0.23789425  0.12701633  0.98936104  1
  O  O240  1  0.24041141  0.63617460  0.49167763  1
  O  O241  1  0.25159236  0.63914401  1.01193058  1
  O  O242  1  0.73986018  0.08134120  0.49557721  1
  O  O243  1  0.72049979  0.12705495  1.03580789  1
  O  O244  1  0.73499492  0.61582837  0.48775072  1
  O  O245  1  0.74708635  0.61186985  0.98365697  1
  O  O246  1  0.24366761  0.37538859  0.01689339  1
  O  O247  1  0.25887840  0.38128531  0.50829126  1
  O  O248  1  0.25946682  0.87573674  0.00860213  1
  O  O249  1  0.25965507  0.86291979  0.48889269  1
  O  O250  1  0.77312689  0.38529920  0.01956617  1
  O  O251  1  0.76415413  0.37847952  0.51307134  1
  O  O252  1  0.76153855  0.89134057  0.01723665  1
  O  O253  1  0.76666623  0.88486268  0.50968802  1
  O  O254  1  0.12845090  0.49264172  0.24356335  1
  O  O255  1  0.11354200  0.48757551  0.73916806  1
  O  O256  1  0.13479667  0.99254406  0.24572524  1
  O  O257  1  0.12099021  1.00045562  0.73387983  1
  O  O258  1  0.61249458  0.48261347  0.25272438  1
  O  O259  1  0.60855172  0.50425072  0.75057276  1
  O  O260  1  0.63921950  1.01435221  0.25418728  1
  O  O261  1  0.61611781  0.98261077  0.74197831  1
  O  O262  1  0.36327862  0.00819431  0.25085550  1
  O  O263  1  0.36544147  0.01166080  0.73798328  1
  O  O264  1  0.37225015  0.50432642  0.25774882  1
  O  O265  1  0.39679514  0.51424221  0.75171897  1
  O  O266  1  0.88116563  0.00618535  0.25559782  1
  O  O267  1  0.88520801  0.00006616  0.76139519  1
  O  O268  1  0.86083600  0.50795820  0.22498409  1
  O  O269  1  0.88606385  0.50685833  0.75650709  1
  O  O270  1  0.13028269  0.36899213  0.36553362  1
  O  O271  1  0.11924364  0.36763335  0.86691129  1
  O  O272  1  0.12393827  0.87742765  0.36183378  1
  O  O273  1  0.11117881  0.86636704  0.88441032  1
  O  O274  1  0.62028668  0.36132752  0.36229329  1
  O  O275  1  0.62654428  0.36494124  0.87799989  1
  O  O276  1  0.61059154  0.86364782  0.38267265  1
  O  O277  1  0.62136810  0.87179918  0.86605116  1
  O  O278  1  0.35325469  0.13186426  0.15290042  1
  O  O279  1  0.37535125  0.13147154  0.62918322  1
  O  O280  1  0.37180730  0.63841974  0.13071658  1
  O  O281  1  0.38987531  0.64112521  0.61804751  1
  O  O282  1  0.88837771  0.13127744  0.13114445  1
  O  O283  1  0.88069183  0.14104894  0.62104013  1
  O  O284  1  0.83843716  0.65429870  0.11556822  1
  O  O285  1  0.87910398  0.62651934  0.62685641  1
  O  O286  1  0.24034477  0.26078492  0.12818560  1
  O  O287  1  0.25816481  0.25898105  0.62403832  1
  O  O288  1  0.25795174  0.76122848  0.11754162  1
  O  O289  1  0.26526314  0.74969035  0.60848479  1
  O  O290  1  0.77223059  0.25540199  0.13442275  1
  O  O291  1  0.76228168  0.24915577  0.63332784  1
  O  O292  1  0.74505726  0.77857582  0.13443181  1
  O  O293  1  0.76701551  0.75696796  0.62061095  1
  O  O294  1  0.23919380  0.25159001  0.36966698  1
  O  O295  1  0.23407466  0.23785610  0.86421607  1
  O  O296  1  0.25985489  0.73786893  0.38209186  1
  O  O297  1  0.24491264  0.74803600  0.89194859  1
  O  O298  1  0.72931215  0.24059228  0.36810077  1
  O  O299  1  0.74126708  0.25472087  0.87410555  1
  O  O300  1  0.73224801  0.76030555  0.37084279  1
  O  O301  1  0.75569137  0.73127963  0.86891869  1
  O  O302  1  0.01035770  0.11882440  0.00818513  1
  O  O303  1  0.00571372  0.10964731  0.50302831  1
  O  O304  1  -0.00368043  0.60112591  -0.01919731  1
  O  O305  1  0.00629266  0.62522028  0.50556131  1
  O  O306  1  0.50196849  0.10150401  -0.01231400  1
  O  O307  1  0.48806590  0.11595126  0.50788240  1
  O  O308  1  0.51828007  0.63800709  0.00333898  1
  O  O309  1  0.50620590  0.61978360  0.50052381  1
  O  O310  1  0.48923628  0.38362251  0.49993695  1
  O  O311  1  0.49881696  0.38151757  1.00949641  1
  O  O312  1  0.49190279  0.88019513  0.49368237  1
  O  O313  1  0.49763697  0.87651625  0.99234543  1
  O  O314  1  0.98234588  0.37793093  0.50274155  1
  O  O315  1  0.99480155  0.37726798  0.98847808  1
  O  O316  1  0.98954038  0.88551585  0.50413655  1
  O  O317  1  0.99308014  0.88735551  0.99427351  1
  O  O318  1  0.48907817  0.49949275  0.37873555  1
  O  O319  1  0.49417604  0.50532763  0.90088184  1
  O  O320  1  0.50224863  0.98905532  0.38354708  1
  O  O321  1  0.50414136  0.98474968  0.87734438  1
  O  O322  1  0.98541089  0.51179344  0.36211601  1
  O  O323  1  0.99749675  0.48544122  0.87601631  1
  O  O324  1  0.99268226  1.00103291  0.38225771  1
  O  O325  1  0.99906357  0.99428743  0.88304276  1
  O  O326  1  0.01213873  0.01039918  0.11969378  1
  O  O327  1  0.00933587  0.00002736  0.61687079  1
  O  O328  1  0.00555987  0.50120221  0.10720817  1
  O  O329  1  0.00568081  0.51026389  0.62451904  1
  O  O330  1  0.50280413  -0.00181988  0.11468152  1
  O  O331  1  0.49695265  0.01211676  0.61916255  1
  O  O332  1  0.49120830  0.50952653  0.11031301  1
  O  O333  1  0.49196194  0.51291201  0.60845587  1
  O  O334  1  0.23891592  0.37997698  0.24337524  1
  O  O335  1  0.23469219  0.36600797  0.73500553  1
  O  O336  1  0.24934125  0.88771894  0.24162466  1
  O  O337  1  0.24529287  0.85300320  0.75467136  1
  O  O338  1  0.73366663  0.37087393  0.25287078  1
  O  O339  1  0.75199390  0.37924992  0.73489413  1
  O  O340  1  0.74677182  0.89072726  0.24006093  1
  O  O341  1  0.74377940  0.86393567  0.74247348  1
  O  O342  1  0.24354095  0.10761079  0.25745143  1
  O  O343  1  0.25879396  0.12825963  0.75168652  1
  O  O344  1  0.25638319  0.62001706  0.25765816  1
  O  O345  1  0.24238408  0.64929042  0.74067730  1
  O  O346  1  0.76630494  0.11203227  0.23803077  1
  O  O347  1  0.70651595  0.11896551  0.78363017  1
  O  O348  1  0.73229193  0.62053070  0.26779006  1
  O  O349  1  0.75853024  0.61672830  0.75725968  1
  O  O350  1  0.36684439  0.13643648  0.35306825  1
  O  O351  1  0.36401023  0.12688815  0.85689227  1
  O  O352  1  0.36881697  0.61727665  0.37134534  1
  O  O353  1  0.36497469  0.61849178  0.87966230  1
  O  O354  1  0.88173432  0.11601985  0.36320613  1
  O  O355  1  0.88184373  0.10921309  0.88033320  1
  O  O356  1  0.84731805  0.62246724  0.37573780  1
  O  O357  1  0.86540707  0.61261507  0.86522840  1
  O  O358  1  0.12934704  0.38166057  0.13780133  1
  O  O359  1  0.12785535  0.38153717  0.62544476  1
  O  O360  1  0.13615853  0.88628573  0.12789291  1
  O  O361  1  0.11996466  0.88404702  0.61995134  1
  O  O362  1  0.63129901  0.36642229  0.13884751  1
  O  O363  1  0.64485268  0.36437797  0.61548435  1
  O  O364  1  0.62756701  0.88052600  0.12244477  1
  O  O365  1  0.63994483  0.87284371  0.62886909  1
  O  O366  1  0.11765812  0.25531664  0.26089759  1
  O  O367  1  0.11386285  0.25877135  0.75335998  1
  O  O368  1  0.14002949  0.76937479  0.24425554  1
  O  O369  1  0.10440798  0.75125885  0.76215714  1
  O  O370  1  0.61371444  0.24568182  0.25626519  1
  O  O371  1  0.60668763  0.25024545  0.76239127  1
  O  O372  1  0.61125665  0.74818225  0.26353779  1
  O  O373  1  0.61216693  0.76472865  0.75116340  1
  O  O374  1  0.39129814  0.24703565  0.24791818  1
  O  O375  1  0.37951281  0.24071995  0.73550973  1
  O  O376  1  0.38051890  0.74735302  0.24157439  1
  O  O377  1  0.39297630  0.75720174  0.73649488  1
  O  O378  1  0.88423494  0.24157692  0.24430426  1
  O  O379  1  0.88828718  0.25584811  0.73897324  1
  O  O380  1  0.87248147  0.73849860  0.25329475  1
  O  O381  1  0.88169228  0.73572368  0.74331348  1
  O  O382  1  0.38384879  0.48818932  0.48639407  1
  O  O383  1  0.38245840  0.48693335  1.00161164  1
  O  O384  1  0.38331071  0.98699991  0.50691536  1
  O  O385  1  0.38989483  0.98460085  1.00195174  1
  O  O386  1  0.87950929  0.48617395  0.50040928  1
  O  O387  1  0.88919347  0.48771407  0.98762655  1
  O  O388  1  0.88518206  0.99207480  0.49126221  1
  O  O389  1  0.88657012  0.99667967  0.99909300  1
  O  O390  1  0.11930782  0.00900533  0.00718035  1
  O  O391  1  0.12007069  0.00718921  0.50769449  1
  O  O392  1  0.11275154  0.48930625  0.00695300  1
  O  O393  1  0.12082906  0.50800195  0.50689092  1
  O  O394  1  0.61473744  -0.00735164  -0.00081144  1
  O  O395  1  0.60528646  -0.00675151  0.51037808  1
  O  O396  1  0.60896808  0.51515986  0.00381577  1
  O  O397  1  0.61032054  0.50583409  0.48752507  1
  O  O398  1  0.35379784  0.37575970  0.13172346  1
  O  O399  1  0.36491663  0.36833895  0.61603167  1
  O  O400  1  0.36945167  0.86738266  0.11967707  1
  O  O401  1  0.38401488  0.86463211  0.61193910  1
  O  O402  1  0.89457458  0.35298132  0.11797587  1
  O  O403  1  0.86416035  0.36612700  0.61782982  1
  O  O404  1  0.88466913  0.87422553  0.11044018  1
  O  O405  1  0.87271169  0.86527986  0.61961387  1
  O  O406  1  0.12195869  0.13190392  0.39052217  1
  O  O407  1  0.12770335  0.13102601  0.88037163  1
  O  O408  1  0.13859414  0.61620646  0.38525502  1
  O  O409  1  0.12214160  0.64234896  0.87469137  1
  O  O410  1  0.61506928  0.13415193  0.38251626  1
  O  O411  1  0.65187517  0.12557938  0.84154419  1
  O  O412  1  0.63081896  0.63462348  0.38119251  1
  O  O413  1  0.64094914  0.62423552  0.88203004  1
