# generated using pymatgen
data_V79Zn79O256
_symmetry_space_group_name_H-M   'P 1'
_cell_length_a   16.89674615
_cell_length_b   16.88918581
_cell_length_c   16.88719945
_cell_angle_alpha   89.79898534
_cell_angle_beta   90.08544152
_cell_angle_gamma   90.09939247
_symmetry_Int_Tables_number   1
_chemical_formula_structural   V79Zn79O256
_chemical_formula_sum   'V79 Zn79 O256'
_cell_volume   4819.09647549
_cell_formula_units_Z   1
loop_
 _symmetry_equiv_pos_site_id
 _symmetry_equiv_pos_as_xyz
  1  'x, y, z'
loop_
 _atom_site_type_symbol
 _atom_site_label
 _atom_site_symmetry_multiplicity
 _atom_site_fract_x
 _atom_site_fract_y
 _atom_site_fract_z
 _atom_site_occupancy
  V  V0  1  0.37628984  0.62276943  0.75064466  1
  V  V1  1  0.49350735  0.49897057  0.49418289  1
  V  V2  1  0.37233787  0.74440163  0.11233311  1
  V  V3  1  -0.00193758  0.73872598  0.75363468  1
  V  V4  1  0.24439306  0.25270146  0.00446812  1
  V  V5  1  0.87930689  -0.00153618  0.88143758  1
  V  V6  1  0.87515180  0.73991227  0.63124480  1
  V  V7  1  0.37215711  0.25074602  0.61933798  1
  V  V8  1  0.75842189  0.61947677  0.86607280  1
  V  V9  1  -0.00219489  0.00517089  0.50688939  1
  V  V10  1  0.88779932  0.38235602  -0.00173530  1
  V  V11  1  0.38829439  0.49170901  0.87997407  1
  V  V12  1  0.88096325  0.12698173  0.74327380  1
  V  V13  1  0.36476767  -0.00012353  0.38344831  1
  V  V14  1  0.75581889  0.75014492  0.00745884  1
  V  V15  1  0.24900536  0.61491420  0.37989894  1
  V  V16  1  0.36070389  0.12317338  0.25641432  1
  V  V17  1  0.00217000  0.50596158  0.47934124  1
  V  V18  1  0.61861621  0.12027229  0.00048038  1
  V  V19  1  0.62691343  0.50091502  0.62192842  1
  V  V20  1  0.75885748  0.12048806  0.36801739  1
  V  V21  1  0.71426184  0.62333787  0.37822266  1
  V  V22  1  0.88249091  0.25483714  0.62674714  1
  V  V23  1  0.62942449  0.36749297  0.25934004  1
  V  V24  1  0.62845594  0.37678628  0.76001161  1
  V  V25  1  0.00471000  0.25145619  0.25118564  1
  V  V26  1  0.25348092  0.87486309  0.61992389  1
  V  V27  1  0.00124834  0.25527195  0.76506270  1
  V  V28  1  0.62213630  0.88048316  0.25401857  1
  V  V29  1  0.49998553  0.24567876  0.25082522  1
  V  V30  1  0.75179060  0.87314982  0.62610385  1
  V  V31  1  0.24780823  0.62682947  0.88925392  1
  V  V32  1  0.13243621  -0.00439944  0.13258321  1
  V  V33  1  0.37462854  0.12293449  0.75667999  1
  V  V34  1  0.12269160  0.50804846  0.62262789  1
  V  V35  1  0.74403976  0.12966883  0.87231092  1
  V  V36  1  0.24898100  0.49942223  0.75122171  1
  V  V37  1  0.39022853  0.36689633  0.00277963  1
  V  V38  1  0.49554546  0.36889755  0.37714534  1
  V  V39  1  0.75227905  0.00224504  0.74858044  1
  V  V40  1  0.25438128  0.00063815  0.75832021  1
  V  V41  1  0.00064106  0.87683091  0.88184493  1
  V  V42  1  0.49591716  0.87198164  0.38369565  1
  V  V43  1  0.37345214  0.89064678  0.00007871  1
  V  V44  1  0.25471987  0.49611731  0.24272053  1
  V  V45  1  0.24542683  0.13443454  0.86897344  1
  V  V46  1  0.13143700  0.75976153  0.35481337  1
  V  V47  1  0.12056000  0.36699155  0.76406068  1
  V  V48  1  0.50516152  0.25664127  0.75966917  1
  V  V49  1  0.49124590  0.11538290  0.12652003  1
  V  V50  1  0.50402081  0.61635870  0.12313842  1
  V  V51  1  0.74904881  0.37700812  0.12737047  1
  V  V52  1  0.87653300  0.24508281  0.12165365  1
  V  V53  1  0.75594602  0.38424889  0.62810324  1
  V  V54  1  0.62513916  0.00266092  0.62183927  1
  V  V55  1  -0.03834280  0.67084066  0.13682917  1
  V  V56  1  0.50239936  0.74733593  0.25244457  1
  V  V57  1  0.49869749  0.88950721  0.88120794  1
  V  V58  1  0.88186867  0.38032750  0.48320264  1
  V  V59  1  0.87727043  0.87446421  0.49447676  1
  V  V60  1  0.12961284  0.74622877  0.89080291  1
  V  V61  1  0.75018687  0.88041810  0.12964075  1
  V  V62  1  0.12113233  0.01503670  0.62561193  1
  V  V63  1  0.74028055  0.74671351  0.48965568  1
  V  V64  1  0.50461246  0.62424397  0.61817184  1
  V  V65  1  0.00817250  0.87627510  0.36881796  1
  V  V66  1  0.12039600  0.11885555  -0.00890286  1
  V  V67  1  0.74224422  0.25034061  -0.00336671  1
  V  V68  1  -0.00330163  0.11246443  0.11292324  1
  V  V69  1  0.49998476  0.74817021  0.75190471  1
  V  V70  1  0.49964106  0.12544414  0.62209393  1
  V  V71  1  0.12726159  0.87089142  0.75184079  1
  V  V72  1  0.88696040  0.50125604  0.86819595  1
  V  V73  1  0.24927493  0.36557455  0.62259461  1
  V  V74  1  0.62403382  0.74759519  0.87634121  1
  V  V75  1  0.62394621  0.61533806  0.00234076  1
  V  V76  1  0.23933911  0.74825846  0.50404230  1
  V  V77  1  0.11412979  0.50463341  0.11164331  1
  V  V78  1  0.37486656  0.75375236  0.62043496  1
  Zn  Zn79  1  0.00143616  0.62517542  0.62043219  1
  Zn  Zn80  1  0.49237187  -0.00580585  0.50557517  1
  Zn  Zn81  1  0.24033251  0.86572829  0.13143511  1
  Zn  Zn82  1  0.61468340  -0.00534845  0.11950310  1
  Zn  Zn83  1  0.25241428  0.36790698  0.12671047  1
  Zn  Zn84  1  0.62222833  0.49371795  0.12613026  1
  Zn  Zn85  1  0.62112031  0.14316408  0.47840643  1
  Zn  Zn86  1  0.74854749  0.25260972  0.49141582  1
  Zn  Zn87  1  0.36467834  0.37787896  0.48963112  1
  Zn  Zn88  1  0.62474387  0.87516575  0.75298848  1
  Zn  Zn89  1  0.38085937  0.61971931  0.25586743  1
  Zn  Zn90  1  0.87520493  0.10382593  0.25327186  1
  Zn  Zn91  1  0.12318435  0.37146962  0.25107747  1
  Zn  Zn92  1  0.88124921  0.87344880  0.00735246  1
  Zn  Zn93  1  0.75832505  0.50873463  0.25799209  1
  Zn  Zn94  1  0.18386520  0.18094637  0.18088815  1
  Zn  Zn95  1  0.16891987  0.18370985  0.44828476  1
  Zn  Zn96  1  0.18964727  0.67957537  0.18549754  1
  Zn  Zn97  1  0.18797336  0.68703778  0.69479099  1
  Zn  Zn98  1  0.68437383  0.18256105  0.19087891  1
  Zn  Zn99  1  0.67223888  0.21033098  0.65086905  1
  Zn  Zn100  1  0.68746200  0.69156344  0.19116321  1
  Zn  Zn101  1  0.68831012  0.68645021  0.68729518  1
  Zn  Zn102  1  0.30912633  0.30650931  0.31450860  1
  Zn  Zn103  1  0.31371873  0.31131388  0.81122971  1
  Zn  Zn104  1  0.31345554  0.81234574  0.31009512  1
  Zn  Zn105  1  0.31626893  0.81144757  0.81595889  1
  Zn  Zn106  1  0.81434493  0.29927383  0.31007238  1
  Zn  Zn107  1  0.81342296  0.31657705  0.81343039  1
  Zn  Zn108  1  0.81683583  0.93859637  0.31243396  1
  Zn  Zn109  1  0.81443970  0.80990013  0.81489892  1
  Zn  Zn110  1  0.17954876  0.43282228  0.43813598  1
  Zn  Zn111  1  0.19018239  0.43900748  0.93989122  1
  Zn  Zn112  1  0.15947116  0.98563789  0.40935481  1
  Zn  Zn113  1  0.19093147  0.93525795  0.94276048  1
  Zn  Zn114  1  0.68545248  0.43624316  0.44194262  1
  Zn  Zn115  1  0.69364668  0.43817575  0.93846076  1
  Zn  Zn116  1  0.68237634  0.94148348  0.43699109  1
  Zn  Zn117  1  0.68689148  0.93841381  0.93792543  1
  Zn  Zn118  1  0.31126122  0.06785553  0.06259271  1
  Zn  Zn119  1  0.30239629  0.06740068  0.56064139  1
  Zn  Zn120  1  0.31931578  0.55578151  0.06366690  1
  Zn  Zn121  1  0.31263064  0.56348376  0.56248852  1
  Zn  Zn122  1  0.80653804  0.05903761  0.06258567  1
  Zn  Zn123  1  0.81425591  0.06733586  0.55383306  1
  Zn  Zn124  1  0.81960073  0.56406573  0.06670020  1
  Zn  Zn125  1  0.81448773  0.56128915  0.55198335  1
  Zn  Zn126  1  0.43475539  0.43145159  0.18986106  1
  Zn  Zn127  1  0.43853848  0.43782162  0.68777759  1
  Zn  Zn128  1  0.40526277  0.92305279  0.20336063  1
  Zn  Zn129  1  0.43830370  0.93633093  0.69352639  1
  Zn  Zn130  1  0.93720731  0.44227094  0.19543497  1
  Zn  Zn131  1  0.94194011  0.44165697  0.68875956  1
  Zn  Zn132  1  0.94641273  0.92558171  0.17869419  1
  Zn  Zn133  1  0.93798973  0.93162498  0.69085473  1
  Zn  Zn134  1  0.06032549  0.07795633  0.30430678  1
  Zn  Zn135  1  0.06285893  0.06363855  0.80879144  1
  Zn  Zn136  1  0.06794967  0.57294230  0.29386110  1
  Zn  Zn137  1  0.06734741  0.55808633  0.81799941  1
  Zn  Zn138  1  0.56013913  0.05776502  0.31478678  1
  Zn  Zn139  1  0.56603354  0.06722021  0.80654561  1
  Zn  Zn140  1  0.56334970  0.55174489  0.30774993  1
  Zn  Zn141  1  0.56816693  0.56200810  0.80952488  1
  Zn  Zn142  1  0.43138805  0.18751201  0.43633279  1
  Zn  Zn143  1  0.43603491  0.18742420  0.93965006  1
  Zn  Zn144  1  0.43339772  0.68815705  0.43781391  1
  Zn  Zn145  1  0.43910681  0.68106573  0.93725224  1
  Zn  Zn146  1  0.97881831  0.21089489  0.45886450  1
  Zn  Zn147  1  0.93115901  0.18835354  0.93708304  1
  Zn  Zn148  1  0.94759856  0.69963243  0.44387999  1
  Zn  Zn149  1  0.94472779  0.68220160  0.94669030  1
  Zn  Zn150  1  0.06788795  0.31421819  0.06693601  1
  Zn  Zn151  1  0.06580935  0.31810060  0.56931677  1
  Zn  Zn152  1  0.05933031  0.80802685  0.07037015  1
  Zn  Zn153  1  0.06256049  0.81504004  0.56624834  1
  Zn  Zn154  1  0.56310968  0.30296058  0.07057536  1
  Zn  Zn155  1  0.55995809  0.31671599  0.56403233  1
  Zn  Zn156  1  0.56022509  0.80828314  0.06361101  1
  Zn  Zn157  1  0.56538940  0.81158464  0.56586002  1
  O  O158  1  0.11531927  0.11484394  0.11201709  1
  O  O159  1  0.12207543  0.11005720  0.63152513  1
  O  O160  1  0.13374794  0.60507010  0.12499797  1
  O  O161  1  0.12880216  0.61231323  0.62922667  1
  O  O162  1  0.61360785  0.12128294  0.11853960  1
  O  O163  1  0.61283833  0.11280585  0.63777046  1
  O  O164  1  0.62092008  0.62329930  0.11858153  1
  O  O165  1  0.61439954  0.61541784  0.63450824  1
  O  O166  1  0.38865278  0.36807005  0.37512718  1
  O  O167  1  0.37344613  0.38541474  0.88007341  1
  O  O168  1  0.38944504  0.88516757  0.37162979  1
  O  O169  1  0.38789931  0.86991663  0.88732050  1
  O  O170  1  0.87269781  0.36867845  0.38567897  1
  O  O171  1  0.86612487  0.38880396  0.88833489  1
  O  O172  1  0.88899311  0.87127074  0.38690394  1
  O  O173  1  0.88371767  0.88197960  0.87352162  1
  O  O174  1  0.26817131  -0.01752920  0.37615231  1
  O  O175  1  0.24603385  0.00659955  0.86322889  1
  O  O176  1  0.24159862  0.51113646  0.37279201  1
  O  O177  1  0.25521370  0.50937697  0.86708195  1
  O  O178  1  0.75535630  0.00384841  0.38062444  1
  O  O179  1  0.75675994  0.00418151  0.86562615  1
  O  O180  1  0.73826502  0.52157550  0.38498136  1
  O  O181  1  0.75719519  0.51590491  0.87937994  1
  O  O182  1  0.24786547  0.49952354  0.13560636  1
  O  O183  1  0.24641386  0.49593512  0.63623591  1
  O  O184  1  0.23448812  1.00700010  0.12208398  1
  O  O185  1  0.23922624  0.99365992  0.63363289  1
  O  O186  1  0.75177734  0.48394198  0.12503455  1
  O  O187  1  0.74214207  0.49502839  0.61695219  1
  O  O188  1  0.73834957  0.98318290  0.11481827  1
  O  O189  1  0.74666769  0.99348769  0.63040265  1
  O  O190  1  0.00126623  0.35585047  0.24360276  1
  O  O191  1  0.01375810  0.37344859  0.75162382  1
  O  O192  1  0.00070671  0.88082602  0.27082624  1
  O  O193  1  0.01042107  0.86412804  0.75973347  1
  O  O194  1  0.50590807  0.36713745  0.25729405  1
  O  O195  1  0.50912554  0.36431829  0.74560492  1
  O  O196  1  0.50441876  0.86802078  0.25753856  1
  O  O197  1  0.49965762  0.86676237  0.76512495  1
  O  O198  1  0.49960011  0.12971514  0.24219747  1
  O  O199  1  0.49392999  0.13394489  0.74389521  1
  O  O200  1  0.50228226  0.62923970  0.24413023  1
  O  O201  1  0.49558094  0.62847156  0.74106567  1
  O  O202  1  0.99180308  0.12958108  0.22852784  1
  O  O203  1  0.98751629  0.13472018  0.75577722  1
  O  O204  1  1.00674017  0.63449936  0.22242290  1
  O  O205  1  1.00925987  0.63680191  0.75102383  1
  O  O206  1  0.36341614  0.26113664  -0.00952632  1
  O  O207  1  0.38364442  0.25839467  0.51602164  1
  O  O208  1  0.37912226  0.74757679  0.00927788  1
  O  O209  1  0.36400407  0.74601068  0.51557028  1
  O  O210  1  0.86388704  0.25934178  0.00315278  1
  O  O211  1  0.88644496  0.26771862  0.51100217  1
  O  O212  1  0.85733083  0.75422535  -0.00848810  1
  O  O213  1  0.86756058  0.75784036  0.50979535  1
  O  O214  1  0.08354562  0.24264714  0.49162548  1
  O  O215  1  0.13767272  0.23939008  1.00081688  1
  O  O216  1  0.13717426  0.75039547  0.50370946  1
  O  O217  1  0.12653818  0.75630774  0.98956007  1
  O  O218  1  0.63770709  0.24084163  0.53663380  1
  O  O219  1  0.63482046  0.23840809  1.00398671  1
  O  O220  1  0.64299951  0.74760301  0.51495774  1
  O  O221  1  0.63133724  0.74049472  0.99052683  1
  O  O222  1  0.49703057  0.24021820  0.14226797  1
  O  O223  1  0.49172486  0.24299490  0.63568686  1
  O  O224  1  0.49462068  0.73615443  0.13027708  1
  O  O225  1  0.49429583  0.74443023  0.62996354  1
  O  O226  1  0.99166428  0.23864377  0.12224501  1
  O  O227  1  0.98687247  0.26337414  0.64214081  1
  O  O228  1  0.97623854  0.77510496  0.13833816  1
  O  O229  1  0.99367573  0.74753221  0.63432254  1
  O  O230  1  -0.01139435  0.23184032  0.34748117  1
  O  O231  1  -0.00915102  0.25425419  0.86481316  1
  O  O232  1  0.02279804  0.76131356  0.38065733  1
  O  O233  1  0.00847479  0.75278640  0.87172738  1
  O  O234  1  0.50137504  0.25576932  0.36817600  1
  O  O235  1  0.49872298  0.24433755  0.85823733  1
  O  O236  1  0.49009207  0.76196112  0.36820637  1
  O  O237  1  0.50997134  0.74721620  0.87081982  1
  O  O238  1  0.26002513  0.15050145  0.50289606  1
  O  O239  1  0.24690962  0.13380850  0.98854765  1
  O  O240  1  0.25072702  0.63066017  0.48845863  1
  O  O241  1  0.25730222  0.61890114  0.98699132  1
  O  O242  1  0.74691114  0.12861232  0.48949636  1
  O  O243  1  0.74196876  0.13091226  0.99212539  1
  O  O244  1  0.75810633  0.63815588  0.48678104  1
  O  O245  1  0.74356263  0.63713141  0.99624230  1
  O  O246  1  0.25343300  0.35939903  -0.00371266  1
  O  O247  1  0.25003898  0.38469982  0.51930032  1
  O  O248  1  0.26936211  0.87635109  0.00499595  1
  O  O249  1  0.24895020  0.86646660  0.51921723  1
  O  O250  1  0.75063391  0.36521984  0.00791265  1
  O  O251  1  0.76539404  0.37687973  0.50766955  1
  O  O252  1  0.74299058  0.86248607  0.00638593  1
  O  O253  1  0.75578721  0.86644399  0.50712778  1
  O  O254  1  0.14004382  0.49342028  0.24673808  1
  O  O255  1  0.13246319  0.49246197  0.74486116  1
  O  O256  1  0.11737511  1.00273137  0.23106779  1
  O  O257  1  0.13063037  0.99041205  0.74306385  1
  O  O258  1  0.63525312  0.48291265  0.24712021  1
  O  O259  1  0.61616254  0.48505483  0.73798839  1
  O  O260  1  0.61544639  0.98234953  0.24292928  1
  O  O261  1  0.63744511  0.99721852  0.74326213  1
  O  O262  1  0.38431399  0.01737061  0.26627639  1
  O  O263  1  0.36534991  0.00993132  0.74384774  1
  O  O264  1  0.36153274  0.50103060  0.24864642  1
  O  O265  1  0.36817121  0.50032903  0.76015175  1
  O  O266  1  0.87657720  -0.00767786  0.23628044  1
  O  O267  1  0.86935941  0.00644392  0.75314102  1
  O  O268  1  0.86671557  0.48844643  0.26326941  1
  O  O269  1  0.87759809  0.49422689  0.76852964  1
  O  O270  1  0.15404389  0.34465419  0.36822132  1
  O  O271  1  0.13155242  0.37935908  0.86210773  1
  O  O272  1  0.12006253  0.87062690  0.37904813  1
  O  O273  1  0.12278821  0.86878673  0.86935936  1
  O  O274  1  0.61719273  0.37514356  0.36784358  1
  O  O275  1  0.63194358  0.38081235  0.85937552  1
  O  O276  1  0.61312786  0.87827666  0.36302764  1
  O  O277  1  0.61483921  0.86598806  0.87632356  1
  O  O278  1  0.38329012  0.12142997  0.13917630  1
  O  O279  1  0.38191629  0.13153382  0.63568322  1
  O  O280  1  0.38531855  0.63156051  0.12315762  1
  O  O281  1  0.38303885  0.63204943  0.63155067  1
  O  O282  1  0.88073462  0.13124780  0.11119227  1
  O  O283  1  0.86745226  0.13769946  0.63572153  1
  O  O284  1  0.86219264  0.64080478  0.13678196  1
  O  O285  1  0.87219980  0.63734807  0.62201671  1
  O  O286  1  0.25269886  0.24424142  0.10781379  1
  O  O287  1  0.25578643  0.26483702  0.63039557  1
  O  O288  1  0.26966934  0.74538937  0.12868223  1
  O  O289  1  0.25633266  0.75334879  0.62450352  1
  O  O290  1  0.75678459  0.25263963  0.11544355  1
  O  O291  1  0.76863468  0.26693407  0.62512174  1
  O  O292  1  0.74076526  0.75946200  0.11231160  1
  O  O293  1  0.75719691  0.75776110  0.62602220  1
  O  O294  1  0.21282390  0.28268934  0.37827552  1
  O  O295  1  0.25118288  0.24034654  0.87942449  1
  O  O296  1  0.24240906  0.75553809  0.38435136  1
  O  O297  1  0.24643216  0.73460285  0.87035375  1
  O  O298  1  0.75077384  0.23310706  0.37674105  1
  O  O299  1  0.75736539  0.23977177  0.88349705  1
  O  O300  1  0.73818555  0.74487641  0.38898810  1
  O  O301  1  0.74235236  0.74377283  0.88291558  1
  O  O302  1  0.00913636  0.13169377  0.00060801  1
  O  O303  1  -0.01420740  0.10236842  0.50296194  1
  O  O304  1  -0.00583417  0.64590774  0.04154420  1
  O  O305  1  -0.00918336  0.61050275  0.50061010  1
  O  O306  1  0.50379176  0.13579901  0.01633986  1
  O  O307  1  0.50157580  0.12599451  0.51463580  1
  O  O308  1  0.51283195  0.62796187  0.00916806  1
  O  O309  1  0.49324262  0.61922635  0.51170728  1
  O  O310  1  0.49774558  0.38062018  0.49332371  1
  O  O311  1  0.48951443  0.36052080  1.00119232  1
  O  O312  1  0.50563074  0.87011946  0.48776349  1
  O  O313  1  0.49778177  0.87255676  0.98608412  1
  O  O314  1  0.98886298  0.39055659  0.50135113  1
  O  O315  1  0.98532761  0.36661775  1.00101285  1
  O  O316  1  0.99215186  0.87480056  0.49836418  1
  O  O317  1  0.99873131  0.86865464  0.98489697  1
  O  O318  1  0.50346396  0.48832363  0.38543600  1
  O  O319  1  0.48648531  0.50551043  0.87096706  1
  O  O320  1  0.49489559  0.98655870  0.38221263  1
  O  O321  1  0.50516190  0.98798494  0.86856800  1
  O  O322  1  1.01549104  0.50905192  0.38103751  1
  O  O323  1  0.98616914  0.51175831  0.88225354  1
  O  O324  1  1.00993813  0.98385059  0.39652296  1
  O  O325  1  0.99096981  0.98923061  0.86443754  1
  O  O326  1  0.00752037  0.00636173  0.11514979  1
  O  O327  1  0.01153726  -0.00983128  0.62279758  1
  O  O328  1  0.01458286  0.49187041  0.12867169  1
  O  O329  1  0.01014467  0.50550747  0.62337729  1
  O  O330  1  0.49525645  0.01441026  0.13032172  1
  O  O331  1  0.50599820  0.00542266  0.62868183  1
  O  O332  1  0.50023496  0.51188602  0.13333213  1
  O  O333  1  0.50451518  0.50675643  0.61964522  1
  O  O334  1  0.25591396  0.38598301  0.24738381  1
  O  O335  1  0.24201331  0.38172717  0.74505878  1
  O  O336  1  0.29632573  0.88469944  0.22677897  1
  O  O337  1  0.24560779  0.88076220  0.74931907  1
  O  O338  1  0.74294610  0.36233280  0.24039705  1
  O  O339  1  0.73743632  0.37076182  0.74194028  1
  O  O340  1  0.73423538  0.87135630  0.23885863  1
  O  O341  1  0.75318821  0.88414407  0.74308216  1
  O  O342  1  0.26200211  0.12914686  0.24766164  1
  O  O343  1  0.25863966  0.11704320  0.75622906  1
  O  O344  1  0.25293039  0.61161944  0.25999840  1
  O  O345  1  0.25714391  0.61450421  0.75612089  1
  O  O346  1  0.75440456  0.12483335  0.25861605  1
  O  O347  1  0.75887777  0.11597881  0.75621989  1
  O  O348  1  0.73325002  0.62880482  0.27381245  1
  O  O349  1  0.75180735  0.63146222  0.76710234  1
  O  O350  1  0.37519692  0.11372508  0.36886755  1
  O  O351  1  0.36727008  0.12874768  0.86357702  1
  O  O352  1  0.35423749  0.63562068  0.37183202  1
  O  O353  1  0.36686864  0.61356151  0.87184217  1
  O  O354  1  0.86155847  0.11886833  0.37264197  1
  O  O355  1  0.86553329  0.11637522  0.86767857  1
  O  O356  1  0.88351488  0.66528069  0.34072823  1
  O  O357  1  0.86625271  0.61666984  0.88534710  1
  O  O358  1  0.13510512  0.38396154  0.12878207  1
  O  O359  1  0.13662206  0.38462081  0.63494966  1
  O  O360  1  0.12812824  0.89004902  0.11221173  1
  O  O361  1  0.13534462  0.87053181  0.64111482  1
  O  O362  1  0.63328056  0.37235911  0.13256608  1
  O  O363  1  0.63599544  0.38348036  0.63145018  1
  O  O364  1  0.62663516  0.87415739  0.13214628  1
  O  O365  1  0.63543909  0.88209342  0.63052041  1
  O  O366  1  0.10891131  0.24384719  0.23765527  1
  O  O367  1  0.11556760  0.26498050  0.75124859  1
  O  O368  1  0.14083190  0.76239481  0.25580291  1
  O  O369  1  0.12069406  0.75622170  0.76128441  1
  O  O370  1  0.61499263  0.25867120  0.24666937  1
  O  O371  1  0.61410538  0.26111549  0.74262278  1
  O  O372  1  0.60987618  0.76224629  0.24419167  1
  O  O373  1  0.62088140  0.75095372  0.76078343  1
  O  O374  1  0.38329921  0.23267788  0.26254459  1
  O  O375  1  0.38450207  0.24476913  0.74293291  1
  O  O376  1  0.38977712  0.74562802  0.23720124  1
  O  O377  1  0.37981742  0.74250063  0.74347877  1
  O  O378  1  0.88222625  0.24728378  0.22983315  1
  O  O379  1  0.87979853  0.24590460  0.74790595  1
  O  O380  1  0.87951061  0.71785455  0.28836936  1
  O  O381  1  0.88685972  0.75550401  0.74399888  1
  O  O382  1  0.38772562  0.49498783  0.50836113  1
  O  O383  1  0.37244895  0.48538394  0.98685570  1
  O  O384  1  0.37589088  1.00666277  0.49006215  1
  O  O385  1  0.37837222  0.98989452  1.00660410  1
  O  O386  1  0.88675519  0.49110735  0.49503291  1
  O  O387  1  0.87288790  0.48676504  0.99851880  1
  O  O388  1  0.88744852  0.98417822  0.51704952  1
  O  O389  1  0.86771020  0.99532009  0.98468528  1
  O  O390  1  0.12952622  0.01386976  0.00097841  1
  O  O391  1  0.11301135  -0.00825605  0.51925813  1
  O  O392  1  0.12694658  0.49521660  0.01100941  1
  O  O393  1  0.11007492  0.49201882  0.50855103  1
  O  O394  1  0.62475184  0.01520679  -0.00203387  1
  O  O395  1  0.62040384  -0.00117819  0.51703435  1
  O  O396  1  0.63211994  0.51136159  0.00289840  1
  O  O397  1  0.61077884  0.49400244  0.51452237  1
  O  O398  1  0.37125982  0.38040720  0.10588771  1
  O  O399  1  0.36218105  0.36906847  0.63275472  1
  O  O400  1  0.39512921  0.85812425  0.10480959  1
  O  O401  1  0.36726424  0.86366362  0.63672373  1
  O  O402  1  0.86785310  0.36570958  0.11234058  1
  O  O403  1  0.86864351  0.37618991  0.62656935  1
  O  O404  1  0.85367390  0.87673014  0.12189416  1
  O  O405  1  0.86646746  0.86521410  0.62129124  1
  O  O406  1  0.13344643  0.09512389  0.38387481  1
  O  O407  1  0.13386552  0.12220801  0.87770919  1
  O  O408  1  0.14070953  0.64659834  0.36462283  1
  O  O409  1  0.13998892  0.62994229  0.87468006  1
  O  O410  1  0.63894223  0.11163916  0.37294163  1
  O  O411  1  0.63676293  0.12197743  0.87958574  1
  O  O412  1  0.61518794  0.62531917  0.38466079  1
  O  O413  1  0.63580087  0.62833586  0.88061825  1
