# generated using pymatgen
data_V79Zn79O256
_symmetry_space_group_name_H-M   'P 1'
_cell_length_a   16.90920188
_cell_length_b   16.92353651
_cell_length_c   16.90348324
_cell_angle_alpha   89.79314792
_cell_angle_beta   89.74379681
_cell_angle_gamma   89.99091958
_symmetry_Int_Tables_number   1
_chemical_formula_structural   V79Zn79O256
_chemical_formula_sum   'V79 Zn79 O256'
_cell_volume   4837.07991769
_cell_formula_units_Z   1
loop_
 _symmetry_equiv_pos_site_id
 _symmetry_equiv_pos_as_xyz
  1  'x, y, z'
loop_
 _atom_site_type_symbol
 _atom_site_label
 _atom_site_symmetry_multiplicity
 _atom_site_fract_x
 _atom_site_fract_y
 _atom_site_fract_z
 _atom_site_occupancy
  V  V0  1  0.49586855  -0.00066950  0.51494384  1
  V  V1  1  -0.00179671  0.24891754  0.75073098  1
  V  V2  1  0.37841061  0.87189822  0.48709823  1
  V  V3  1  0.25239905  0.12862388  0.38642782  1
  V  V4  1  0.87537802  0.61984263  0.26287876  1
  V  V5  1  0.37211482  0.75539592  0.62462517  1
  V  V6  1  0.62820636  0.09661175  0.00727856  1
  V  V7  1  0.75227428  -0.00384006  0.74334449  1
  V  V8  1  0.12680684  0.37511366  0.24947907  1
  V  V9  1  0.26349484  0.24865647  -0.00144990  1
  V  V10  1  0.25160934  0.63041409  0.36970999  1
  V  V11  1  0.38297339  0.01205065  0.87813169  1
  V  V12  1  0.74189865  0.62389357  0.38657081  1
  V  V13  1  0.87436786  0.87641740  -0.02339098  1
  V  V14  1  0.38703184  0.87872473  0.00650641  1
  V  V15  1  0.11676287  0.50006267  0.11821707  1
  V  V16  1  0.63012844  0.87351443  0.74427722  1
  V  V17  1  0.73735674  0.24924326  0.49488837  1
  V  V18  1  0.87373976  0.12741967  0.24651688  1
  V  V19  1  0.86401877  0.26212207  0.11272105  1
  V  V20  1  0.87229802  0.24458817  0.62397332  1
  V  V21  1  0.50433034  0.51314210  -0.00065454  1
  V  V22  1  0.24999385  0.01157571  0.24735958  1
  V  V23  1  0.48998706  0.74538536  0.26626304  1
  V  V24  1  0.37280346  0.49049981  0.36591584  1
  V  V25  1  0.74573754  0.37196047  0.62521132  1
  V  V26  1  0.62327298  0.50011682  0.62008433  1
  V  V27  1  0.12153991  0.37739058  0.74410083  1
  V  V28  1  -0.00015812  0.62878110  0.13071609  1
  V  V29  1  -0.01409757  0.38157160  0.88766290  1
  V  V30  1  0.61936100  0.12024914  0.50434078  1
  V  V31  1  0.12404755  0.61239416  0.50946153  1
  V  V32  1  0.49500209  0.37360361  0.88155603  1
  V  V33  1  0.11868682  0.24780151  0.88995160  1
  V  V34  1  0.12222675  0.00500945  0.12166723  1
  V  V35  1  0.86323488  0.87414787  0.51046150  1
  V  V36  1  0.87360073  0.11830339  0.75491572  1
  V  V37  1  0.00110295  0.38407242  0.37797486  1
  V  V38  1  0.24755164  0.87147331  0.12077455  1
  V  V39  1  0.50206131  0.62294087  0.61972355  1
  V  V40  1  0.12132390  0.63253510  -0.00203787  1
  V  V41  1  0.11946655  0.76143065  0.86769629  1
  V  V42  1  0.25798455  0.37807889  0.11946152  1
  V  V43  1  0.24272822  0.62691704  0.87828995  1
  V  V44  1  0.51240210  0.26142851  0.23938129  1
  V  V45  1  0.00253164  0.86357267  0.37661123  1
  V  V46  1  -0.00078840  0.12528720  0.11933063  1
  V  V47  1  0.62903312  0.24852665  0.89021141  1
  V  V48  1  0.74614070  -0.00969306  0.23861708  1
  V  V49  1  0.62556280  0.37220188  0.75264684  1
  V  V50  1  0.74397593  0.12643167  0.37370018  1
  V  V51  1  0.37061114  0.48967584  0.87897203  1
  V  V52  1  0.13383253  0.00258882  0.63447247  1
  V  V53  1  0.87563657  0.37708222  0.49520366  1
  V  V54  1  0.87814011  0.76073188  0.13597219  1
  V  V55  1  0.87374354  0.51445926  0.88363167  1
  V  V56  1  0.87861206  0.00080625  0.37671130  1
  V  V57  1  0.37160289  0.73628153  0.12440356  1
  V  V58  1  0.12674147  0.24418570  0.38712700  1
  V  V59  1  0.11897753  0.86665763  0.25501671  1
  V  V60  1  0.49264945  0.49430118  0.49900567  1
  V  V61  1  0.26164594  0.36883519  0.61695326  1
  V  V62  1  0.50053868  0.75140445  0.75528479  1
  V  V63  1  0.24180599  0.75311130  0.50015748  1
  V  V64  1  0.50173466  0.23527475  0.74534100  1
  V  V65  1  0.63726867  0.73728223  0.87813720  1
  V  V66  1  -0.00006682  -0.00562000  -0.01286828  1
  V  V67  1  0.24194807  0.49639877  0.74448382  1
  V  V68  1  0.52212215  0.37327596  0.36726924  1
  V  V69  1  0.75038760  0.12049806  0.87885037  1
  V  V70  1  0.37351359  0.62184488  0.75073759  1
  V  V71  1  0.74318916  0.49532849  0.24770000  1
  V  V72  1  0.62922519  0.75688128  0.38450268  1
  V  V73  1  0.49995423  0.10373350  0.12654910  1
  V  V74  1  -0.00050591  0.75399016  0.73513992  1
  V  V75  1  0.86774278  0.73350386  0.62263522  1
  V  V76  1  0.75647503  0.73844769  -0.00116400  1
  V  V77  1  0.75370203  0.51144018  0.75611291  1
  V  V78  1  0.38201519  0.00023787  0.36656931  1
  Zn  Zn79  1  0.64425072  0.52049539  0.11342679  1
  Zn  Zn80  1  0.50852622  0.87560788  0.88751565  1
  Zn  Zn81  1  0.50883268  0.62298073  0.13242551  1
  Zn  Zn82  1  0.01032351  0.00883923  0.49993654  1
  Zn  Zn83  1  0.37464553  0.24022244  0.13749780  1
  Zn  Zn84  1  0.23866788  0.11245055  0.87443677  1
  Zn  Zn85  1  -0.00183248  0.50238956  0.51606834  1
  Zn  Zn86  1  -0.00135086  0.25293966  0.24825486  1
  Zn  Zn87  1  0.22566541  0.87258158  0.66547307  1
  Zn  Zn88  1  0.01948004  0.13060339  0.60884308  1
  Zn  Zn89  1  0.36099413  0.12245386  0.73142608  1
  Zn  Zn90  1  0.25455304  0.50627600  0.24475871  1
  Zn  Zn91  1  0.35623566  0.22976711  0.58613642  1
  Zn  Zn92  1  0.61753511  0.87769350  0.24329837  1
  Zn  Zn93  1  0.62325473  -0.00266790  0.62691417  1
  Zn  Zn94  1  0.18392939  0.19158254  0.18495224  1
  Zn  Zn95  1  0.19006936  0.18605620  0.69312011  1
  Zn  Zn96  1  0.18590760  0.68848410  0.18802250  1
  Zn  Zn97  1  0.18648355  0.68949705  0.68984722  1
  Zn  Zn98  1  0.68719294  0.18605438  0.18193435  1
  Zn  Zn99  1  0.68294904  0.18456693  0.68888305  1
  Zn  Zn100  1  0.67165637  0.71596204  0.17549320  1
  Zn  Zn101  1  0.68617974  0.68816848  0.68379908  1
  Zn  Zn102  1  0.31834630  0.30768276  0.30962575  1
  Zn  Zn103  1  0.30148646  0.28880144  0.79923245  1
  Zn  Zn104  1  0.30693408  0.81478566  0.30722265  1
  Zn  Zn105  1  0.30767156  0.81478928  0.82816742  1
  Zn  Zn106  1  0.81242637  0.31218916  0.31045433  1
  Zn  Zn107  1  0.80871276  0.30841945  0.81557406  1
  Zn  Zn108  1  0.81221853  0.81009643  0.31961456  1
  Zn  Zn109  1  0.81666249  0.80750635  0.80249955  1
  Zn  Zn110  1  0.18924652  0.43626833  0.43754846  1
  Zn  Zn111  1  0.17894919  0.43610305  0.93452962  1
  Zn  Zn112  1  0.18796273  0.94186246  0.44439986  1
  Zn  Zn113  1  0.19332993  0.93935689  0.93959126  1
  Zn  Zn114  1  0.69226154  0.44348560  0.43674590  1
  Zn  Zn115  1  0.68604996  0.44220087  0.93736030  1
  Zn  Zn116  1  0.68496436  0.93827403  0.43426635  1
  Zn  Zn117  1  0.69421423  0.92792847  0.92897385  1
  Zn  Zn118  1  0.31329701  0.06359234  0.05913579  1
  Zn  Zn119  1  0.30799112  0.05452973  0.56125825  1
  Zn  Zn120  1  0.30885592  0.55785425  0.05574280  1
  Zn  Zn121  1  0.31153536  0.56015459  0.55990814  1
  Zn  Zn122  1  0.81718145  0.05930234  0.05920632  1
  Zn  Zn123  1  0.81646812  0.06223863  0.56066797  1
  Zn  Zn124  1  0.82319287  0.56362835  0.06636951  1
  Zn  Zn125  1  0.81226872  0.55863719  0.56686696  1
  Zn  Zn126  1  0.44083318  0.43933295  0.18587355  1
  Zn  Zn127  1  0.43699028  0.43073461  0.69172595  1
  Zn  Zn128  1  0.43440061  0.92590976  0.19487550  1
  Zn  Zn129  1  0.40680291  0.92636241  0.70397249  1
  Zn  Zn130  1  0.93540969  0.44011572  0.19153329  1
  Zn  Zn131  1  0.93056923  0.43308562  0.69109792  1
  Zn  Zn132  1  0.93767612  0.94055526  0.18967842  1
  Zn  Zn133  1  0.95221435  0.93696737  0.68915978  1
  Zn  Zn134  1  0.06338688  0.06269450  0.30934019  1
  Zn  Zn135  1  0.06636355  0.06352671  0.80564240  1
  Zn  Zn136  1  0.06760850  0.56686590  0.31475282  1
  Zn  Zn137  1  0.05089717  0.56748349  0.69136444  1
  Zn  Zn138  1  0.56608652  0.06837138  0.30301669  1
  Zn  Zn139  1  0.56322708  0.05434486  0.82048680  1
  Zn  Zn140  1  0.56569315  0.56928949  0.30909784  1
  Zn  Zn141  1  0.56202358  0.56015899  0.81200013  1
  Zn  Zn142  1  0.43967117  0.18474908  0.42097111  1
  Zn  Zn143  1  0.45063220  0.18920493  0.94810071  1
  Zn  Zn144  1  0.43161885  0.67865843  0.43875665  1
  Zn  Zn145  1  0.42913631  0.69226280  0.93782396  1
  Zn  Zn146  1  0.93674312  0.19283716  0.43368735  1
  Zn  Zn147  1  0.93455854  0.18572659  0.93968424  1
  Zn  Zn148  1  0.94056977  0.68873114  0.44500364  1
  Zn  Zn149  1  0.94606395  0.68670194  0.93687967  1
  Zn  Zn150  1  0.05270542  0.31665268  0.06696512  1
  Zn  Zn151  1  0.06368608  0.31531340  0.56511742  1
  Zn  Zn152  1  0.06006144  0.81394623  0.06020930  1
  Zn  Zn153  1  0.06152599  0.82095308  0.56066102  1
  Zn  Zn154  1  0.56772085  0.32342294  0.06284174  1
  Zn  Zn155  1  0.52294183  0.28770423  0.53931833  1
  Zn  Zn156  1  0.56433302  0.80620696  0.07205130  1
  Zn  Zn157  1  0.55622590  0.81603268  0.56052844  1
  O  O158  1  0.11356701  0.11590900  0.12901896  1
  O  O159  1  0.13160925  0.11552114  0.62981923  1
  O  O160  1  0.12073711  0.62117325  0.12120781  1
  O  O161  1  0.12954203  0.62377713  0.61478273  1
  O  O162  1  0.62193429  0.11803837  0.11270459  1
  O  O163  1  0.62850563  0.11939045  0.60914635  1
  O  O164  1  0.62245689  0.63110510  0.12125164  1
  O  O165  1  0.61194186  0.61288044  0.63634300  1
  O  O166  1  0.37752679  0.38817959  0.37308879  1
  O  O167  1  0.38291035  0.38283974  0.86277834  1
  O  O168  1  0.36727292  0.88514451  0.37878502  1
  O  O169  1  0.37770760  0.87475811  0.89807613  1
  O  O170  1  0.88909185  0.36251088  0.38485556  1
  O  O171  1  0.88358305  0.36792904  0.87564581  1
  O  O172  1  0.88647788  0.87999602  0.37948859  1
  O  O173  1  0.87936351  0.87178267  0.87827523  1
  O  O174  1  0.25081822  0.01358079  0.36746711  1
  O  O175  1  0.27141374  0.00354423  0.88932376  1
  O  O176  1  0.26117075  0.50283000  0.37326689  1
  O  O177  1  0.25275363  0.50320674  0.86634240  1
  O  O178  1  0.76151185  0.00874500  0.37029841  1
  O  O179  1  0.74524520  0.01211874  0.86186866  1
  O  O180  1  0.74591909  0.51612283  0.36511104  1
  O  O181  1  0.75770659  0.49478096  0.86438993  1
  O  O182  1  0.24147421  0.48955945  0.12511124  1
  O  O183  1  0.25951528  0.48888435  0.63862691  1
  O  O184  1  0.24147905  0.99601375  0.12812640  1
  O  O185  1  0.23973263  0.99059754  0.62340340  1
  O  O186  1  0.75916262  0.51056975  0.14320042  1
  O  O187  1  0.74242460  0.49383465  0.63614157  1
  O  O188  1  0.75809855  1.00182596  0.13991488  1
  O  O189  1  0.74766870  1.00616676  0.63908921  1
  O  O190  1  0.00944741  0.37657148  0.26053558  1
  O  O191  1  0.00151969  0.36259327  0.75744538  1
  O  O192  1  0.01025640  0.88195006  0.26073452  1
  O  O193  1  -0.00450755  0.85666945  0.75509718  1
  O  O194  1  0.50556719  0.37528277  0.25716234  1
  O  O195  1  0.51160777  0.37350438  0.76264936  1
  O  O196  1  0.50186944  0.85266304  0.24719840  1
  O  O197  1  0.50190883  0.85931601  0.75166090  1
  O  O198  1  0.51106840  0.14041518  0.22885560  1
  O  O199  1  0.51354231  0.13499947  0.75472729  1
  O  O200  1  0.49394689  0.63751632  0.24991764  1
  O  O201  1  0.49123455  0.62797974  0.74355272  1
  O  O202  1  0.98913133  0.12296706  0.23957906  1
  O  O203  1  0.98960248  0.13806780  0.75516345  1
  O  O204  1  0.99130644  0.62384431  0.24590128  1
  O  O205  1  1.00891905  0.65084516  0.75132809  1
  O  O206  1  0.36433195  0.25592673  -0.00339964  1
  O  O207  1  0.41853932  0.25913973  0.50057804  1
  O  O208  1  0.37279044  0.75933367  0.01598297  1
  O  O209  1  0.36883856  0.75256117  0.50598727  1
  O  O210  1  0.87575108  0.24767648  0.01310625  1
  O  O211  1  0.86201197  0.25590369  0.50768157  1
  O  O212  1  0.87396394  0.76077353  -0.00056056  1
  O  O213  1  0.88359631  0.76421686  0.51225644  1
  O  O214  1  0.12457209  0.25234421  0.48587370  1
  O  O215  1  0.11924371  0.25280194  0.99173971  1
  O  O216  1  0.13799590  0.74494808  0.50608292  1
  O  O217  1  0.12196909  0.74060762  0.99282350  1
  O  O218  1  0.63185031  0.24090123  0.50278037  1
  O  O219  1  0.62293680  0.24923908  0.99144295  1
  O  O220  1  0.61135452  0.75283120  0.48442327  1
  O  O221  1  0.64350182  0.75469170  0.98629672  1
  O  O222  1  0.49682043  0.26763640  0.13172627  1
  O  O223  1  0.51512084  0.25722006  0.64790527  1
  O  O224  1  0.48083659  0.74149746  0.13172151  1
  O  O225  1  0.49388657  0.73976265  0.63273377  1
  O  O226  1  0.99260982  0.23813489  0.12679076  1
  O  O227  1  0.99091420  0.24939922  0.63423324  1
  O  O228  1  0.98860981  0.74266236  0.12245487  1
  O  O229  1  0.99460440  0.75478220  0.62952836  1
  O  O230  1  0.01481202  0.25606942  0.37067791  1
  O  O231  1  0.00492208  0.25659405  0.87284568  1
  O  O232  1  -0.00059906  0.76534651  0.37589182  1
  O  O233  1  0.01601163  0.75166204  0.87197994  1
  O  O234  1  0.50712205  0.26715641  0.36001447  1
  O  O235  1  0.51028831  0.25678075  0.87174390  1
  O  O236  1  0.49821363  0.74371176  0.37114439  1
  O  O237  1  0.50818595  0.74833072  0.86834702  1
  O  O238  1  0.24915319  0.12594554  0.48445504  1
  O  O239  1  0.25116416  0.14495010  0.99838920  1
  O  O240  1  0.24304464  0.63162881  0.49661368  1
  O  O241  1  0.23884468  0.61851884  0.98737199  1
  O  O242  1  0.74366506  0.12998644  0.49261517  1
  O  O243  1  0.73863799  0.11303482  0.99305887  1
  O  O244  1  0.75862903  0.61764763  0.48500355  1
  O  O245  1  0.76333030  0.64010851  0.99555660  1
  O  O246  1  0.23914637  0.36833483  0.01454828  1
  O  O247  1  0.24800482  0.38135636  0.51846981  1
  O  O248  1  0.25737849  0.87703470  0.01726852  1
  O  O249  1  0.26202442  0.86388307  0.49369129  1
  O  O250  1  0.71546065  0.38830335  0.03692674  1
  O  O251  1  0.75289887  0.36707395  0.50229806  1
  O  O252  1  0.76919612  0.86702989  -0.00754715  1
  O  O253  1  0.76462683  0.87594974  0.49404911  1
  O  O254  1  0.13018133  0.49085931  0.24163600  1
  O  O255  1  0.13363963  0.49166052  0.75011316  1
  O  O256  1  0.13048223  0.99443697  0.23932911  1
  O  O257  1  0.12900429  1.00081061  0.73910956  1
  O  O258  1  0.63903397  0.50621712  0.24401481  1
  O  O259  1  0.63382566  0.49087758  0.74893186  1
  O  O260  1  0.64114747  0.99502479  0.25512696  1
  O  O261  1  0.63094597  0.98992691  0.74962645  1
  O  O262  1  0.35839889  -0.01044475  0.25543340  1
  O  O263  1  0.38583779  0.01631537  0.77227107  1
  O  O264  1  0.37505648  0.50054543  0.26132837  1
  O  O265  1  0.36966554  0.50770350  0.75786065  1
  O  O266  1  0.86824179  0.00928733  0.25651464  1
  O  O267  1  0.87076589  0.01237111  0.74427286  1
  O  O268  1  0.87227202  0.51562092  0.25392434  1
  O  O269  1  0.85717947  0.49316263  0.75653633  1
  O  O270  1  0.12425877  0.36470300  0.36948444  1
  O  O271  1  0.10954195  0.36901787  0.86664818  1
  O  O272  1  0.11492166  0.88408392  0.36484246  1
  O  O273  1  0.13917757  0.85821800  0.88308484  1
  O  O274  1  0.62044075  0.38265982  0.36903267  1
  O  O275  1  0.62096304  0.36816204  0.87029493  1
  O  O276  1  0.63362629  0.86022761  0.36726315  1
  O  O277  1  0.62330320  0.86097365  0.86329199  1
  O  O278  1  0.39639499  0.12676247  0.11235781  1
  O  O279  1  0.37175845  0.12405246  0.62021275  1
  O  O280  1  0.36231083  0.63538871  0.12190900  1
  O  O281  1  0.38024809  0.63074983  0.63234747  1
  O  O282  1  0.88067280  0.12913450  0.13092440  1
  O  O283  1  0.86713045  0.13729287  0.63645043  1
  O  O284  1  0.88581840  0.63313198  0.13676641  1
  O  O285  1  0.88318731  0.63492106  0.61163870  1
  O  O286  1  0.25206126  0.25858640  0.11482918  1
  O  O287  1  0.25306465  0.26366466  0.62954142  1
  O  O288  1  0.26056136  0.76077255  0.13799901  1
  O  O289  1  0.26010484  0.75087457  0.61939677  1
  O  O290  1  0.76529330  0.24813188  0.12959562  1
  O  O291  1  0.75201084  0.25258869  0.61691997  1
  O  O292  1  0.77206140  0.74443741  0.10790848  1
  O  O293  1  0.76695994  0.74327821  0.62760130  1
  O  O294  1  0.24088746  0.23879907  0.36705970  1
  O  O295  1  0.23222799  0.26926701  0.89459148  1
  O  O296  1  0.25833000  0.73700009  0.38318912  1
  O  O297  1  0.23946318  0.73444676  0.86670923  1
  O  O298  1  0.75598736  0.23932824  0.38464185  1
  O  O299  1  0.73928791  0.23356921  0.86986503  1
  O  O300  1  0.73837965  0.73902496  0.37340956  1
  O  O301  1  0.74437203  0.74858851  0.87730321  1
  O  O302  1  -0.01133049  0.10726574  0.00994210  1
  O  O303  1  -0.02310426  0.11963898  0.50553115  1
  O  O304  1  0.00966245  0.62659188  0.01559389  1
  O  O305  1  0.02040340  0.62207923  0.49161493  1
  O  O306  1  0.51874469  0.12260054  0.01412903  1
  O  O307  1  0.51163003  0.11036386  0.48456674  1
  O  O308  1  0.48796046  0.61414009  -0.00164857  1
  O  O309  1  0.49513957  0.61370803  0.51358571  1
  O  O310  1  0.51097971  0.38756025  0.47978307  1
  O  O311  1  0.50289476  0.38686167  0.98587369  1
  O  O312  1  0.48872518  0.88547100  0.49361129  1
  O  O313  1  0.49064504  0.86622196  1.00856314  1
  O  O314  1  0.99217395  0.37199417  0.49482105  1
  O  O315  1  1.00159245  0.37889028  0.98632985  1
  O  O316  1  0.99531564  0.88211052  0.48421650  1
  O  O317  1  0.98996141  0.88519569  1.00086894  1
  O  O318  1  0.49289998  0.49522771  0.37699212  1
  O  O319  1  0.49066849  0.49500222  0.87964863  1
  O  O320  1  0.48320377  1.00941140  0.36174948  1
  O  O321  1  0.48971055  0.99016266  0.88286814  1
  O  O322  1  1.01196536  0.48604490  0.38339545  1
  O  O323  1  0.97967552  0.48467151  0.86655727  1
  O  O324  1  0.98761752  0.99836518  0.37209194  1
  O  O325  1  1.00954459  1.00637520  0.88954659  1
  O  O326  1  0.00558210  0.00634682  0.12078744  1
  O  O327  1  0.01359901  0.00870250  0.62545635  1
  O  O328  1  0.00914618  0.51148326  0.13243605  1
  O  O329  1  0.00296792  0.48930054  0.62900643  1
  O  O330  1  0.49977062  0.00587685  0.13956130  1
  O  O331  1  0.49256485  -0.00572574  0.61516823  1
  O  O332  1  0.49719428  0.50070789  0.10699493  1
  O  O333  1  0.50305701  0.50192101  0.62056250  1
  O  O334  1  0.24188252  0.37187771  0.23618791  1
  O  O335  1  0.24052286  0.37908776  0.74829219  1
  O  O336  1  0.23519361  0.88597164  0.24435782  1
  O  O337  1  0.30457108  0.87824792  0.73960678  1
  O  O338  1  0.75904738  0.39670003  0.26056992  1
  O  O339  1  0.73940580  0.37477427  0.74605365  1
  O  O340  1  0.75984637  0.89082482  0.25663840  1
  O  O341  1  0.74251607  0.88426347  0.75676240  1
  O  O342  1  0.24554614  0.11532820  0.24789996  1
  O  O343  1  0.26500100  0.16774582  0.77707838  1
  O  O344  1  0.24283177  0.62462836  0.26579512  1
  O  O345  1  0.25522248  0.61532495  0.75429401  1
  O  O346  1  0.75489127  0.11715225  0.25621301  1
  O  O347  1  0.75407117  0.11814941  0.75703339  1
  O  O348  1  0.76579306  0.62045932  0.26211159  1
  O  O349  1  0.74565583  0.60939748  0.74803110  1
  O  O350  1  0.35968873  0.11763712  0.37154526  1
  O  O351  1  0.38412517  0.11188108  0.89617294  1
  O  O352  1  0.35910044  0.60990180  0.38248851  1
  O  O353  1  0.36467739  0.61907705  0.86661676  1
  O  O354  1  0.86702708  0.12006504  0.36555325  1
  O  O355  1  0.86406556  0.13229444  0.86500828  1
  O  O356  1  0.87151490  0.63833148  0.36642481  1
  O  O357  1  0.88253684  0.61325014  0.87594221  1
  O  O358  1  0.12541058  0.38247593  0.13154023  1
  O  O359  1  0.13514650  0.36679921  0.63933867  1
  O  O360  1  0.12664049  0.88166300  0.13467856  1
  O  O361  1  0.12266033  0.88787213  0.62740958  1
  O  O362  1  0.65483559  0.39672403  0.09186094  1
  O  O363  1  0.62795244  0.38535613  0.63788901  1
  O  O364  1  0.64340984  0.82676880  0.14458511  1
  O  O365  1  0.61865107  0.87200168  0.64011143  1
  O  O366  1  0.12211026  0.26279500  0.25246933  1
  O  O367  1  0.11332619  0.25820386  0.76084518  1
  O  O368  1  0.12631210  0.76794151  0.24885583  1
  O  O369  1  0.12224115  0.75645591  0.75853060  1
  O  O370  1  0.61386547  0.25382474  0.23931809  1
  O  O371  1  0.62099939  0.25592431  0.76288298  1
  O  O372  1  0.60687889  0.74218374  0.27240509  1
  O  O373  1  0.62085313  0.75329220  0.75733442  1
  O  O374  1  0.39747386  0.25343974  0.24975712  1
  O  O375  1  0.39940023  0.24566699  0.75720884  1
  O  O376  1  0.38072586  0.75371287  0.24179104  1
  O  O377  1  0.38288569  0.73642835  0.74545358  1
  O  O378  1  0.87638988  0.23781752  0.24516305  1
  O  O379  1  0.87857835  0.24408180  0.74256443  1
  O  O380  1  0.86880927  0.74306063  0.23932755  1
  O  O381  1  0.88444013  0.74911137  0.73215400  1
  O  O382  1  0.38649033  0.49988256  0.49135260  1
  O  O383  1  0.37977470  0.50011428  0.98469736  1
  O  O384  1  0.38007909  0.99168697  0.48723517  1
  O  O385  1  0.37872976  0.98377290  1.00357796  1
  O  O386  1  0.87407425  0.47981108  0.50722109  1
  O  O387  1  0.86411610  0.49876836  0.98277724  1
  O  O388  1  0.87393592  0.98891409  0.49041556  1
  O  O389  1  0.88548913  0.98556068  0.99965220  1
  O  O390  1  0.11224338  -0.00980018  0.01156046  1
  O  O391  1  0.12456205  0.00099839  0.51424337  1
  O  O392  1  0.12754406  0.50934121  0.01199229  1
  O  O393  1  0.12912851  0.51004211  0.50500803  1
  O  O394  1  0.62635723  -0.00188926  -0.00247799  1
  O  O395  1  0.61478655  0.00055133  0.50297339  1
  O  O396  1  0.60716382  0.51085930  -0.00999333  1
  O  O397  1  0.61913245  0.49701628  0.51509316  1
  O  O398  1  0.35841076  0.37910750  0.12650414  1
  O  O399  1  0.36422195  0.37002420  0.63109765  1
  O  O400  1  0.36667168  0.86804413  0.11977533  1
  O  O401  1  0.38549110  0.85966999  0.60689557  1
  O  O402  1  0.88574711  0.35970899  0.13100976  1
  O  O403  1  0.86587943  0.36057653  0.61975341  1
  O  O404  1  0.88295336  0.86181475  0.12628594  1
  O  O405  1  0.87731797  0.87956186  0.61118504  1
  O  O406  1  0.13315219  0.13722566  0.36765653  1
  O  O407  1  0.12287278  0.14497799  0.87292119  1
  O  O408  1  0.14410975  0.61660652  0.38903853  1
  O  O409  1  0.13076585  0.63404683  0.88417646  1
  O  O410  1  0.63773093  0.11734821  0.38325485  1
  O  O411  1  0.62872897  0.12713961  0.89189727  1
  O  O412  1  0.63637703  0.63153711  0.37948451  1
  O  O413  1  0.62364038  0.63892078  0.86874907  1
