# generated using pymatgen
data_V79Zn79O256
_symmetry_space_group_name_H-M   'P 1'
_cell_length_a   16.92425205
_cell_length_b   16.92533092
_cell_length_c   16.92634145
_cell_angle_alpha   89.96667232
_cell_angle_beta   90.12802583
_cell_angle_gamma   90.04217708
_symmetry_Int_Tables_number   1
_chemical_formula_structural   V79Zn79O256
_chemical_formula_sum   'V79 Zn79 O256'
_cell_volume   4848.51201048
_cell_formula_units_Z   1
loop_
 _symmetry_equiv_pos_site_id
 _symmetry_equiv_pos_as_xyz
  1  'x, y, z'
loop_
 _atom_site_type_symbol
 _atom_site_label
 _atom_site_symmetry_multiplicity
 _atom_site_fract_x
 _atom_site_fract_y
 _atom_site_fract_z
 _atom_site_occupancy
  V  V0  1  0.61980276  0.36017616  0.75080970  1
  V  V1  1  0.86276185  0.50194804  0.38953809  1
  V  V2  1  -0.00529410  0.12470166  0.11901336  1
  V  V3  1  0.50379735  0.13115340  0.63387200  1
  V  V4  1  0.76036222  0.25204025  0.50065950  1
  V  V5  1  -0.00010267  0.74183316  0.25053142  1
  V  V6  1  0.49160366  0.39231850  0.38188465  1
  V  V7  1  0.87717953  0.74591071  0.12309591  1
  V  V8  1  0.74439092  0.63029102  0.88038654  1
  V  V9  1  0.63082779  -0.00015235  0.62478443  1
  V  V10  1  0.12205239  0.12812238  0.50880225  1
  V  V11  1  -0.00129224  0.39245964  0.37895333  1
  V  V12  1  0.49074321  0.74532300  0.25059407  1
  V  V13  1  0.86864935  0.37162985  0.00692465  1
  V  V14  1  0.37506350  0.50657515  0.86585655  1
  V  V15  1  0.50347492  0.36123100  0.87317865  1
  V  V16  1  0.61085268  0.50459659  0.62249898  1
  V  V17  1  0.87771807  0.62266021  0.74319066  1
  V  V18  1  0.87527769  0.74355953  0.62252234  1
  V  V19  1  0.24852519  -0.00018517  0.25095015  1
  V  V20  1  0.13803205  -0.01094244  0.62908623  1
  V  V21  1  0.87129537  0.87334590  0.49909563  1
  V  V22  1  0.74665185  0.49740094  0.74797686  1
  V  V23  1  0.75799842  0.00380720  0.24983873  1
  V  V24  1  0.61591184  0.25032508  0.37142715  1
  V  V25  1  0.48544439  0.61964897  0.13105059  1
  V  V26  1  0.25089192  0.12730014  0.37582403  1
  V  V27  1  0.63138838  0.37251052  0.24717571  1
  V  V28  1  0.75599724  0.36845136  0.61951129  1
  V  V29  1  0.00839933  0.36857035  0.87310640  1
  V  V30  1  0.50310478  0.73294953  0.74954720  1
  V  V31  1  0.75785748  0.12734568  0.37091819  1
  V  V32  1  0.37885631  0.13701691  0.25038736  1
  V  V33  1  0.87962849  0.13838654  0.74685657  1
  V  V34  1  -0.00161425  0.87565622  0.37547145  1
  V  V35  1  0.00760146  0.25303578  0.73498647  1
  V  V36  1  0.11942541  0.00575228  0.11821076  1
  V  V37  1  0.49688762  0.87349985  0.37768306  1
  V  V38  1  0.50132702  0.49829819  0.00234481  1
  V  V39  1  0.88027817  0.88020706  -0.00546388  1
  V  V40  1  0.50126290  -0.00023022  0.50170363  1
  V  V41  1  0.23936950  0.61808548  0.87279404  1
  V  V42  1  0.62405206  0.87509942  0.74962582  1
  V  V43  1  -0.00129117  0.00475389  0.50778623  1
  V  V44  1  0.61672571  0.61912590  0.49536283  1
  V  V45  1  0.76075390  0.00428015  0.76529527  1
  V  V46  1  0.36480436  0.00575343  0.87676598  1
  V  V47  1  0.74870318  0.86717979  0.11940517  1
  V  V48  1  0.12331261  0.25407478  0.37289107  1
  V  V49  1  0.12686033  0.87724816  0.24939512  1
  V  V50  1  0.13739718  0.23778892  0.88647483  1
  V  V51  1  0.63030078  0.12585387  -0.01279180  1
  V  V52  1  -0.00836359  0.24366753  0.25068284  1
  V  V53  1  0.10807820  0.49522371  0.64449835  1
  V  V54  1  0.13092668  0.74947048  0.38035323  1
  V  V55  1  0.31763805  0.18824151  0.06885178  1
  V  V56  1  0.00449791  0.50563231  0.00744748  1
  V  V57  1  0.50457915  0.14095195  0.13038568  1
  V  V58  1  0.37465597  0.73680263  0.63369989  1
  V  V59  1  0.26277483  0.38032051  0.12014490  1
  V  V60  1  0.86151756  0.61644740  0.25381326  1
  V  V61  1  0.00934937  0.74830749  0.74565804  1
  V  V62  1  0.12756469  0.37930601  0.23697293  1
  V  V63  1  0.62361125  0.87432529  0.25014188  1
  V  V64  1  0.62915609  0.74538809  0.37789530  1
  V  V65  1  0.74897951  0.24656887  -0.01762577  1
  V  V66  1  0.86432568  0.24571266  0.12943042  1
  V  V67  1  0.11838624  0.61152469  0.49854902  1
  V  V68  1  0.25734759  0.38888111  0.64234891  1
  V  V69  1  0.35633276  0.12273368  0.74977554  1
  V  V70  1  0.62675522  0.12625731  0.49859483  1
  V  V71  1  0.11948121  0.74397159  0.89711055  1
  V  V72  1  0.25375968  0.26347522  0.49976650  1
  V  V73  1  0.37095306  0.87736347  0.51388995  1
  V  V74  1  0.37860212  0.25312233  0.62584965  1
  V  V75  1  0.87303356  0.49597501  0.87635046  1
  V  V76  1  0.24861352  0.74850620  0.50708267  1
  V  V77  1  0.62427202  0.00277554  0.12534475  1
  V  V78  1  0.64059785  0.49954984  0.13251863  1
  Zn  Zn79  1  0.75062859  0.87303725  0.62402911  1
  Zn  Zn80  1  0.25417115  0.74921900  0.00813946  1
  Zn  Zn81  1  0.00037249  0.01167839  -0.02039862  1
  Zn  Zn82  1  0.37603174  0.00149055  0.37664749  1
  Zn  Zn83  1  0.87804626  0.00612962  0.37283171  1
  Zn  Zn84  1  0.62465351  0.75660560  0.88932444  1
  Zn  Zn85  1  0.36812097  0.77368298  0.12621826  1
  Zn  Zn86  1  0.50395984  0.88385212  0.87338915  1
  Zn  Zn87  1  0.75407986  0.74008580  0.49507877  1
  Zn  Zn88  1  0.63222916  0.63218796  0.01194876  1
  Zn  Zn89  1  0.37570765  0.36106264  -0.00318319  1
  Zn  Zn90  1  0.49528027  -0.00007548  -0.00077279  1
  Zn  Zn91  1  0.13541979  0.52396508  0.11114248  1
  Zn  Zn92  1  0.38531373  0.86081734  -0.01367269  1
  Zn  Zn93  1  0.00016969  0.88544117  0.86559246  1
  Zn  Zn94  1  0.18188329  0.18747868  0.18695013  1
  Zn  Zn95  1  0.18501366  0.20000504  0.68922091  1
  Zn  Zn96  1  0.21436391  0.68337937  0.18395955  1
  Zn  Zn97  1  0.19242023  0.82077958  0.69436734  1
  Zn  Zn98  1  0.68821894  0.18924394  0.18869777  1
  Zn  Zn99  1  0.69397601  0.18272217  0.68918022  1
  Zn  Zn100  1  0.68448525  0.68656041  0.19156388  1
  Zn  Zn101  1  0.68892182  0.68583946  0.68504917  1
  Zn  Zn102  1  0.31333167  0.32102359  0.30907448  1
  Zn  Zn103  1  0.31781375  0.30911609  0.81276028  1
  Zn  Zn104  1  0.31062424  0.81202731  0.31726678  1
  Zn  Zn105  1  0.31900189  0.80738477  0.81541909  1
  Zn  Zn106  1  0.81147033  0.31902795  0.31603197  1
  Zn  Zn107  1  0.81495004  0.31259039  0.80888644  1
  Zn  Zn108  1  0.81222850  0.81250336  0.30777600  1
  Zn  Zn109  1  0.81198256  0.81291893  0.80809305  1
  Zn  Zn110  1  0.20051740  0.44342123  0.42413453  1
  Zn  Zn111  1  0.19125182  0.43172850  0.94048138  1
  Zn  Zn112  1  0.18771967  0.93810539  0.44233827  1
  Zn  Zn113  1  0.20935477  0.91039535  0.88339676  1
  Zn  Zn114  1  0.68148639  0.43628998  0.43726836  1
  Zn  Zn115  1  0.68487811  0.43601595  0.94024385  1
  Zn  Zn116  1  0.68780930  0.93729629  0.43506293  1
  Zn  Zn117  1  0.68954588  0.93559315  0.93946649  1
  Zn  Zn118  1  0.29172921  -0.04506906  0.05770684  1
  Zn  Zn119  1  0.31356363  0.06631243  0.56227502  1
  Zn  Zn120  1  0.31239081  0.55733708  0.05090438  1
  Zn  Zn121  1  0.25396224  0.60212573  0.65822475  1
  Zn  Zn122  1  0.81289557  0.06260702  0.06081926  1
  Zn  Zn123  1  0.81643964  0.06665101  0.56414657  1
  Zn  Zn124  1  0.82044938  0.56454907  0.06450677  1
  Zn  Zn125  1  0.80184311  0.56114193  0.55984239  1
  Zn  Zn126  1  0.44278948  0.43351356  0.20143810  1
  Zn  Zn127  1  0.43584442  0.43524750  0.68756524  1
  Zn  Zn128  1  0.43720239  0.94446163  0.18840726  1
  Zn  Zn129  1  0.43783469  0.94180721  0.69274565  1
  Zn  Zn130  1  0.93865769  0.43550188  0.19159534  1
  Zn  Zn131  1  0.93532152  0.43245415  0.68716520  1
  Zn  Zn132  1  0.93754639  0.93364966  0.18403112  1
  Zn  Zn133  1  0.93994822  0.93449603  0.68628391  1
  Zn  Zn134  1  0.06047619  0.06476283  0.31494337  1
  Zn  Zn135  1  0.06554058  0.06889263  0.80730048  1
  Zn  Zn136  1  0.10155668  0.58988949  0.27686729  1
  Zn  Zn137  1  0.05681722  0.56330934  0.81700501  1
  Zn  Zn138  1  0.56467219  0.06329597  0.31196249  1
  Zn  Zn139  1  0.56214489  0.05944066  0.81052848  1
  Zn  Zn140  1  0.55918521  0.55837261  0.31025304  1
  Zn  Zn141  1  0.56303105  0.55425835  0.81389479  1
  Zn  Zn142  1  0.43684539  0.18894313  0.44256562  1
  Zn  Zn143  1  0.44515030  0.17657283  0.93295993  1
  Zn  Zn144  1  0.43621591  0.68279901  0.44772077  1
  Zn  Zn145  1  0.44269409  0.68583877  0.93951112  1
  Zn  Zn146  1  0.94024103  0.19222941  0.44021559  1
  Zn  Zn147  1  0.93375694  0.18304553  0.93007868  1
  Zn  Zn148  1  0.94324195  0.67875469  0.43678443  1
  Zn  Zn149  1  0.93253936  0.68763348  0.93665069  1
  Zn  Zn150  1  0.05741547  0.30949092  0.05924325  1
  Zn  Zn151  1  0.07174340  0.32685975  0.55809110  1
  Zn  Zn152  1  0.06048707  0.81534839  0.06731108  1
  Zn  Zn153  1  0.05634957  0.81161423  0.56343636  1
  Zn  Zn154  1  0.57161148  0.31495927  0.05957854  1
  Zn  Zn155  1  0.56539026  0.31376991  0.55851848  1
  Zn  Zn156  1  0.55739434  0.80959926  0.06003996  1
  Zn  Zn157  1  0.55925852  0.80749678  0.56555213  1
  O  O158  1  0.11099927  0.11418086  0.13249323  1
  O  O159  1  0.13083351  0.12692382  0.61030468  1
  O  O160  1  0.12009938  0.62294409  0.15888072  1
  O  O161  1  0.14016078  0.59390747  0.61257658  1
  O  O162  1  0.62228336  0.11815758  0.12452113  1
  O  O163  1  0.62231617  0.11998642  0.61931051  1
  O  O164  1  0.62064293  0.61062250  0.12984986  1
  O  O165  1  0.62617960  0.60920156  0.62274060  1
  O  O166  1  0.39206640  0.37158948  0.36877262  1
  O  O167  1  0.39074409  0.37921282  0.87418264  1
  O  O168  1  0.38640735  0.87505254  0.38545885  1
  O  O169  1  0.38177100  0.89486919  0.86681384  1
  O  O170  1  0.88785607  0.39104244  0.36700319  1
  O  O171  1  0.87689376  0.38147055  0.88294432  1
  O  O172  1  0.88296591  0.87354498  0.38212675  1
  O  O173  1  0.87451624  0.86116820  0.89260207  1
  O  O174  1  0.24715367  0.01329135  0.37097802  1
  O  O175  1  0.26550629  0.01098947  0.87254082  1
  O  O176  1  0.28264562  0.51143087  0.36851195  1
  O  O177  1  0.26431447  0.50348413  0.88365320  1
  O  O178  1  0.75007131  0.00838315  0.36730895  1
  O  O179  1  0.75061630  -0.00260749  0.86372124  1
  O  O180  1  0.76384418  0.49199793  0.37961681  1
  O  O181  1  0.75558318  0.50058905  0.86643856  1
  O  O182  1  0.24671350  0.48453325  0.11762390  1
  O  O183  1  0.26584824  0.48871308  0.63111186  1
  O  O184  1  0.22968027  1.00528061  0.14048157  1
  O  O185  1  0.23708552  1.00158664  0.61580135  1
  O  O186  1  0.73885122  0.50109956  0.11865905  1
  O  O187  1  0.74038351  0.48711889  0.63259846  1
  O  O188  1  0.74265783  0.99432280  0.13203198  1
  O  O189  1  0.73821183  0.99962188  0.62642034  1
  O  O190  1  0.00925251  0.36265687  0.25513422  1
  O  O191  1  -0.01286752  0.36427960  0.76612695  1
  O  O192  1  0.00427686  0.87157486  0.26152709  1
  O  O193  1  -0.01195534  0.85191863  0.75364227  1
  O  O194  1  0.51774211  0.37743858  0.26657970  1
  O  O195  1  0.51148714  0.37494450  0.75948674  1
  O  O196  1  0.50375997  0.86974058  0.25860284  1
  O  O197  1  0.51519909  0.87545319  0.74946941  1
  O  O198  1  0.49026942  0.11636978  0.24201982  1
  O  O199  1  0.50601688  0.12771486  0.73518277  1
  O  O200  1  0.50387461  0.63234861  0.23971679  1
  O  O201  1  0.50762599  0.63441601  0.75092866  1
  O  O202  1  1.00035899  0.13772888  0.24620373  1
  O  O203  1  0.99385638  0.14540979  0.74453512  1
  O  O204  1  0.99350810  0.63999452  0.26151122  1
  O  O205  1  0.98502230  0.63087755  0.75340704  1
  O  O206  1  0.37749580  0.24255516  0.00172292  1
  O  O207  1  0.36259727  0.23923465  0.51409549  1
  O  O208  1  0.37692667  0.74788774  0.00553532  1
  O  O209  1  0.37053410  0.75526967  0.51478490  1
  O  O210  1  0.86374025  0.25171351  0.00436651  1
  O  O211  1  0.86029618  0.25062167  0.49602504  1
  O  O212  1  0.88171037  0.75651610  0.01496274  1
  O  O213  1  0.87748818  0.75319960  0.50473423  1
  O  O214  1  0.13213004  0.24727649  0.49104540  1
  O  O215  1  0.12028102  0.25281036  0.98558904  1
  O  O216  1  0.13027529  0.75481114  0.49636879  1
  O  O217  1  0.11513269  0.74056779  0.99819302  1
  O  O218  1  0.63574394  0.24408701  0.49079053  1
  O  O219  1  0.64043504  0.24016758  1.00247208  1
  O  O220  1  0.62422031  0.74143880  0.49441492  1
  O  O221  1  0.62571204  0.74394189  1.00088916  1
  O  O222  1  0.51162547  0.23978076  0.12395441  1
  O  O223  1  0.49070264  0.24233579  0.61428268  1
  O  O224  1  0.49745944  0.73519475  0.13425976  1
  O  O225  1  0.48706329  0.75028938  0.63641123  1
  O  O226  1  0.99039779  0.24234960  0.13122859  1
  O  O227  1  1.01093881  0.27074178  0.63702860  1
  O  O228  1  0.98857551  0.75954509  0.14051115  1
  O  O229  1  0.98734493  0.74899715  0.63490633  1
  O  O230  1  0.00738408  0.25527158  0.36831889  1
  O  O231  1  0.00413576  0.26094825  0.87309141  1
  O  O232  1  0.00616031  0.76088516  0.37223652  1
  O  O233  1  0.01080015  0.73559379  0.86371787  1
  O  O234  1  0.51474215  0.24347313  0.37836059  1
  O  O235  1  0.50201079  0.26293144  0.87833743  1
  O  O236  1  0.50416887  0.75487669  0.37127667  1
  O  O237  1  0.50255235  0.75125349  0.85802569  1
  O  O238  1  0.24255245  0.13462880  0.49055565  1
  O  O239  1  0.26143468  0.12675347  1.02159450  1
  O  O240  1  0.23350567  0.64679422  0.50851946  1
  O  O241  1  0.25436974  0.62667292  0.98282893  1
  O  O242  1  0.74584104  0.13169762  0.49311531  1
  O  O243  1  0.74217493  0.13478087  1.00152214  1
  O  O244  1  0.72816736  0.62814998  0.50517276  1
  O  O245  1  0.75459499  0.61751865  0.98295536  1
  O  O246  1  0.25510276  0.36911401  0.01508725  1
  O  O247  1  0.25020666  0.36536735  0.49434463  1
  O  O248  1  0.25950288  0.87226010  -0.01704355  1
  O  O249  1  0.26317597  0.86830432  0.49522070  1
  O  O250  1  0.75611219  0.35989210  -0.00577354  1
  O  O251  1  0.74049975  0.36857010  0.51375148  1
  O  O252  1  0.76033111  0.87859726  0.01247774  1
  O  O253  1  0.76174684  0.87151042  0.49808203  1
  O  O254  1  0.11283965  0.47762680  0.24319211  1
  O  O255  1  0.11707755  0.49961218  0.74359634  1
  O  O256  1  0.13007218  0.99494026  0.25318918  1
  O  O257  1  0.11975318  1.01236329  0.72394516  1
  O  O258  1  0.62617999  0.49302755  0.23925390  1
  O  O259  1  0.63168476  0.49298278  0.74027326  1
  O  O260  1  0.63348933  0.99433956  0.24300694  1
  O  O261  1  0.63653031  0.99555236  0.74297730  1
  O  O262  1  0.36249089  0.00912469  0.25474124  1
  O  O263  1  0.37818817  0.01737704  0.75295343  1
  O  O264  1  0.38705493  0.51931928  0.24465801  1
  O  O265  1  0.38262964  0.49679940  0.76681358  1
  O  O266  1  0.86172521  -0.00801617  0.25147962  1
  O  O267  1  0.86169013  -0.00626190  0.74658083  1
  O  O268  1  0.87775046  0.51409289  0.24969977  1
  O  O269  1  0.86638136  0.50160322  0.75617525  1
  O  O270  1  0.12349730  0.36961462  0.36178932  1
  O  O271  1  0.10953793  0.37502679  0.87610566  1
  O  O272  1  0.11524690  0.87241256  0.37272952  1
  O  O273  1  0.11304289  0.84633584  0.88103137  1
  O  O274  1  0.61920990  0.36823090  0.36784823  1
  O  O275  1  0.61628234  0.38097224  0.86158793  1
  O  O276  1  0.61364036  0.86707297  0.37349211  1
  O  O277  1  0.62903730  0.87278006  0.86237064  1
  O  O278  1  0.38483181  0.12863043  0.13127264  1
  O  O279  1  0.38295625  0.12908256  0.63435086  1
  O  O280  1  0.38646540  0.61742964  0.12304735  1
  O  O281  1  0.36486612  0.63878583  0.63015924  1
  O  O282  1  0.88061461  0.13400552  0.12579087  1
  O  O283  1  0.87504384  0.11745550  0.64444812  1
  O  O284  1  0.87135067  0.63499334  0.13922888  1
  O  O285  1  0.86529112  0.62844820  0.63393092  1
  O  O286  1  0.25559539  0.25238832  0.12618043  1
  O  O287  1  0.25382656  0.26444588  0.61746839  1
  O  O288  1  0.25404573  0.76104055  0.12337796  1
  O  O289  1  0.26500768  0.75858901  0.62501194  1
  O  O290  1  0.76080770  0.24640732  0.11955386  1
  O  O291  1  0.74229670  0.26126613  0.61762391  1
  O  O292  1  0.75849416  0.76030024  0.13572918  1
  O  O293  1  0.76304339  0.75244496  0.62399748  1
  O  O294  1  0.24258543  0.24611854  0.37844608  1
  O  O295  1  0.23531958  0.26115346  0.87242616  1
  O  O296  1  0.23900566  0.75734475  0.38747435  1
  O  O297  1  0.23145266  0.73593669  0.87933988  1
  O  O298  1  0.74331330  0.24513829  0.38050289  1
  O  O299  1  0.75447802  0.24689476  0.88357962  1
  O  O300  1  0.73253156  0.75733110  0.37275518  1
  O  O301  1  0.74702292  0.73198232  0.86384345  1
  O  O302  1  -0.00903306  0.12460978  0.01342988  1
  O  O303  1  0.00966524  0.11636640  0.49114872  1
  O  O304  1  -0.01104649  0.60368417  -0.00763732  1
  O  O305  1  0.01980289  0.63028218  0.50828845  1
  O  O306  1  0.51869184  0.12508813  0.01014322  1
  O  O307  1  0.50673927  0.11851516  0.50843683  1
  O  O308  1  0.50474681  0.61412778  0.01425282  1
  O  O309  1  0.51635473  0.62891489  0.50801026  1
  O  O310  1  0.50784412  0.37091709  0.48098665  1
  O  O311  1  0.50617825  0.37885230  0.98751017  1
  O  O312  1  0.49354980  0.87840758  0.49532865  1
  O  O313  1  0.50251078  0.88235474  0.99189108  1
  O  O314  1  1.00915922  0.37453383  0.47719203  1
  O  O315  1  0.98749667  0.37886610  0.98752068  1
  O  O316  1  0.99139196  0.88165234  0.49211647  1
  O  O317  1  0.98677717  0.87821783  1.00102163  1
  O  O318  1  0.50056401  0.49330047  0.38071324  1
  O  O319  1  0.49413528  0.49394515  0.88354967  1
  O  O320  1  0.50266859  0.98928318  0.38133448  1
  O  O321  1  0.49139922  1.00520289  0.87774262  1
  O  O322  1  0.99818442  0.49104332  0.36899465  1
  O  O323  1  0.98878501  0.48832001  0.87932632  1
  O  O324  1  0.99872375  0.99204963  0.38371347  1
  O  O325  1  1.00969852  0.99628018  0.87001027  1
  O  O326  1  0.00608606  0.00995836  0.13249103  1
  O  O327  1  0.00918035  -0.00796404  0.61088255  1
  O  O328  1  -0.00271806  0.49189051  0.10855149  1
  O  O329  1  0.01008994  0.48774276  0.62451201  1
  O  O330  1  0.51559172  0.00867320  0.12383030  1
  O  O331  1  0.51278349  0.00895085  0.62194030  1
  O  O332  1  0.50721637  0.50713531  0.12033039  1
  O  O333  1  0.51261351  0.49447654  0.62906333  1
  O  O334  1  0.23644449  0.36876847  0.23741120  1
  O  O335  1  0.25183107  0.37450607  0.73998162  1
  O  O336  1  0.23901465  0.88805910  0.26345803  1
  O  O337  1  0.24042583  0.87573947  0.77631164  1
  O  O338  1  0.73201603  0.37733467  0.25724124  1
  O  O339  1  0.73975764  0.37878938  0.74377470  1
  O  O340  1  0.74323116  0.88284555  0.24186395  1
  O  O341  1  0.74252925  0.88447260  0.74565573  1
  O  O342  1  0.25346639  0.12022701  0.25913461  1
  O  O343  1  0.25787082  0.12643292  0.74210054  1
  O  O344  1  0.21490607  0.60824015  0.26227161  1
  O  O345  1  0.25364764  0.62130548  0.77234970  1
  O  O346  1  0.74461372  0.11561477  0.25930796  1
  O  O347  1  0.75992954  0.11269476  0.75006939  1
  O  O348  1  0.76252742  0.62792933  0.25460425  1
  O  O349  1  0.75514136  0.61227356  0.75613481  1
  O  O350  1  0.36583473  0.12489776  0.37134394  1
  O  O351  1  0.37980569  0.12274672  0.85584803  1
  O  O352  1  0.36514936  0.61416524  0.38025949  1
  O  O353  1  0.37547946  0.60927642  0.87844363  1
  O  O354  1  0.86191520  0.12635454  0.37910906  1
  O  O355  1  0.88254111  0.12180928  0.85020780  1
  O  O356  1  0.87909285  0.61256587  0.36594289  1
  O  O357  1  0.86381435  0.61408275  0.86585152  1
  O  O358  1  0.12978453  0.36575961  0.13215399  1
  O  O359  1  0.14543730  0.39557087  0.61502687  1
  O  O360  1  0.11254995  0.89013425  0.14220178  1
  O  O361  1  0.12653300  0.88320398  0.62231016  1
  O  O362  1  0.62029750  0.38573183  0.13713980  1
  O  O363  1  0.62772181  0.38230922  0.63645100  1
  O  O364  1  0.63077871  0.88243324  0.12889184  1
  O  O365  1  0.62553592  0.88368943  0.62991949  1
  O  O366  1  0.11572040  0.25482710  0.25766093  1
  O  O367  1  0.11046719  0.25166154  0.76123941  1
  O  O368  1  0.11762296  0.76374400  0.26270658  1
  O  O369  1  0.10909743  0.74401938  0.74090802  1
  O  O370  1  0.62962513  0.26095608  0.25751908  1
  O  O371  1  0.63069647  0.26210942  0.74705504  1
  O  O372  1  0.61315774  0.75421922  0.25814439  1
  O  O373  1  0.61466330  0.75673689  0.74242950  1
  O  O374  1  0.37015550  0.23536867  0.25448443  1
  O  O375  1  0.37230193  0.23701485  0.73658362  1
  O  O376  1  0.38705622  0.75696746  0.25090617  1
  O  O377  1  0.38937011  0.75297846  0.74251275  1
  O  O378  1  0.88158330  0.26093082  0.24174311  1
  O  O379  1  0.88343969  0.24545332  0.74649828  1
  O  O380  1  0.88128651  0.74171096  0.24749557  1
  O  O381  1  0.87733254  0.73882989  0.74218847  1
  O  O382  1  0.33319803  0.55064730  0.41607947  1
  O  O383  1  0.39016472  0.48841599  0.99262823  1
  O  O384  1  0.38182228  0.99434843  0.49918278  1
  O  O385  1  0.37550342  1.01035140  0.98284799  1
  O  O386  1  0.87542585  0.50901268  0.48867073  1
  O  O387  1  0.87807581  0.48967385  0.99367065  1
  O  O388  1  0.88174161  0.99166298  0.49888726  1
  O  O389  1  0.87762162  0.98477986  1.00541274  1
  O  O390  1  0.11901288  -0.00546972  0.02091255  1
  O  O391  1  0.11869924  0.00835602  0.50686759  1
  O  O392  1  0.10930096  0.49253395  -0.00043152  1
  O  O393  1  0.13024228  0.51346092  0.47928581  1
  O  O394  1  0.63488798  0.01406204  0.00955114  1
  O  O395  1  0.62215957  0.00418256  0.50669518  1
  O  O396  1  0.61788339  0.49749576  0.01292442  1
  O  O397  1  0.62641659  0.50764299  0.51188385  1
  O  O398  1  0.36499046  0.37642642  0.12931727  1
  O  O399  1  0.36773926  0.36493619  0.62899295  1
  O  O400  1  0.37685665  0.89027647  0.11116676  1
  O  O401  1  0.38246661  0.87445003  0.61667810  1
  O  O402  1  0.88167818  0.36360749  0.11278619  1
  O  O403  1  0.85412656  0.37736508  0.62956177  1
  O  O404  1  0.86747056  0.86641829  0.11889927  1
  O  O405  1  0.87586605  0.86463962  0.61255183  1
  O  O406  1  0.13192163  0.13658581  0.38020172  1
  O  O407  1  0.12677220  0.13919353  0.87314857  1
  O  O408  1  0.11806066  0.64267760  0.38794498  1
  O  O409  1  0.13159891  0.62660596  0.87563545  1
  O  O410  1  0.63479366  0.13087433  0.37853036  1
  O  O411  1  0.62315864  0.12254594  0.88914518  1
  O  O412  1  0.61692059  0.63050040  0.38605111  1
  O  O413  1  0.63963461  0.61740487  0.87531600  1
